# MOL2 file generated by ConQuest
# Please check atom types

@<TRIPOS>MOLECULE
VIQWOI
   156   164     4
SMALL
NO_CHARGES
****
Generated from CSD

@<TRIPOS>ATOM
      1 O1        -0.2290   -3.5222   -8.4944 O.2       1 RES1    0.0000
      2 O2         5.5568   -3.4061  -16.1001 O.2       2 RES2    0.0000
      3 O3         2.6500   -5.9587   -9.2889 O.2       3 RES3    0.0000
      4 O4        -3.1169   -6.1252   -1.7697 O.2       4 RES4    0.0000
      5 O5         6.2289   -7.1702   -3.1302 O.2       1 RES1    0.0000
      6 O6         4.6877   -7.0328   -1.6550 O.2       1 RES1    0.0000
      7 O7         6.3962   -7.2070   -7.8073 O.2       2 RES2    0.0000
      8 O8         8.4866   -6.9767   -8.1743 O.2       2 RES2    0.0000
      9 O9        -3.5656   -2.0766  -14.8260 O.2       3 RES3    0.0000
     10 O10       -2.0670   -2.4946  -16.2817 O.2       3 RES3    0.0000
     11 O11       -6.1044   -2.5159   -9.6373 O.2       4 RES4    0.0000
     12 O12       -4.0185   -2.4694  -10.1039 O.2       4 RES4    0.0000
     13 N1         1.5878   -4.6292   -6.5425 N.2       1 RES1    0.0000
     14 N2         5.1003   -6.8664   -2.7851 N.pl3     1 RES1    0.0000
     15 N3         6.2450   -4.5498  -13.5214 N.2       2 RES2    0.0000
     16 N4         7.3198   -6.8567   -8.5012 N.pl3     2 RES2    0.0000
     17 N5         0.8816   -4.7414  -11.2402 N.2       3 RES3    0.0000
     18 N6        -2.4898   -2.5294  -15.1395 N.pl3     3 RES3    0.0000
     19 N7        -3.7966   -5.0298   -4.3546 N.2       4 RES4    0.0000
     20 N8        -4.9382   -2.7365   -9.3493 N.pl3     4 RES4    0.0000
     21 C1         1.1233   -1.4882   -8.2751 C.3       1 RES1    0.0000
     22 C2         0.6896   -2.9107   -8.0090 C.2       1 RES1    0.0000
     23 C3         1.6373   -3.4409   -6.9421 C.2       1 RES1    0.0000
     24 C4         2.4973   -2.2565   -6.6128 C.3       1 RES1    0.0000
     25 C5         1.5687   -1.2695   -5.8764 C.3       1 RES1    0.0000
     26 C6         0.6393   -0.7470   -7.0017 C.3       1 RES1    0.0000
     27 C7         2.6548   -1.6005   -8.0175 C.3       1 RES1    0.0000
     28 C8         3.3594   -2.5255   -9.0127 C.3       1 RES1    0.0000
     29 C9         3.3704   -0.2497   -7.9799 C.3       1 RES1    0.0000
     30 C10        4.4325   -1.6837  -14.7689 C.3       2 RES2    0.0000
     31 C11        5.2363   -2.9223  -15.0411 C.2       2 RES2    0.0000
     32 C12        5.5554   -3.4990  -13.6595 C.2       2 RES2    0.0000
     33 C13        4.9095   -2.5313  -12.6995 C.3       2 RES2    0.0000
     34 C14        3.3908   -2.7887  -12.8453 C.3       2 RES2    0.0000
     35 C15        3.0803   -2.2449  -14.2537 C.3       2 RES2    0.0000
     36 C16        5.1092   -1.1863  -13.4602 C.3       2 RES2    0.0000
     37 C17        6.5785   -0.8167  -13.6510 C.3       2 RES2    0.0000
     38 C18        4.3768   -0.0135  -12.7979 C.3       2 RES2    0.0000
     39 C19        0.9077   -7.6734   -9.1367 C.3       3 RES3    0.0000
     40 C20        1.5930   -6.4096   -9.6118 C.2       3 RES3    0.0000
     41 C21        0.6353   -5.8252  -10.6568 C.2       3 RES3    0.0000
     42 C22       -0.4878   -6.8277  -10.7370 C.3       3 RES3    0.0000
     43 C23       -1.2868   -6.6380   -9.4478 C.3       3 RES3    0.0000
     44 C24       -0.3334   -7.1528   -8.3590 C.3       3 RES3    0.0000
     45 C25        0.2829   -8.1553  -10.4952 C.3       3 RES3    0.0000
     46 C26        1.3060   -8.4610  -11.5536 C.3       3 RES3    0.0000
     47 C27       -0.6530   -9.3629  -10.3287 C.3       3 RES3    0.0000
     48 C28       -2.5399   -8.1475   -3.0196 C.3       4 RES4    0.0000
     49 C29       -3.0053   -6.7270   -2.8009 C.2       4 RES4    0.0000
     50 C30       -3.3195   -6.1910   -4.1947 C.2       4 RES4    0.0000
     51 C31       -2.9979   -7.3386   -5.1182 C.3       4 RES4    0.0000
     52 C32       -4.1345   -8.3507   -4.8740 C.3       4 RES4    0.0000
     53 C33       -3.8497   -8.8771   -3.4462 C.3       4 RES4    0.0000
     54 C34       -1.7967   -7.9946   -4.3879 C.3       4 RES4    0.0000
     55 C35       -0.5779   -7.0676   -4.2883 C.3       4 RES4    0.0000
     56 C36       -1.3673   -9.3242   -4.9918 C.3       4 RES4    0.0000
     57 C37        0.6439   -0.9425   -9.6118 C.3       1 RES1    0.0000
     58 C38        2.5101   -5.1246   -5.5860 C.ar      1 RES1    0.0000
     59 C39        3.6937   -5.7246   -6.0198 C.ar      1 RES1    0.0000
     60 C40        4.5511   -6.2858   -5.0915 C.ar      1 RES1    0.0000
     61 C41        4.1955   -6.2645   -3.7633 C.ar      1 RES1    0.0000
     62 C42        3.0211   -5.6917   -3.3246 C.ar      1 RES1    0.0000
     63 C43        2.1717   -5.1111   -4.2482 C.ar      1 RES1    0.0000
     64 C44        4.3097   -0.7470  -15.9695 C.3       2 RES2    0.0000
     65 C45        6.4748   -5.0879  -12.2317 C.ar      2 RES2    0.0000
     66 C46        5.4520   -5.5581  -11.4394 C.ar      2 RES2    0.0000
     67 C47        5.7177   -6.1484  -10.2121 C.ar      2 RES2    0.0000
     68 C48        7.0214   -6.2451   -9.7965 C.ar      2 RES2    0.0000
     69 C49        8.0731   -5.7904  -10.5766 C.ar      2 RES2    0.0000
     70 C50        7.8016   -5.2175  -11.8003 C.ar      2 RES2    0.0000
     71 C51        1.8029   -8.5965   -8.3371 C.3       3 RES3    0.0000
     72 C52       -0.0201   -4.2363  -12.1964 C.ar      3 RES3    0.0000
     73 C53       -1.1979   -3.6016  -11.8294 C.ar      3 RES3    0.0000
     74 C54       -2.0206   -3.0403  -12.7846 C.ar      3 RES3    0.0000
     75 C55       -1.6440   -3.1293  -14.1078 C.ar      3 RES3    0.0000
     76 C56       -0.4725   -3.7332  -14.4979 C.ar      3 RES3    0.0000
     77 C57        0.3346   -4.2963  -13.5379 C.ar      3 RES3    0.0000
     78 C58       -1.7948   -8.7378   -1.8434 C.3       4 RES4    0.0000
     79 C59       -4.0565   -4.5092   -5.6444 C.ar      4 RES4    0.0000
     80 C60       -5.3804   -4.3176   -6.0259 C.ar      4 RES4    0.0000
     81 C61       -5.6758   -3.7215   -7.2411 C.ar      4 RES4    0.0000
     82 C62       -4.6392   -3.3442   -8.0576 C.ar      4 RES4    0.0000
     83 C63       -3.3165   -3.5222   -7.6992 C.ar      4 RES4    0.0000
     84 C64       -3.0321   -4.1047   -6.4804 C.ar      4 RES4    0.0000
     85 H1         3.9245   -5.7499   -7.0305 H         1 RES1    0.0000
     86 H2         5.4489   -6.7079   -5.3889 H         1 RES1    0.0000
     87 H3         2.7798   -5.6992   -2.3181 H         1 RES1    0.0000
     88 H4         1.2841   -4.6693   -3.9320 H         1 RES1    0.0000
     89 H5         3.2872   -2.5420   -6.0015 H         1 RES1    0.0000
     90 H6         1.0329   -1.7385   -5.1293 H         1 RES1    0.0000
     91 H7         2.1178   -0.4763   -5.4676 H         1 RES1    0.0000
     92 H8        -0.3585   -0.9996   -6.7981 H         1 RES1    0.0000
     93 H9         0.7132    0.2783   -7.1182 H         1 RES1    0.0000
     94 H10        2.8314   -3.4162   -9.1045 H         1 RES1    0.0000
     95 H11        3.4136   -2.0591   -9.9434 H         1 RES1    0.0000
     96 H12        4.3235   -2.7282   -8.6750 H         1 RES1    0.0000
     97 H13        2.9235    0.3648   -7.2485 H         1 RES1    0.0000
     98 H14        4.3718   -0.3795   -7.7308 H         1 RES1    0.0000
     99 H15        3.2984    0.2264   -8.8991 H         1 RES1    0.0000
    100 H16        4.4649   -5.4581  -11.7576 H         2 RES2    0.0000
    101 H17        4.9399   -6.5025   -9.6186 H         2 RES2    0.0000
    102 H18        9.0525   -5.8747  -10.2472 H         2 RES2    0.0000
    103 H19        8.5802   -4.8709  -12.3955 H         2 RES2    0.0000
    104 H20        5.2265   -2.7136  -11.7212 H         2 RES2    0.0000
    105 H21        3.1767   -3.7972  -12.7742 H         2 RES2    0.0000
    106 H22        2.8536   -2.2643  -12.1185 H         2 RES2    0.0000
    107 H23        2.7419   -3.0103  -14.8721 H         2 RES2    0.0000
    108 H24        2.3583   -1.4944  -14.2093 H         2 RES2    0.0000
    109 H25        7.1166   -1.6525  -13.9865 H         2 RES2    0.0000
    110 H26        6.6724   -0.0530  -14.3454 H         2 RES2    0.0000
    111 H27        6.9906   -0.5059  -12.7398 H         2 RES2    0.0000
    112 H28        3.3863   -0.2404  -12.6503 H         2 RES2    0.0000
    113 H29        4.8269    0.1866  -11.8587 H         2 RES2    0.0000
    114 H30        4.4711    0.8397  -13.3856 H         2 RES2    0.0000
    115 H31       -1.4636   -3.5468  -10.8288 H         3 RES3    0.0000
    116 H32       -2.9077   -2.5625  -12.5137 H         3 RES3    0.0000
    117 H33       -0.2013   -3.7562  -15.5025 H         3 RES3    0.0000
    118 H34        1.2159   -4.7577  -13.8179 H         3 RES3    0.0000
    119 H35       -1.0805   -6.6440  -11.5729 H         3 RES3    0.0000
    120 H36       -1.5106   -5.6272   -9.2843 H         3 RES3    0.0000
    121 H37       -2.1707   -7.1826   -9.4551 H         3 RES3    0.0000
    122 H38       -0.0647   -6.3918   -7.7031 H         3 RES3    0.0000
    123 H39       -0.7757   -7.9296   -7.8200 H         3 RES3    0.0000
    124 H40        1.9557   -7.6457  -11.6690 H         3 RES3    0.0000
    125 H41        1.8632   -9.2990  -11.2911 H         3 RES3    0.0000
    126 H42        0.8321   -8.6379  -12.4675 H         3 RES3    0.0000
    127 H43       -1.3843   -9.1483   -9.6295 H         3 RES3    0.0000
    128 H44       -1.1015   -9.5752  -11.2489 H         3 RES3    0.0000
    129 H45       -0.1020  -10.1906  -10.0214 H         3 RES3    0.0000
    130 H46       -6.1462   -4.6009   -5.3863 H         4 RES4    0.0000
    131 H47       -6.6632   -3.5721   -7.5352 H         4 RES4    0.0000
    132 H48       -2.5482   -3.2263   -8.3368 H         4 RES4    0.0000
    133 H49       -2.0368   -4.2346   -6.1858 H         4 RES4    0.0000
    134 H50       -2.9846   -7.0146   -6.1099 H         4 RES4    0.0000
    135 H51       -5.0689   -7.8847   -4.9204 H         4 RES4    0.0000
    136 H52       -4.1064   -9.1219   -5.5738 H         4 RES4    0.0000
    137 H53       -4.6323   -8.6428   -2.8093 H         4 RES4    0.0000
    138 H54       -3.7067   -9.9067   -3.4649 H         4 RES4    0.0000
    139 H55       -0.8673   -6.1540   -3.8659 H         4 RES4    0.0000
    140 H56        0.1497   -7.5029   -3.6909 H         4 RES4    0.0000
    141 H57       -0.1911   -6.8913   -5.2383 H         4 RES4    0.0000
    142 H58       -2.1929   -9.9663   -5.0478 H         4 RES4    0.0000
    143 H59       -0.9909   -9.1761   -5.9509 H         4 RES4    0.0000
    144 H60       -0.6362   -9.7664   -4.3986 H         4 RES4    0.0000
    145 H61       -0.3870   -1.0687   -9.6888 H         1 RES1    0.0000
    146 H62        0.8712    0.0720   -9.6788 H         1 RES1    0.0000
    147 H63        1.1120   -1.4517  -10.3891 H         1 RES1    0.0000
    148 H64        3.8369   -1.2394  -16.7515 H         2 RES2    0.0000
    149 H65        3.7465    0.0939  -15.7035 H         2 RES2    0.0000
    150 H66        5.2557   -0.4385  -16.2719 H         2 RES2    0.0000
    151 H67        2.1404   -8.1235   -7.4910 H         3 RES3    0.0000
    152 H68        1.2689   -9.4560   -8.0824 H         3 RES3    0.0000
    153 H69        2.6195   -8.8787   -8.9348 H         3 RES3    0.0000
    154 H70       -2.4243   -8.7868   -1.0148 H         4 RES4    0.0000
    155 H71       -1.4639   -9.6946   -2.0814 H         4 RES4    0.0000
    156 H72       -0.9718   -8.1388   -1.6103 H         4 RES4    0.0000
@<TRIPOS>BOND
     1    1   22 2
     2    2   31 2
     3    3   40 2
     4    4   49 2
     5    5   14 2
     6    6   14 2
     7    7   16 2
     8    8   16 2
     9    9   18 2
    10   10   18 2
    11   11   20 2
    12   12   20 2
    13   13   23 2
    14   14   61 1
    15   15   32 2
    16   16   68 1
    17   17   41 2
    18   18   75 1
    19   19   50 2
    20   20   82 1
    21   21   22 1
    22   22   23 1
    23   23   24 1
    24   24   25 1
    25   25   26 1
    26   26   21 1
    27   27   21 1
    28   28   27 1
    29   29   27 1
    30   30   31 1
    31   31   32 1
    32   32   33 1
    33   33   34 1
    34   34   35 1
    35   35   30 1
    36   36   30 1
    37   37   36 1
    38   38   36 1
    39   39   40 1
    40   40   41 1
    41   41   42 1
    42   42   43 1
    43   43   44 1
    44   44   39 1
    45   45   39 1
    46   46   45 1
    47   47   45 1
    48   48   49 1
    49   49   50 1
    50   50   51 1
    51   51   52 1
    52   52   53 1
    53   53   48 1
    54   54   48 1
    55   55   54 1
    56   56   54 1
    57   57   21 1
    58   58   13 1
    59   59   58 ar
    60   60   59 ar
    61   61   60 ar
    62   62   61 ar
    63   63   58 ar
    64   64   30 1
    65   65   15 1
    66   66   65 ar
    67   67   66 ar
    68   68   67 ar
    69   69   68 ar
    70   70   65 ar
    71   71   39 1
    72   72   17 1
    73   73   72 ar
    74   74   73 ar
    75   75   74 ar
    76   76   75 ar
    77   77   72 ar
    78   78   48 1
    79   79   19 1
    80   80   79 ar
    81   81   80 ar
    82   82   81 ar
    83   83   82 ar
    84   84   79 ar
    85   85   59 1
    86   86   60 1
    87   87   62 1
    88   88   63 1
    89   89   24 1
    90   90   25 1
    91   91   25 1
    92   92   26 1
    93   93   26 1
    94   94   28 1
    95   95   28 1
    96   96   28 1
    97   97   29 1
    98   98   29 1
    99   99   29 1
   100  100   66 1
   101  101   67 1
   102  102   69 1
   103  103   70 1
   104  104   33 1
   105  105   34 1
   106  106   34 1
   107  107   35 1
   108  108   35 1
   109  109   37 1
   110  110   37 1
   111  111   37 1
   112  112   38 1
   113  113   38 1
   114  114   38 1
   115  115   73 1
   116  116   74 1
   117  117   76 1
   118  118   77 1
   119  119   42 1
   120  120   43 1
   121  121   43 1
   122  122   44 1
   123  123   44 1
   124  124   46 1
   125  125   46 1
   126  126   46 1
   127  127   47 1
   128  128   47 1
   129  129   47 1
   130  130   80 1
   131  131   81 1
   132  132   83 1
   133  133   84 1
   134  134   51 1
   135  135   52 1
   136  136   52 1
   137  137   53 1
   138  138   53 1
   139  139   55 1
   140  140   55 1
   141  141   55 1
   142  142   56 1
   143  143   56 1
   144  144   56 1
   145  145   57 1
   146  146   57 1
   147  147   57 1
   148  148   64 1
   149  149   64 1
   150  150   64 1
   151  151   71 1
   152  152   71 1
   153  153   71 1
   154  154   78 1
   155  155   78 1
   156  156   78 1
   157   24   27 1
   158   33   36 1
   159   42   45 1
   160   51   54 1
   161   62   63 ar
   162   69   70 ar
   163   76   77 ar
   164   83   84 ar
@<TRIPOS>SUBSTRUCTURE
     1 RES1 1
     2 RES2 2
     3 RES3 3
     4 RES4 4

@<TRIPOS>CRYSIN
  13.0551   19.3528   13.6762  90.0000 117.3132  90.0000   4 1

