# MOL2 file generated by ConQuest
# Please check atom types

@<TRIPOS>MOLECULE
VIRHAF
    38    40     1
SMALL
USER_CHARGES
****
Generated from CSD

@<TRIPOS>ATOM
      1 N1         1.7824    4.2035    5.2972 N.pl3     1 RES1    1.0000
      2 C1         1.6393    5.5703    5.2323 C.ar      1 RES1    0.0000
      3 C2         1.5435    6.4874    6.2797 C.ar      1 RES1    0.0000
      4 C3         1.3703    7.7981    5.9539 C.ar      1 RES1    0.0000
      5 C4         1.2816    8.2117    4.6271 C.ar      1 RES1    0.0000
      6 C5         1.3769    7.3025    3.5852 C.ar      1 RES1    0.0000
      7 C6         1.5828    5.9529    3.8763 C.ar      1 RES1    0.0000
      8 C7         1.6846    4.7353    3.1074 C.2       1 RES1    0.0000
      9 C8         1.7882    3.6875    4.0261 C.2       1 RES1    0.0000
     10 C9         1.8608    2.2540    3.7535 C.ar      1 RES1    0.0000
     11 C10        2.7516    1.7481    2.8114 C.ar      1 RES1    0.0000
     12 C11        2.7928    0.3963    2.5443 C.ar      1 RES1    0.0000
     13 C12        1.9862   -0.4706    3.2191 C.ar      1 RES1    0.0000
     14 C13        1.0941    0.0174    4.1361 C.ar      1 RES1    0.0000
     15 C14        1.0186    1.3622    4.3955 C.ar      1 RES1    0.0000
     16 C15        1.5822    4.4742    1.6904 C.2       1 RES1    0.0000
     17 C16        1.9664    5.2460    0.6649 C.2       1 RES1    0.0000
     18 C17        2.0128    3.4783    6.5466 C.3       1 RES1    0.0000
     19 C18        2.7457    6.5025    0.6738 C.3       1 RES1    0.0000
     20 N2         1.6791    4.7067   -0.6670 N.pl3     1 RES1    1.0000
     21 O1         1.1508    3.6104   -0.8048 O.2       1 RES1   -1.0000
     22 O2         2.0234    5.3999   -1.6197 O.2       1 RES1   -1.0000
     23 H1         1.5767    6.1935    7.1903 H         1 RES1    0.0000
     24 H2         1.3373    8.4840    6.6863 H         1 RES1    0.0000
     25 H3         1.1458    9.1986    4.4128 H         1 RES1    0.0000
     26 H4         1.2968    7.6045    2.6880 H         1 RES1    0.0000
     27 H5         3.3292    2.3821    2.4080 H         1 RES1    0.0000
     28 H6         3.4322    0.0733    1.9040 H         1 RES1    0.0000
     29 H7         2.0017   -1.4659    3.0464 H         1 RES1    0.0000
     30 H8         0.5749   -0.6597    4.6032 H         1 RES1    0.0000
     31 H9         0.3668    1.7225    5.1407 H         1 RES1    0.0000
     32 H10        1.1956    3.5732    1.4784 H         1 RES1    0.0000
     33 H11        1.1653    3.2983    6.9887 H         1 RES1    0.0000
     34 H12        2.5621    4.0313    7.0895 H         1 RES1    0.0000
     35 H13        2.4335    2.6203    6.3391 H         1 RES1    0.0000
     36 H14        3.5127    6.4317    0.0336 H         1 RES1    0.0000
     37 H15        3.0393    6.7066    1.5680 H         1 RES1    0.0000
     38 H16        2.1770    7.2380    0.4256 H         1 RES1    0.0000
@<TRIPOS>BOND
     1    1    2 1
     2    2    3 ar
     3    3    4 ar
     4    4    5 ar
     5    5    6 ar
     6    6    7 ar
     7    7    2 ar
     8    8    7 1
     9    9    1 2
    10   10    9 1
    11   11   10 ar
    12   12   11 ar
    13   13   12 ar
    14   14   13 ar
    15   15   10 ar
    16   16    8 2
    17   17   16 1
    18   18    1 1
    19   19   17 1
    20   20   17 2
    21   21   20 1
    22   22   20 1
    23   23    3 1
    24   24    4 1
    25   25    5 1
    26   26    6 1
    27   27   11 1
    28   28   12 1
    29   29   13 1
    30   30   14 1
    31   31   15 1
    32   32   16 1
    33   33   18 1
    34   34   18 1
    35   35   18 1
    36   36   19 1
    37   37   19 1
    38   38   19 1
    39    8    9 1
    40   14   15 ar
@<TRIPOS>SUBSTRUCTURE
     1 RES1 1

@<TRIPOS>CRYSIN
  14.8880   18.3240   11.2040  90.0000  91.5530  90.0000  15 1

