# MOL2 file generated by ConQuest
# Please check atom types

@<TRIPOS>MOLECULE
VIRJIP
    69    73     1
SMALL
USER_CHARGES
****
Generated from CSD

@<TRIPOS>ATOM
      1 O1         6.4079    9.4283   14.0035 O.2       1 RES1   -1.0000
      2 O2         8.5308    8.0207   12.0810 O.3       1 RES1    0.0000
      3 O3         8.4037    7.0671   10.0471 O.3       1 RES1    0.0000
      4 O4         4.3583    7.2715   11.1135 O.3       1 RES1    0.0000
      5 O5         5.9766    8.8453    6.0768 O.3       1 RES1    0.0000
      6 N1         6.2367    8.1508   14.0579 N.pl3     1 RES1    1.0000
      7 C1         6.5301    7.3302   13.1048 C.2       1 RES1    0.0000
      8 C2         7.1163    7.8545   11.8501 C.3       1 RES1    0.0000
      9 C3         7.0562    6.9741   10.5624 C.3       1 RES1    0.0000
     10 C4         6.0729    7.5424    9.5354 C.ar      1 RES1    0.0000
     11 C5         4.7262    7.6716    9.8466 C.ar      1 RES1    0.0000
     12 C6         3.8475    8.2066    8.9148 C.ar      1 RES1    0.0000
     13 C7         4.2895    8.5812    7.6660 C.ar      1 RES1    0.0000
     14 C8         5.6167    8.4316    7.3451 C.ar      1 RES1    0.0000
     15 C9         6.5047    7.9190    8.2729 C.ar      1 RES1    0.0000
     16 C10        5.6557    7.6559   15.3243 C.3       1 RES1    0.0000
     17 C11        6.8140    5.4883   10.8095 C.3       1 RES1    0.0000
     18 C12        9.1229    8.0296   10.8095 C.3       1 RES1    0.0000
     19 C13        9.1303    9.3892   10.1423 C.ar      1 RES1    0.0000
     20 C14        9.6070    9.5007    8.8468 C.ar      1 RES1    0.0000
     21 C15        9.6269   10.7312    8.2204 C.ar      1 RES1    0.0000
     22 C16        9.2087   11.8521    8.8857 C.ar      1 RES1    0.0000
     23 C17        8.7514   11.7514   10.1812 C.ar      1 RES1    0.0000
     24 C18        8.7240   10.5209   10.8095 C.ar      1 RES1    0.0000
     25 C19        2.9698    7.2177   11.4203 C.3       1 RES1    0.0000
     26 C20        2.8201    6.4988   12.7255 C.ar      1 RES1    0.0000
     27 C21        3.2230    5.1861   12.8655 C.ar      1 RES1    0.0000
     28 C22        3.1228    4.5395   14.0793 C.ar      1 RES1    0.0000
     29 C23        2.5757    5.1783   15.1473 C.ar      1 RES1    0.0000
     30 C24        2.1534    6.4684   15.0228 C.ar      1 RES1    0.0000
     31 C25        2.2771    7.1336   13.8090 C.ar      1 RES1    0.0000
     32 C26        7.2822    8.6106    5.6197 C.3       1 RES1    0.0000
     33 C27        7.4057    9.2102    4.2366 C.ar      1 RES1    0.0000
     34 C28        6.3254    9.2063    3.3749 C.ar      1 RES1    0.0000
     35 C29        6.4453    9.7726    2.1183 C.ar      1 RES1    0.0000
     36 C30        7.6194   10.3399    1.7176 C.ar      1 RES1    0.0000
     37 C31        8.6871   10.3223    2.5540 C.ar      1 RES1    0.0000
     38 C32        8.5802    9.7677    3.8087 C.ar      1 RES1    0.0000
     39 H1         6.4105    6.4264   13.2663 H         1 RES1    0.0000
     40 H2         6.7280    8.7348   11.6712 H         1 RES1    0.0000
     41 H3         2.9609    8.2946    9.1424 H         1 RES1    0.0000
     42 H4         3.6825    8.9793    7.0222 H         1 RES1    0.0000
     43 H5         7.4450    7.8349    8.0726 H         1 RES1    0.0000
     44 H6         6.2472    7.9425   15.9895 H         1 RES1    0.0000
     45 H7         5.5383    6.6905   15.3282 H         1 RES1    0.0000
     46 H8         4.8560    8.1968   15.4449 H         1 RES1    0.0000
     47 H9         6.9694    4.9885    9.9983 H         1 RES1    0.0000
     48 H10        5.8822    5.2820   11.1071 H         1 RES1    0.0000
     49 H11        7.4122    5.1352   11.4961 H         1 RES1    0.0000
     50 H12       10.0482    7.6882   10.9126 H         1 RES1    0.0000
     51 H13        9.8598    8.7348    8.3644 H         1 RES1    0.0000
     52 H14        9.9288   10.7791    7.3334 H         1 RES1    0.0000
     53 H15        9.2242   12.6082    8.4616 H         1 RES1    0.0000
     54 H16        8.4764   12.4908   10.6791 H         1 RES1    0.0000
     55 H17        8.3710   10.4563   11.6906 H         1 RES1    0.0000
     56 H18        2.5205    6.6905   10.6791 H         1 RES1    0.0000
     57 H19        2.6145    8.1283   11.5156 H         1 RES1    0.0000
     58 H20        3.6247    4.7635   12.1380 H         1 RES1    0.0000
     59 H21        3.4139    3.5800   14.1610 H         1 RES1    0.0000
     60 H22        2.5576    4.6951   16.0090 H         1 RES1    0.0000
     61 H23        1.7304    6.9350   15.7367 H         1 RES1    0.0000
     62 H24        2.0105    8.1186   13.7136 H         1 RES1    0.0000
     63 H25        7.4468    7.5219    5.6411 H         1 RES1    0.0000
     64 H26        8.0000    9.1163    6.2635 H         1 RES1    0.0000
     65 H27        5.4846    8.8424    3.7153 H         1 RES1    0.0000
     66 H28        5.6731    9.8010    1.5173 H         1 RES1    0.0000
     67 H29        7.6895   10.7106    0.8170 H         1 RES1    0.0000
     68 H30        9.4948   10.6519    2.2953 H         1 RES1    0.0000
     69 H31        9.2459    9.7716    4.3572 H         1 RES1    0.0000
@<TRIPOS>BOND
     1    1    6 1
     2    2    8 1
     3    3    9 1
     4    4   11 1
     5    5   14 1
     6    6    7 2
     7    7    8 1
     8    8    9 1
     9    9   10 1
    10   10   11 ar
    11   11   12 ar
    12   12   13 ar
    13   13   14 ar
    14   14   15 ar
    15   15   10 ar
    16   16    6 1
    17   17    9 1
    18   18    2 1
    19   19   18 1
    20   20   19 ar
    21   21   20 ar
    22   22   21 ar
    23   23   22 ar
    24   24   19 ar
    25   25    4 1
    26   26   25 1
    27   27   26 ar
    28   28   27 ar
    29   29   28 ar
    30   30   29 ar
    31   31   26 ar
    32   32    5 1
    33   33   32 1
    34   34   33 ar
    35   35   34 ar
    36   36   35 ar
    37   37   36 ar
    38   38   33 ar
    39   39    7 1
    40   40    8 1
    41   41   12 1
    42   42   13 1
    43   43   15 1
    44   44   16 1
    45   45   16 1
    46   46   16 1
    47   47   17 1
    48   48   17 1
    49   49   17 1
    50   50   18 1
    51   51   20 1
    52   52   21 1
    53   53   22 1
    54   54   23 1
    55   55   24 1
    56   56   25 1
    57   57   25 1
    58   58   27 1
    59   59   28 1
    60   60   29 1
    61   61   30 1
    62   62   31 1
    63   63   32 1
    64   64   32 1
    65   65   34 1
    66   66   35 1
    67   67   36 1
    68   68   37 1
    69   69   38 1
    70    3   18 1
    71   23   24 ar
    72   30   31 ar
    73   37   38 ar
@<TRIPOS>SUBSTRUCTURE
     1 RES1 1

@<TRIPOS>CRYSIN
  13.8509    9.7814   20.1410  90.0000 105.0300  90.0000 231 1

