# MOL2 file generated by ConQuest
# Please check atom types

@<TRIPOS>MOLECULE
VIRJUB
    77    83     1
SMALL
NO_CHARGES
****
Generated from CSD

@<TRIPOS>ATOM
      1 O1         0.3421   18.9021    8.4125 O.3       1 RES1    0.0000
      2 O2        -0.4662   20.8774    7.4321 O.3       1 RES1    0.0000
      3 O3         0.1533   20.1811    5.4320 O.3       1 RES1    0.0000
      4 O4        -1.6814   21.4413    5.6320 O.2       1 RES1    0.0000
      5 O5         3.2218   15.7578    7.8566 O.3       1 RES1    0.0000
      6 O6         3.1186   17.9855    7.6272 O.3       1 RES1    0.0000
      7 O7         2.1237   16.2512    3.8970 O.3       1 RES1    0.0000
      8 O8         6.7365   13.6572    5.4149 O.3       1 RES1    0.0000
      9 N1         0.1687   17.7611    7.5069 N.3       1 RES1    0.0000
     10 C1         1.0374   18.0771    6.3597 C.3       1 RES1    0.0000
     11 C2         1.1223   19.6003    6.3094 C.3       1 RES1    0.0000
     12 C3         0.6805   20.0430    7.6800 C.3       1 RES1    0.0000
     13 C4        -0.7435   20.8869    6.1241 C.2       1 RES1    0.0000
     14 C5        -1.2495   17.6457    7.1683 C.3       1 RES1    0.0000
     15 C6         2.4350   17.4944    6.4677 C.3       1 RES1    0.0000
     16 C7         2.6030   15.9334    6.5707 C.3       1 RES1    0.0000
     17 C8         3.0307   16.9381    8.5978 C.3       1 RES1    0.0000
     18 C9         3.5853   15.4244    5.5143 C.ar      1 RES1    0.0000
     19 C10        3.2875   15.5606    4.1584 C.ar      1 RES1    0.0000
     20 C11        4.1407   15.0479    3.1964 C.ar      1 RES1    0.0000
     21 C12        5.3041   14.3875    3.5694 C.ar      1 RES1    0.0000
     22 C13        5.6188   14.2721    4.9032 C.ar      1 RES1    0.0000
     23 C14        4.7582   14.7830    5.8615 C.ar      1 RES1    0.0000
     24 C15        1.3219   15.1027    6.5474 C.3       1 RES1    0.0000
     25 C16        4.0887   17.0970    9.6432 C.ar      1 RES1    0.0000
     26 C17        5.2514   16.3894    9.6383 C.ar      1 RES1    0.0000
     27 C18        6.1679   16.5388   10.6714 C.ar      1 RES1    0.0000
     28 C19        5.9233   17.4149   11.6813 C.ar      1 RES1    0.0000
     29 C20        4.8019   18.1679   11.6678 C.ar      1 RES1    0.0000
     30 C21        3.8633   17.9882   10.6678 C.ar      1 RES1    0.0000
     31 C22        1.5409   16.1831    2.6258 C.3       1 RES1    0.0000
     32 C23        0.1592   16.7337    2.7608 C.ar      1 RES1    0.0000
     33 C24       -0.0592   18.0942    2.8565 C.ar      1 RES1    0.0000
     34 C25       -1.3409   18.5804    3.0173 C.ar      1 RES1    0.0000
     35 C26       -2.4088   17.7479    3.0700 C.ar      1 RES1    0.0000
     36 C27       -2.1996   16.3913    2.9719 C.ar      1 RES1    0.0000
     37 C28       -0.9366   15.8842    2.8258 C.ar      1 RES1    0.0000
     38 C29        7.7280   13.1898    4.5105 C.3       1 RES1    0.0000
     39 C30        8.8834   12.7036    5.3327 C.ar      1 RES1    0.0000
     40 C31        8.8553   11.5191    6.0100 C.ar      1 RES1    0.0000
     41 C32        9.8942   11.1104    6.8247 C.ar      1 RES1    0.0000
     42 C33       10.9552   11.8389    6.9499 C.ar      1 RES1    0.0000
     43 C34       11.0308   13.0252    6.3130 C.ar      1 RES1    0.0000
     44 C35       10.0021   13.4699    5.5376 C.ar      1 RES1    0.0000
     45 H1         0.6239   17.7668    5.5707 H         1 RES1    0.0000
     46 H2         2.0241   19.9049    6.0860 H         1 RES1    0.0000
     47 H3         1.3231   20.6617    8.1843 H         1 RES1    0.0000
     48 H4        -1.5649   18.3344    6.6750 H         1 RES1    0.0000
     49 H5        -1.7801   17.5208    8.0738 H         1 RES1    0.0000
     50 H6        -1.3490   16.7829    6.6873 H         1 RES1    0.0000
     51 H7         2.9854   17.8236    5.7057 H         1 RES1    0.0000
     52 H8         2.1065   16.9532    8.9573 H         1 RES1    0.0000
     53 H9         3.8554   15.1368    2.3068 H         1 RES1    0.0000
     54 H10        5.8756   14.0394    2.8344 H         1 RES1    0.0000
     55 H11        4.9964   14.6449    6.8345 H         1 RES1    0.0000
     56 H12        0.7439   15.3071    7.3376 H         1 RES1    0.0000
     57 H13        1.4974   14.1340    6.5400 H         1 RES1    0.0000
     58 H14        0.8386   15.2882    5.7793 H         1 RES1    0.0000
     59 H15        5.3921   15.8558    8.9573 H         1 RES1    0.0000
     60 H16        7.0170   16.0450   10.6015 H         1 RES1    0.0000
     61 H17        6.5836   17.4641   12.3807 H         1 RES1    0.0000
     62 H18        4.6570   18.8642   12.4298 H         1 RES1    0.0000
     63 H19        3.0523   18.3155   10.7978 H         1 RES1    0.0000
     64 H20        1.4594   15.2692    2.3559 H         1 RES1    0.0000
     65 H21        2.0020   16.5937    1.9510 H         1 RES1    0.0000
     66 H22        0.6953   18.6372    2.8712 H         1 RES1    0.0000
     67 H23       -1.4861   19.5454    3.1289 H         1 RES1    0.0000
     68 H24       -3.2969   18.1074    3.1535 H         1 RES1    0.0000
     69 H25       -3.0176   15.8180    2.9203 H         1 RES1    0.0000
     70 H26       -0.7493   14.9665    2.6995 H         1 RES1    0.0000
     71 H27        7.2708   12.4689    3.9142 H         1 RES1    0.0000
     72 H28        7.9198   13.8123    3.8651 H         1 RES1    0.0000
     73 H29        8.1214   11.1066    6.0124 H         1 RES1    0.0000
     74 H30        9.7226   10.2363    7.2640 H         1 RES1    0.0000
     75 H31       11.7162   11.5229    7.4603 H         1 RES1    0.0000
     76 H32       11.8422   13.5096    6.4173 H         1 RES1    0.0000
     77 H33       10.0063   14.4367    5.1658 H         1 RES1    0.0000
@<TRIPOS>BOND
     1    1    9 1
     2    2   12 1
     3    3   11 1
     4    4   13 2
     5    5   16 1
     6    6   15 1
     7    7   19 1
     8    8   22 1
     9    9   10 1
    10   10   11 1
    11   11   12 1
    12   12    1 1
    13   13    2 1
    14   14    9 1
    15   15   10 1
    16   16   15 1
    17   17    5 1
    18   18   16 1
    19   19   18 ar
    20   20   19 ar
    21   21   20 ar
    22   22   21 ar
    23   23   18 ar
    24   24   16 1
    25   25   17 1
    26   26   25 ar
    27   27   26 ar
    28   28   27 ar
    29   29   28 ar
    30   30   25 ar
    31   31    7 1
    32   32   31 1
    33   33   32 ar
    34   34   33 ar
    35   35   34 ar
    36   36   35 ar
    37   37   32 ar
    38   38    8 1
    39   39   38 1
    40   40   39 ar
    41   41   40 ar
    42   42   41 ar
    43   43   42 ar
    44   44   39 ar
    45   45   10 1
    46   46   11 1
    47   47   12 1
    48   48   14 1
    49   49   14 1
    50   50   14 1
    51   51   15 1
    52   52   17 1
    53   53   20 1
    54   54   21 1
    55   55   23 1
    56   56   24 1
    57   57   24 1
    58   58   24 1
    59   59   26 1
    60   60   27 1
    61   61   28 1
    62   62   29 1
    63   63   30 1
    64   64   31 1
    65   65   31 1
    66   66   33 1
    67   67   34 1
    68   68   35 1
    69   69   36 1
    70   70   37 1
    71   71   38 1
    72   72   38 1
    73   73   40 1
    74   74   41 1
    75   75   42 1
    76   76   43 1
    77   77   44 1
    78    3   13 1
    79    6   17 1
    80   22   23 ar
    81   29   30 ar
    82   36   37 ar
    83   43   44 ar
@<TRIPOS>SUBSTRUCTURE
     1 RES1 1

@<TRIPOS>CRYSIN
  13.0380   18.9210   13.5620  90.0000 115.2100  90.0000 231 1

