# MOL2 file generated by ConQuest
# Please check atom types

@<TRIPOS>MOLECULE
VIRKAI
    77    83     1
SMALL
NO_CHARGES
****
Generated from CSD

@<TRIPOS>ATOM
      1 O1         4.9876    1.3998   12.5746 O.3       1 RES1    0.0000
      2 O2         5.4092    4.0155   10.6015 O.3       1 RES1    0.0000
      3 O3         6.0300    3.4908   12.6647 O.3       1 RES1    0.0000
      4 O4         7.2978    4.8884   11.4112 O.2       1 RES1    0.0000
      5 O5         3.4791    1.1161    7.6302 O.3       1 RES1    0.0000
      6 O6         2.3879    2.0826    9.3958 O.3       1 RES1    0.0000
      7 O7         2.4902   -1.7084   10.6466 O.3       1 RES1    0.0000
      8 O8        -0.3483   -1.5456    5.8961 O.3       1 RES1    0.0000
      9 N1         5.3365    0.8526   11.2624 N.3       1 RES1    0.0000
     10 C1         4.7983    2.7777   12.4858 C.3       1 RES1    0.0000
     11 C2         4.4359    3.0817   11.0371 C.3       1 RES1    0.0000
     12 C3         4.6298    1.7230   10.3202 C.3       1 RES1    0.0000
     13 C4         6.3310    4.1923   11.5792 C.2       1 RES1    0.0000
     14 C5         6.8044    0.8318   11.1313 C.3       1 RES1    0.0000
     15 C6         3.2706    1.0805    9.9119 C.3       1 RES1    0.0000
     16 C7         3.3985    0.1273    8.6980 C.3       1 RES1    0.0000
     17 C8         2.8104    2.3018    8.0726 C.3       1 RES1    0.0000
     18 C9         2.1669   -0.7572    8.5041 C.ar      1 RES1    0.0000
     19 C10        1.7780   -1.6868    9.4600 C.ar      1 RES1    0.0000
     20 C11        0.7148   -2.5822    9.1896 C.ar      1 RES1    0.0000
     21 C12        0.0489   -2.5214    7.9934 C.ar      1 RES1    0.0000
     22 C13        0.4226   -1.5829    7.0485 C.ar      1 RES1    0.0000
     23 C14        1.4858   -0.7173    7.2930 C.ar      1 RES1    0.0000
     24 C15        4.6531   -0.7213    8.6038 C.3       1 RES1    0.0000
     25 C16        1.6437    2.6778    7.1769 C.ar      1 RES1    0.0000
     26 C17        1.9241    3.0616    5.8701 C.ar      1 RES1    0.0000
     27 C18        0.8768    3.3978    5.0208 C.ar      1 RES1    0.0000
     28 C19       -0.4129    3.3424    5.4714 C.ar      1 RES1    0.0000
     29 C20       -0.6813    3.0081    6.7550 C.ar      1 RES1    0.0000
     30 C21        0.3529    2.6583    7.6289 C.ar      1 RES1    0.0000
     31 C22        2.0495   -2.6171   11.6488 C.3       1 RES1    0.0000
     32 C23        3.0325   -2.6536   12.7890 C.ar      1 RES1    0.0000
     33 C24        4.2648   -2.0006   12.7207 C.ar      1 RES1    0.0000
     34 C25        5.1720   -2.1204   13.7653 C.ar      1 RES1    0.0000
     35 C26        4.8670   -2.8814   14.8549 C.ar      1 RES1    0.0000
     36 C27        3.6293   -3.5046   14.9423 C.ar      1 RES1    0.0000
     37 C28        2.7147   -3.3961   13.8991 C.ar      1 RES1    0.0000
     38 C29       -0.1216   -0.4884    4.9826 C.3       1 RES1    0.0000
     39 C30       -1.3108   -0.3861    4.0554 C.ar      1 RES1    0.0000
     40 C31       -1.2450   -0.9343    2.7910 C.ar      1 RES1    0.0000
     41 C32       -2.3171   -0.7609    1.9103 C.ar      1 RES1    0.0000
     42 C33       -3.4062   -0.0706    2.2749 C.ar      1 RES1    0.0000
     43 C34       -3.4876    0.4488    3.5461 C.ar      1 RES1    0.0000
     44 C35       -2.4302    0.2876    4.4268 C.ar      1 RES1    0.0000
     45 H1         4.1110    3.0431   13.1153 H         1 RES1    0.0000
     46 H2         3.5141    3.4163   10.9456 H         1 RES1    0.0000
     47 H3         5.1708    1.8653    9.5078 H         1 RES1    0.0000
     48 H4         7.1696    1.7125   11.2146 H         1 RES1    0.0000
     49 H5         7.2074    0.2830   11.8154 H         1 RES1    0.0000
     50 H6         7.0709    0.4762   10.2820 H         1 RES1    0.0000
     51 H7         2.8766    0.6300   10.6780 H         1 RES1    0.0000
     52 H8         3.4509    3.0318    8.0685 H         1 RES1    0.0000
     53 H9         0.4537   -3.2383    9.8546 H         1 RES1    0.0000
     54 H10       -0.6756   -3.1429    7.8173 H         1 RES1    0.0000
     55 H11        1.7565   -0.0665    6.6157 H         1 RES1    0.0000
     56 H12        4.6672   -1.3904    9.2743 H         1 RES1    0.0000
     57 H13        5.4328   -0.1689    8.7008 H         1 RES1    0.0000
     58 H14        4.7011   -1.1452    7.7436 H         1 RES1    0.0000
     59 H15        2.8423    3.0976    5.5452 H         1 RES1    0.0000
     60 H16        1.0707    3.6592    4.1019 H         1 RES1    0.0000
     61 H17       -1.1304    3.5464    4.8638 H         1 RES1    0.0000
     62 H18       -1.5970    3.0118    7.0868 H         1 RES1    0.0000
     63 H19        0.1541    2.4137    8.5547 H         1 RES1    0.0000
     64 H20        1.1891   -2.3198   11.9451 H         1 RES1    0.0000
     65 H21        1.9531   -3.4754   11.2474 H         1 RES1    0.0000
     66 H22        4.4967   -1.4833   11.9233 H         1 RES1    0.0000
     67 H23        6.0100   -1.6194   13.7284 H         1 RES1    0.0000
     68 H24        5.5180   -3.0039   15.5691 H         1 RES1    0.0000
     69 H25        3.4196   -4.0606   15.7411 H         1 RES1    0.0000
     70 H26        1.8001   -3.7996   13.9564 H         1 RES1    0.0000
     71 H27       -0.0073    0.3418    5.4946 H         1 RES1    0.0000
     72 H28        0.7006   -0.6338    4.5183 H         1 RES1    0.0000
     73 H29       -0.4441   -1.4158    2.5234 H         1 RES1    0.0000
     74 H30       -2.2578   -1.1668    1.0296 H         1 RES1    0.0000
     75 H31       -4.1505    0.0589    1.6358 H         1 RES1    0.0000
     76 H32       -4.3167    0.9536    3.8233 H         1 RES1    0.0000
     77 H33       -2.4698    0.6594    5.3335 H         1 RES1    0.0000
@<TRIPOS>BOND
     1    1    9 1
     2    2   11 1
     3    3   10 1
     4    4   13 2
     5    5   16 1
     6    6   15 1
     7    7   19 1
     8    8   22 1
     9    9   12 1
    10   10    1 1
    11   11   10 1
    12   12   11 1
    13   13    2 1
    14   14    9 1
    15   15   12 1
    16   16   15 1
    17   17    5 1
    18   18   16 1
    19   19   18 ar
    20   20   19 ar
    21   21   20 ar
    22   22   21 ar
    23   23   18 ar
    24   24   16 1
    25   25   17 1
    26   26   25 ar
    27   27   26 ar
    28   28   27 ar
    29   29   28 ar
    30   30   25 ar
    31   31    7 1
    32   32   31 1
    33   33   32 ar
    34   34   33 ar
    35   35   34 ar
    36   36   35 ar
    37   37   32 ar
    38   38    8 1
    39   39   38 1
    40   40   39 ar
    41   41   40 ar
    42   42   41 ar
    43   43   42 ar
    44   44   39 ar
    45   45   10 1
    46   46   11 1
    47   47   12 1
    48   48   14 1
    49   49   14 1
    50   50   14 1
    51   51   15 1
    52   52   17 1
    53   53   20 1
    54   54   21 1
    55   55   23 1
    56   56   24 1
    57   57   24 1
    58   58   24 1
    59   59   26 1
    60   60   27 1
    61   61   28 1
    62   62   29 1
    63   63   30 1
    64   64   31 1
    65   65   31 1
    66   66   33 1
    67   67   34 1
    68   68   35 1
    69   69   36 1
    70   70   37 1
    71   71   38 1
    72   72   38 1
    73   73   40 1
    74   74   41 1
    75   75   42 1
    76   76   43 1
    77   77   44 1
    78    3   13 1
    79    6   17 1
    80   22   23 ar
    81   29   30 ar
    82   36   37 ar
    83   43   44 ar
@<TRIPOS>SUBSTRUCTURE
     1 RES1 1

@<TRIPOS>CRYSIN
   7.2320   15.2070   15.2360 112.5600 102.3800  91.2400   2 1

