# MOL2 file generated by ConQuest
# Please check atom types

@<TRIPOS>MOLECULE
VIRVAV01
    64    66     2
SMALL
NO_CHARGES
****
Generated from CSD

@<TRIPOS>ATOM
      1 O1         2.0137   -3.8240    4.9930 O.2       1 RES1    0.0000
      2 O2        -0.9746   -3.2289    8.7939 O.2       1 RES1    0.0000
      3 O3        -1.3223   -4.7061   10.3080 O.2       1 RES1    0.0000
      4 O4        -1.8788   -0.8284    5.2768 O.2       1 RES1    0.0000
      5 O5        -2.2568    0.7853    3.9028 O.2       1 RES1    0.0000
      6 N1         0.5051   -3.8083    6.7293 N.am      1 RES1    0.0000
      7 H1        -0.0704   -3.2882    7.1574 H         1 RES1    0.0000
      8 N2        -0.7286   -4.3293    9.3042 N.pl3     1 RES1    0.0000
      9 N3         0.2994   -2.2747    5.0699 N.am      1 RES1    0.0000
     10 H2        -0.4483   -2.0403    5.5133 H         1 RES1    0.0000
     11 N4        -1.5659   -0.1606    4.2754 N.pl3     1 RES1    0.0000
     12 C1         1.0377   -3.3473    5.5397 C.2       1 RES1    0.0000
     13 C2         0.8683   -4.9371    7.4642 C.ar      1 RES1    0.0000
     14 C3         0.2864   -5.1944    8.7218 C.ar      1 RES1    0.0000
     15 C4         0.6464   -6.3109    9.4811 C.ar      1 RES1    0.0000
     16 H3         0.2471   -6.4567   10.3305 H         1 RES1    0.0000
     17 C5         1.5778   -7.1952    8.9966 C.ar      1 RES1    0.0000
     18 H4         1.8362   -7.9490    9.5140 H         1 RES1    0.0000
     19 C6         2.1380   -6.9794    7.7427 C.ar      1 RES1    0.0000
     20 H5         2.7667   -7.6023    7.3985 H         1 RES1    0.0000
     21 C7         1.7938   -5.8737    6.9908 C.ar      1 RES1    0.0000
     22 H6         2.1930   -5.7473    6.1380 H         1 RES1    0.0000
     23 C8         0.5266   -1.5346    3.9095 C.ar      1 RES1    0.0000
     24 C9        -0.3623   -0.4944    3.5239 C.ar      1 RES1    0.0000
     25 C10       -0.1357    0.2626    2.3686 C.ar      1 RES1    0.0000
     26 H7        -0.7310    0.9658    2.1374 H         1 RES1    0.0000
     27 C11        0.9430   -0.0081    1.5696 C.ar      1 RES1    0.0000
     28 H8         1.0943    0.4977    0.7793 H         1 RES1    0.0000
     29 C12        1.8159   -1.0342    1.9302 C.ar      1 RES1    0.0000
     30 H9         2.5620   -1.2271    1.3745 H         1 RES1    0.0000
     31 C13        1.6186   -1.7753    3.0745 C.ar      1 RES1    0.0000
     32 H10        2.2363   -2.4608    3.2992 H         1 RES1    0.0000
     33 O6         1.0879    7.9036   -1.9048 O.2       2 RES2    0.0000
     34 O7         4.8625    4.8431   -1.0852 O.2       2 RES2    0.0000
     35 O8         5.3687    3.6494   -2.8200 O.2       2 RES2    0.0000
     36 O9         2.1132    5.6134    2.2897 O.2       2 RES2    0.0000
     37 O10        0.6161    5.2124    3.7830 O.2       2 RES2    0.0000
     38 N5         3.0425    6.7595   -1.5064 N.am      2 RES2    0.0000
     39 H11        3.4586    6.2730   -0.8769 H         2 RES2    0.0000
     40 N6         4.9373    4.6858   -2.3145 N.pl3     2 RES2    0.0000
     41 N7         1.5218    7.0137    0.1762 N.am      2 RES2    0.0000
     42 H12        2.0958    6.4293    0.6467 H         2 RES2    0.0000
     43 N8         0.9854    5.8008    2.7743 N.pl3     2 RES2    0.0000
     44 C14        1.8188    7.2927   -1.1509 C.2       2 RES2    0.0000
     45 C15        3.5941    6.7565   -2.7818 C.ar      2 RES2    0.0000
     46 C16        4.5208    5.7696   -3.1929 C.ar      2 RES2    0.0000
     47 C17        5.1007    5.7730   -4.4676 C.ar      2 RES2    0.0000
     48 H13        5.7087    5.0891   -4.7197 H         2 RES2    0.0000
     49 C18        4.7783    6.7753   -5.3489 C.ar      2 RES2    0.0000
     50 H14        5.1736    6.7993   -6.2126 H         2 RES2    0.0000
     51 C19        3.8644    7.7589   -4.9619 C.ar      2 RES2    0.0000
     52 H15        3.6392    8.4495   -5.5736 H         2 RES2    0.0000
     53 C20        3.2824    7.7481   -3.7135 C.ar      2 RES2    0.0000
     54 H16        2.6604    8.4281   -3.4833 H         2 RES2    0.0000
     55 C21        0.3483    7.3087    0.8661 C.ar      2 RES2    0.0000
     56 C22        0.0784    6.7481    2.1366 C.ar      2 RES2    0.0000
     57 C23       -1.0567    7.0840    2.8651 C.ar      2 RES2    0.0000
     58 H17       -1.2078    6.6910    3.7168 H         2 RES2    0.0000
     59 C24       -1.9625    7.9853    2.3544 C.ar      2 RES2    0.0000
     60 H18       -2.7282    8.2382    2.8553 H         2 RES2    0.0000
     61 C25       -1.7366    8.5181    1.0950 C.ar      2 RES2    0.0000
     62 H19       -2.3678    9.1281    0.7322 H         2 RES2    0.0000
     63 C26       -0.6219    8.1891    0.3540 C.ar      2 RES2    0.0000
     64 H20       -0.5081    8.5616   -0.5130 H         2 RES2    0.0000
@<TRIPOS>BOND
     1    1   12 2
     2    2    8 2
     3    3    8 2
     4    4   11 2
     5    5   11 2
     6    6    7 1
     7    8   14 1
     8    9   10 1
     9   11   24 1
    10   12    6 1
    11   13    6 1
    12   14   13 ar
    13   15   14 ar
    14   16   15 1
    15   17   15 ar
    16   18   17 1
    17   19   17 ar
    18   20   19 1
    19   21   13 ar
    20   22   21 1
    21   23    9 1
    22   24   23 ar
    23   25   24 ar
    24   26   25 1
    25   27   25 ar
    26   28   27 1
    27   29   27 ar
    28   30   29 1
    29   31   23 ar
    30   32   31 1
    31   33   44 2
    32   34   40 2
    33   35   40 2
    34   36   43 2
    35   37   43 2
    36   38   39 1
    37   40   46 1
    38   41   42 1
    39   43   56 1
    40   44   38 1
    41   45   38 1
    42   46   45 ar
    43   47   46 ar
    44   48   47 1
    45   49   47 ar
    46   50   49 1
    47   51   49 ar
    48   52   51 1
    49   53   45 ar
    50   54   53 1
    51   55   41 1
    52   56   55 ar
    53   57   56 ar
    54   58   57 1
    55   59   57 ar
    56   60   59 1
    57   61   59 ar
    58   62   61 1
    59   63   55 ar
    60   64   63 1
    61    9   12 1
    62   19   21 ar
    63   29   31 ar
    64   41   44 1
    65   51   53 ar
    66   61   63 ar
@<TRIPOS>SUBSTRUCTURE
     1 RES1 1
     2 RES2 33

@<TRIPOS>CRYSIN
   9.9134   11.5929   12.7294 109.6350 111.9930  91.2070   2 1

