# MOL2 file generated by ConQuest
# Please check atom types

@<TRIPOS>MOLECULE
VIRWAU
    12    14     1
SMALL
NO_CHARGES
****
Generated from CSD

@<TRIPOS>ATOM
      1 C1         6.4089    1.6440   10.6376 C.3       1 RES1    0.0000
      2 O1         6.7453    0.6306    9.6675 O.3       1 RES1    0.0000
      3 N1         8.0164    1.0399    9.1014 N.3       1 RES1    0.0000
      4 C2         8.7702    1.5891   10.2325 C.3       1 RES1    0.0000
      5 C3         9.6240    0.5562   10.9872 C.3       1 RES1    0.0000
      6 C4        10.1905   -0.6029   10.1943 C.3       1 RES1    0.0000
      7 C5        10.6796   -1.6724   11.1273 C.2       1 RES1    0.0000
      8 C6        10.3594   -1.7102   12.3868 C.2       1 RES1    0.0000
      9 C7         9.4549   -0.7082   13.0363 C.3       1 RES1    0.0000
     10 N2         8.7360    0.0656   12.0372 N.3       1 RES1    0.0000
     11 C8         8.0840    1.2631   12.5431 C.3       1 RES1    0.0000
     12 C9         7.7235    2.0501   11.2848 C.3       1 RES1    0.0000
@<TRIPOS>BOND
     1    1    2 1
     2    2    3 1
     3    3    4 1
     4    4    5 1
     5    5    6 1
     6    6    7 1
     7    7    8 2
     8    8    9 1
     9    9   10 1
    10   10    5 1
    11   11   10 1
    12   12    1 1
    13    4   12 1
    14   11   12 1
@<TRIPOS>SUBSTRUCTURE
     1 RES1 1

@<TRIPOS>CRYSIN
  11.9310    6.3060   13.0100  90.0000 117.1500  90.0000  14 1

