# MOL2 file generated by ConQuest
# Please check atom types

@<TRIPOS>MOLECULE
VIRZIG
    41    43     1
SMALL
NO_CHARGES
****
Generated from CSD

@<TRIPOS>ATOM
      1 N1         5.0460    5.9526   11.8831 N.pl3     1 RES1    0.0000
      2 O1         3.3654    7.0790    5.9805 O.3       1 RES1    0.0000
      3 O2         2.2311    5.0123    6.2497 O.3       1 RES1    0.0000
      4 O3         4.3527    5.4023   12.7486 O.2       1 RES1    0.0000
      5 O4         6.0981    6.5569   12.1534 O.2       1 RES1    0.0000
      6 O5         2.4505    8.4704   -1.6860 O.3       1 RES1    0.0000
      7 C1         3.4521    5.7520    6.3823 C.3       1 RES1    0.0000
      8 H1         4.1768    5.2943    5.8672 H         1 RES1    0.0000
      9 C2         1.8597    4.6884    4.9579 C.2       1 RES1    0.0000
     10 H2         1.5722    3.7941    4.8150 H         1 RES1    0.0000
     11 C3         1.8570    5.4724    3.9014 C.2       1 RES1    0.0000
     12 H3         1.5690    5.0679    3.0907 H         1 RES1    0.0000
     13 C4         2.2523    6.9347    3.7994 C.3       1 RES1    0.0000
     14 H4         1.5058    7.4480    4.2232 H         1 RES1    0.0000
     15 C5         3.4744    7.2997    4.5597 C.3       1 RES1    0.0000
     16 H5         4.2352    6.7704    4.2123 H         1 RES1    0.0000
     17 H6         3.6757    8.2561    4.3986 H         1 RES1    0.0000
     18 C6         3.8112    5.7713    7.8509 C.ar      1 RES1    0.0000
     19 C7         3.0413    5.1646    8.8395 C.ar      1 RES1    0.0000
     20 H7         2.2454    4.7053    8.5999 H         1 RES1    0.0000
     21 C8         3.4234    5.2242   10.1690 C.ar      1 RES1    0.0000
     22 H8         2.8947    4.8181   10.8466 H         1 RES1    0.0000
     23 C9         4.6119    5.8986   10.4934 C.ar      1 RES1    0.0000
     24 C10        5.3755    6.5126    9.5366 C.ar      1 RES1    0.0000
     25 H9         6.1629    6.9871    9.7762 H         1 RES1    0.0000
     26 C11        4.9770    6.4271    8.2108 C.ar      1 RES1    0.0000
     27 H10        5.5141    6.8260    7.5368 H         1 RES1    0.0000
     28 C12        2.2985    7.3948    2.3491 C.ar      1 RES1    0.0000
     29 C13        1.3629    8.2787    1.8551 C.ar      1 RES1    0.0000
     30 H11        0.6966    8.6251    2.4368 H         1 RES1    0.0000
     31 C14        1.3751    8.6791    0.5023 C.ar      1 RES1    0.0000
     32 H12        0.7247    9.2866    0.1717 H         1 RES1    0.0000
     33 C15        2.3437    8.1747   -0.3255 C.ar      1 RES1    0.0000
     34 C16        3.2884    7.3013    0.1578 C.ar      1 RES1    0.0000
     35 H13        3.9611    6.9646   -0.4238 H         1 RES1    0.0000
     36 C17        3.2671    6.9082    1.4898 C.ar      1 RES1    0.0000
     37 H14        3.9217    6.3007    1.8120 H         1 RES1    0.0000
     38 C18        1.3873    9.2906   -2.2366 C.3       1 RES1    0.0000
     39 H15        1.5515    9.4413   -3.1893 H         1 RES1    0.0000
     40 H16        1.3639   10.1519   -1.7682 H         1 RES1    0.0000
     41 H17        0.5281    8.8338   -2.1226 H         1 RES1    0.0000
@<TRIPOS>BOND
     1    1    4 2
     2    2    7 1
     3    3    7 1
     4    5    1 2
     5    6   33 1
     6    7    8 1
     7    9    3 1
     8   10    9 1
     9   11    9 2
    10   12   11 1
    11   13   11 1
    12   14   13 1
    13   15    2 1
    14   16   15 1
    15   17   15 1
    16   18    7 1
    17   19   18 ar
    18   20   19 1
    19   21   19 ar
    20   22   21 1
    21   23    1 1
    22   24   23 ar
    23   25   24 1
    24   26   18 ar
    25   27   26 1
    26   28   13 1
    27   29   28 ar
    28   30   29 1
    29   31   29 ar
    30   32   31 1
    31   33   31 ar
    32   34   33 ar
    33   35   34 1
    34   36   28 ar
    35   37   36 1
    36   38    6 1
    37   39   38 1
    38   40   38 1
    39   41   38 1
    40   13   15 1
    41   21   23 ar
    42   24   26 ar
    43   34   36 ar
@<TRIPOS>SUBSTRUCTURE
     1 RES1 1

@<TRIPOS>CRYSIN
   5.3133    8.0571   36.5330  90.0000  90.0000  90.0000  19 1

