# MOL2 file generated by ConQuest
# Please check atom types

@<TRIPOS>MOLECULE
VITBEG
    28    28     2
SMALL
NO_CHARGES
****
Generated from CSD

@<TRIPOS>ATOM
      1 O1         0.5745    6.6304    4.6326 O.2       1 RES1    0.0000
      2 O2         1.6915    6.3811    6.4871 O.2       1 RES1    0.0000
      3 O3         0.9336    2.7939    7.5777 O.2       2 RES2    0.0000
      4 N1        -2.9518    5.0281    4.0627 N.2       1 RES1    0.0000
      5 O4         1.7999    1.0130    8.4938 O.2       2 RES2    0.0000
      6 N2        -3.3282    4.3461    5.0784 N.2       1 RES1    0.0000
      7 N3         1.6998    2.8211    9.7212 N.2       2 RES2    0.0000
      8 N4        -2.3470    4.4143    6.0136 N.3       1 RES1    0.0000
      9 N5        -1.7210    5.5373    4.3407 N.3       1 RES1    0.0000
     10 N6         0.7150    6.1514    5.7709 N.pl3     1 RES1    0.0000
     11 N7         0.6072    4.9510    9.0118 N.pl3     2 RES2    0.0000
     12 N8         0.9279    6.0244   10.8335 N.2       2 RES2    0.0000
     13 N9         1.4588    4.7818   10.9380 N.3       2 RES2    0.0000
     14 N10        0.4068    6.1311    9.6652 N.2       2 RES2    0.0000
     15 N11        1.4597    2.1971    8.5627 N.pl3     2 RES2    0.0000
     16 N12       -0.2345    5.3476    6.3197 N.2       1 RES1    0.0000
     17 C1         1.2653    4.0923    9.7998 C.2       2 RES2    0.0000
     18 C2         2.2402    4.3718   12.0956 C.3       2 RES2    0.0000
     19 C3        -1.3261    5.1539    5.5609 C.2       1 RES1    0.0000
     20 C4        -2.4399    3.6813    7.2712 C.3       1 RES1    0.0000
     21 H1         1.8982    4.8405   12.8841 H         2 RES2    0.0000
     22 H2         2.1496    3.4269   12.2355 H         2 RES2    0.0000
     23 H3        -1.5940    3.4354    7.5218 H         1 RES1    0.0000
     24 H4        -2.9234    2.8529    7.1254 H         1 RES1    0.0000
     25 H5         0.3902    4.8490    8.1147 H         2 RES2    0.0000
     26 H6        -2.7779    4.1722    7.8914 H         1 RES1    0.0000
     27 H7         3.1549    4.5406   11.9429 H         2 RES2    0.0000
     28 H8        -1.3559    5.9970    3.7898 H         1 RES1    0.0000
@<TRIPOS>BOND
     1    1   10 2
     2    2   10 2
     3    3   15 2
     4    4    6 2
     5    5   15 2
     6    6    8 1
     7    7   15 1
     8    8   19 1
     9    9    4 1
    10   10   16 1
    11   11   14 1
    12   12   13 1
    13   13   17 1
    14   14   12 2
    15   16   19 2
    16   17    7 2
    17   18   13 1
    18   19    9 1
    19   20    8 1
    20   21   18 1
    21   22   18 1
    22   23   20 1
    23   24   20 1
    24   25   11 1
    25   26   20 1
    26   27   18 1
    27   28    9 1
    28   11   17 1
@<TRIPOS>SUBSTRUCTURE
     1 RES1 1
     2 RES2 3

@<TRIPOS>CRYSIN
   6.6140    8.5672   19.2473  90.0000  90.0000  90.0000  19 1

