# MOL2 file generated by ConQuest
# Please check atom types

@<TRIPOS>MOLECULE
VITDAD
    68    74     1
SMALL
NO_CHARGES
****
Generated from CSD

@<TRIPOS>ATOM
      1 N1        -0.7224    0.2350    4.9435 N.pl3     1 RES1    0.0000
      2 N2        -1.8002    0.3259    4.0540 N.2       1 RES1    0.0000
      3 N3         0.0045    1.1977    3.0678 N.3       1 RES1    0.0000
      4 N4         0.1250    3.5516    3.0126 N.3       1 RES1    0.0000
      5 N5        -0.0208    3.5843    4.3647 N.2       1 RES1    0.0000
      6 N6        -1.7313   -1.9652    9.9917 N.pl3     1 RES1    0.0000
      7 O1        -2.8685   -2.3614   10.2230 O.2       1 RES1    0.0000
      8 O2        -0.8601   -1.9820   10.8283 O.2       1 RES1    0.0000
      9 C1        -1.3467    0.9021    2.9976 C.2       1 RES1    0.0000
     10 C2         0.5768    2.3124    2.3808 C.3       1 RES1    0.0000
     11 C3         0.1166    2.5152    5.0735 C.2       1 RES1    0.0000
     12 C4         0.3543    1.1181    4.4867 C.3       1 RES1    0.0000
     13 C5         1.7602    0.5056    4.6063 C.ar      1 RES1    0.0000
     14 C6         1.9949   -0.8222    4.3336 C.ar      1 RES1    0.0000
     15 C7         3.2888   -1.3667    4.2945 C.ar      1 RES1    0.0000
     16 C8         4.3526   -0.5645    4.5292 C.ar      1 RES1    0.0000
     17 C9         4.1330    0.7451    4.8112 C.ar      1 RES1    0.0000
     18 C10        2.8385    1.2953    4.8572 C.ar      1 RES1    0.0000
     19 C11       -0.1986    2.6713    6.5188 C.ar      1 RES1    0.0000
     20 C12       -1.5151    2.7640    6.9227 C.ar      1 RES1    0.0000
     21 C13       -1.8383    2.8779    8.2771 C.ar      1 RES1    0.0000
     22 C14       -0.8508    2.8996    9.1988 C.ar      1 RES1    0.0000
     23 C15        0.4576    2.8048    8.8065 C.ar      1 RES1    0.0000
     24 C16        0.7905    2.6968    7.4555 C.ar      1 RES1    0.0000
     25 C17        0.2459    4.7954    2.3440 C.ar      1 RES1    0.0000
     26 C18        0.0519    5.9669    3.0275 C.ar      1 RES1    0.0000
     27 C19        0.2163    7.1827    2.3475 C.ar      1 RES1    0.0000
     28 C20        0.5502    7.2033    1.0253 C.ar      1 RES1    0.0000
     29 C21        0.7412    6.0511    0.3418 C.ar      1 RES1    0.0000
     30 C22        0.6047    4.8243    1.0161 C.ar      1 RES1    0.0000
     31 C23       -2.1555    1.0880    1.7848 C.ar      1 RES1    0.0000
     32 C24       -1.5640    0.9420    0.5385 C.ar      1 RES1    0.0000
     33 C25       -2.3736    1.0448   -0.5961 C.ar      1 RES1    0.0000
     34 C26       -3.7046    1.3020   -0.4660 C.ar      1 RES1    0.0000
     35 C27       -4.2966    1.4653    0.7641 C.ar      1 RES1    0.0000
     36 C28       -3.5082    1.3480    1.9079 C.ar      1 RES1    0.0000
     37 C29       -0.9373   -0.3145    6.1874 C.ar      1 RES1    0.0000
     38 C30       -2.2028   -0.7970    6.5142 C.ar      1 RES1    0.0000
     39 C31       -2.4397   -1.3468    7.7558 C.ar      1 RES1    0.0000
     40 C32       -1.4422   -1.4303    8.6753 C.ar      1 RES1    0.0000
     41 C33       -0.1810   -0.9662    8.3795 C.ar      1 RES1    0.0000
     42 C34        0.0717   -0.4282    7.1402 C.ar      1 RES1    0.0000
     43 H1         1.6550    2.2487    2.4165 H         1 RES1    0.0000
     44 H2         0.2513    2.3006    1.3463 H         1 RES1    0.0000
     45 H3         1.1459   -1.4679    4.1426 H         1 RES1    0.0000
     46 H4         3.4365   -2.4181    4.0735 H         1 RES1    0.0000
     47 H5         5.3563   -0.9582    4.4993 H         1 RES1    0.0000
     48 H6         4.9812    1.3871    5.0056 H         1 RES1    0.0000
     49 H7         2.6988    2.3494    5.0747 H         1 RES1    0.0000
     50 H8        -2.3069    2.7545    6.1794 H         1 RES1    0.0000
     51 H9        -2.8714    2.9559    8.5844 H         1 RES1    0.0000
     52 H10       -1.0924    2.9964   10.2414 H         1 RES1    0.0000
     53 H11        1.2285    2.8080    9.5625 H         1 RES1    0.0000
     54 H12        1.8192    2.6307    7.1575 H         1 RES1    0.0000
     55 H13       -0.2297    5.9585    4.0735 H         1 RES1    0.0000
     56 H14        0.0841    8.1127    2.8768 H         1 RES1    0.0000
     57 H15        0.6745    8.1464    0.5178 H         1 RES1    0.0000
     58 H16        0.9798    6.0777   -0.7134 H         1 RES1    0.0000
     59 H17        0.7792    3.8994    0.4833 H         1 RES1    0.0000
     60 H18       -0.5073    0.7508    0.4488 H         1 RES1    0.0000
     61 H19       -1.9384    0.9293   -1.5765 H         1 RES1    0.0000
     62 H20       -4.3090    1.3733   -1.3578 H         1 RES1    0.0000
     63 H21       -5.3505    1.6768    0.8515 H         1 RES1    0.0000
     64 H22       -3.9475    1.4574    2.8883 H         1 RES1    0.0000
     65 H23       -3.0053   -0.7349    5.7881 H         1 RES1    0.0000
     66 H24       -3.4237   -1.7109    7.9975 H         1 RES1    0.0000
     67 H25        0.5987   -1.0132    9.1252 H         1 RES1    0.0000
     68 H26        1.0698   -0.0929    6.9043 H         1 RES1    0.0000
@<TRIPOS>BOND
     1    1    2 1
     2    2    9 2
     3    3    9 1
     4    4    5 1
     5    5   11 2
     6    6    7 2
     7    8    6 2
     8    9   31 1
     9   10    3 1
    10   11   12 1
    11   12    1 1
    12   13   12 1
    13   14   13 ar
    14   15   14 ar
    15   16   15 ar
    16   17   16 ar
    17   18   13 ar
    18   19   11 1
    19   20   19 ar
    20   21   20 ar
    21   22   21 ar
    22   23   22 ar
    23   24   19 ar
    24   25    4 1
    25   26   25 ar
    26   27   26 ar
    27   28   27 ar
    28   29   28 ar
    29   30   25 ar
    30   31   32 ar
    31   32   33 ar
    32   33   34 ar
    33   34   35 ar
    34   35   36 ar
    35   36   31 ar
    36   37    1 1
    37   38   37 ar
    38   39   38 ar
    39   40    6 1
    40   41   40 ar
    41   42   37 ar
    42   43   10 1
    43   44   10 1
    44   45   14 1
    45   46   15 1
    46   47   16 1
    47   48   17 1
    48   49   18 1
    49   50   20 1
    50   51   21 1
    51   52   22 1
    52   53   23 1
    53   54   24 1
    54   55   26 1
    55   56   27 1
    56   57   28 1
    57   58   29 1
    58   59   30 1
    59   60   32 1
    60   61   33 1
    61   62   34 1
    62   63   35 1
    63   64   36 1
    64   65   38 1
    65   66   39 1
    66   67   41 1
    67   68   42 1
    68    3   12 1
    69    4   10 1
    70   17   18 ar
    71   23   24 ar
    72   29   30 ar
    73   39   40 ar
    74   41   42 ar
@<TRIPOS>SUBSTRUCTURE
     1 RES1 1

@<TRIPOS>CRYSIN
   9.9470   12.2100   12.9430 107.8200 106.8800  98.6800   2 1

