# MOL2 file generated by ConQuest
# Please check atom types

@<TRIPOS>MOLECULE
VIVVOL01
    80    80     2
SMALL
NO_CHARGES
****
Generated from CSD

@<TRIPOS>ATOM
      1 O1         8.8485    3.0992    0.3161 O.2       1 RES1    0.0000
      2 O2        14.0293    1.0599    2.6178 O.2       2 RES2    0.0000
      3 N1         9.9488    2.5906    0.7584 N.pl3     1 RES1    0.0000
      4 N2        15.1509    1.1060    3.2464 N.pl3     2 RES2    0.0000
      5 C1        10.2886    1.3296    0.4041 C.2       1 RES1    0.0000
      6 C2        11.4809    0.6766    0.8278 C.2       1 RES1    0.0000
      7 C3         9.3993    0.5962   -0.4284 C.2       1 RES1    0.0000
      8 C4        10.7894    3.5156    1.6545 C.3       1 RES1    0.0000
      9 C5        10.0254    4.8345    1.7946 C.3       1 RES1    0.0000
     10 C6        12.1367    3.7604    0.9864 C.3       1 RES1    0.0000
     11 C7        10.9016    2.8827    3.0531 C.3       1 RES1    0.0000
     12 C8        15.2029    0.5784    4.5015 C.2       2 RES2    0.0000
     13 C9        14.0375   -0.0509    5.0063 C.2       2 RES2    0.0000
     14 C10       16.3578    0.6033    5.3316 C.2       2 RES2    0.0000
     15 C11       16.3096    1.7448    2.5020 C.3       2 RES2    0.0000
     16 C12       15.8357    2.0736    1.0779 C.3       2 RES2    0.0000
     17 C13       16.7147    3.0128    3.1642 C.3       2 RES2    0.0000
     18 C14       17.4810    0.7642    2.3943 C.3       2 RES2    0.0000
     19 H1        12.3000    1.0717    1.3500 H         1 RES1    0.0000
     20 H2         8.6837    1.1427   -0.6183 H         1 RES1    0.0000
     21 H3         9.0400    4.6890    2.1905 H         1 RES1    0.0000
     22 H4         9.8383    5.3503    0.8973 H         1 RES1    0.0000
     23 H5        10.7250    5.6353    2.2369 H         1 RES1    0.0000
     24 H6        12.0038    4.2064    0.2570 H         1 RES1    0.0000
     25 H7        12.8281    4.4051    1.6510 H         1 RES1    0.0000
     26 H8        12.6818    2.9502    0.6403 H         1 RES1    0.0000
     27 H9        11.4101    3.4517    3.6181 H         1 RES1    0.0000
     28 H10       11.3304    2.0381    2.9848 H         1 RES1    0.0000
     29 H11       10.0317    2.7680    3.4190 H         1 RES1    0.0000
     30 H12       13.2616   -0.0875    4.4587 H         2 RES2    0.0000
     31 H13       17.1839    1.1912    5.1753 H         2 RES2    0.0000
     32 H14       15.5812    1.2716    0.6356 H         2 RES2    0.0000
     33 H15       15.0907    2.6615    1.1196 H         2 RES2    0.0000
     34 H16       16.5414    2.4900    0.5974 H         2 RES2    0.0000
     35 H17       15.9819    3.6173    3.1654 H         2 RES2    0.0000
     36 H18       17.4429    3.3985    2.6907 H         2 RES2    0.0000
     37 H19       16.9782    2.8330    4.0592 H         2 RES2    0.0000
     38 H20       18.1994    1.1782    1.9312 H         2 RES2    0.0000
     39 H21       17.7683    0.5169    3.2661 H         2 RES2    0.0000
     40 H22       17.2027   -0.0106    1.9208 H         2 RES2    0.0000
     41 C3B       11.7447   -0.5962    0.4284 C.2       1 RES1    0.0000
     42 C1B       10.8554   -1.3296   -0.4041 C.2       1 RES1    0.0000
     43 N1B       11.1952   -2.5906   -0.7584 N.pl3     1 RES1    0.0000
     44 O1B       12.2955   -3.0992   -0.3161 O.2       1 RES1    0.0000
     45 C4B       10.3546   -3.5156   -1.6545 C.3       1 RES1    0.0000
     46 C5B       11.1186   -4.8345   -1.7946 C.3       1 RES1    0.0000
     47 H3B       12.1040   -4.6890   -2.1905 H         1 RES1    0.0000
     48 H4B       11.3057   -5.3503   -0.8973 H         1 RES1    0.0000
     49 H5B       10.4190   -5.6353   -2.2369 H         1 RES1    0.0000
     50 C6B        9.0073   -3.7604   -0.9864 C.3       1 RES1    0.0000
     51 H6B        9.1402   -4.2064   -0.2570 H         1 RES1    0.0000
     52 H7B        8.3159   -4.4051   -1.6510 H         1 RES1    0.0000
     53 H8B        8.4622   -2.9502   -0.6403 H         1 RES1    0.0000
     54 C7B       10.2424   -2.8827   -3.0531 C.3       1 RES1    0.0000
     55 H9B        9.7339   -3.4517   -3.6181 H         1 RES1    0.0000
     56 H10B       9.8136   -2.0381   -2.9848 H         1 RES1    0.0000
     57 H11B      11.1123   -2.7680   -3.4190 H         1 RES1    0.0000
     58 C2B        9.6631   -0.6766   -0.8278 C.2       1 RES1    0.0000
     59 H1B        8.8440   -1.0717   -1.3500 H         1 RES1    0.0000
     60 H2B       12.4603   -1.1427    0.6183 H         1 RES1    0.0000
     61 C10B      13.9940   -0.6033    6.2463 C.2       2 RES2    0.0000
     62 C8B       15.1490   -0.5784    7.0764 C.2       2 RES2    0.0000
     63 N2B       15.2009   -1.1060    8.3315 N.pl3     2 RES2    0.0000
     64 O2B       16.3225   -1.0599    8.9601 O.2       2 RES2    0.0000
     65 C11B      14.0422   -1.7448    9.0759 C.3       2 RES2    0.0000
     66 C12B      14.5162   -2.0736   10.5000 C.3       2 RES2    0.0000
     67 H14B      14.7706   -1.2716   10.9423 H         2 RES2    0.0000
     68 H15B      15.2611   -2.6615   10.4583 H         2 RES2    0.0000
     69 H16B      13.8104   -2.4900   10.9805 H         2 RES2    0.0000
     70 C13B      13.6371   -3.0128    8.4137 C.3       2 RES2    0.0000
     71 H17B      14.3699   -3.6173    8.4125 H         2 RES2    0.0000
     72 H18B      12.9089   -3.3985    8.8872 H         2 RES2    0.0000
     73 H19B      13.3736   -2.8330    7.5187 H         2 RES2    0.0000
     74 C14B      12.8709   -0.7642    9.1836 C.3       2 RES2    0.0000
     75 H20B      12.1524   -1.1782    9.6467 H         2 RES2    0.0000
     76 H21B      12.5835   -0.5169    8.3118 H         2 RES2    0.0000
     77 H22B      13.1491    0.0106    9.6571 H         2 RES2    0.0000
     78 C9B       16.3143    0.0509    6.5716 C.2       2 RES2    0.0000
     79 H12B      17.0902    0.0875    7.1193 H         2 RES2    0.0000
     80 H13B      13.1679   -1.1912    6.4026 H         2 RES2    0.0000
@<TRIPOS>BOND
     1    1    3 1
     2    2    4 1
     3    3    5 2
     4    4   12 2
     5    5    6 1
     6    6   19 1
     7    7    5 1
     8    8    3 1
     9    9    8 1
    10   10    8 1
    11   11    8 1
    12   12   13 1
    13   13   30 1
    14   14   12 1
    15   15    4 1
    16   16   15 1
    17   17   15 1
    18   18   15 1
    19   20    7 1
    20   21    9 1
    21   22    9 1
    22   23    9 1
    23   24   10 1
    24   25   10 1
    25   26   10 1
    26   27   11 1
    27   28   11 1
    28   29   11 1
    29   31   14 1
    30   32   16 1
    31   33   16 1
    32   34   16 1
    33   35   17 1
    34   36   17 1
    35   37   17 1
    36   38   18 1
    37   39   18 1
    38   40   18 1
    39   41    6 2
    40   42   41 1
    41   43   42 2
    42   44   43 1
    43   45   43 1
    44   46   45 1
    45   47   46 1
    46   48   46 1
    47   49   46 1
    48   50   45 1
    49   51   50 1
    50   52   50 1
    51   53   50 1
    52   54   45 1
    53   55   54 1
    54   56   54 1
    55   57   54 1
    56   58    7 2
    57   59   58 1
    58   60   41 1
    59   61   13 2
    60   62   61 1
    61   63   62 2
    62   64   63 1
    63   65   63 1
    64   66   65 1
    65   67   66 1
    66   68   66 1
    67   69   66 1
    68   70   65 1
    69   71   70 1
    70   72   70 1
    71   73   70 1
    72   74   65 1
    73   75   74 1
    74   76   74 1
    75   77   74 1
    76   78   14 2
    77   79   78 1
    78   80   61 1
    79   42   58 1
    80   62   78 1
@<TRIPOS>SUBSTRUCTURE
     1 RES1 1
     2 RES2 2

@<TRIPOS>CRYSIN
  10.5720   11.8290   11.6580  90.0000  96.7200  90.0000  14 1

