# MOL2 file generated by ConQuest
# Please check atom types

@<TRIPOS>MOLECULE
VIVVOL
    80    80     2
SMALL
NO_CHARGES
****
Generated from CSD

@<TRIPOS>ATOM
      1 O1        -1.8208    1.0478    2.6112 O.2       1 RES1    0.0000
      2 N1        -0.7089    1.0975    3.2440 N.pl3     1 RES1    0.0000
      3 C1        -0.6502    0.5789    4.4980 C.2       1 RES1    0.0000
      4 C2         0.4895    0.6156    5.3440 C.2       1 RES1    0.0000
      5 C3        -1.8130   -0.0592    5.0172 C.2       1 RES1    0.0000
      6 C4         0.4441    1.7344    2.4848 C.3       1 RES1    0.0000
      7 C5         0.8359    3.0297    3.1663 C.3       1 RES1    0.0000
      8 C6         1.5976    0.7589    2.3956 C.3       1 RES1    0.0000
      9 C7        -0.0471    2.0636    1.0836 C.3       1 RES1    0.0000
     10 O2         3.5736    3.0960    0.3176 O.2       2 RES2    0.0000
     11 N2         4.6658    2.6011    0.7580 N.pl3     2 RES2    0.0000
     12 C8         5.0069    1.3224    0.4138 C.2       2 RES2    0.0000
     13 C9         6.2003    0.6689    0.8217 C.2       2 RES2    0.0000
     14 C10        4.1142    0.6026   -0.4265 C.2       2 RES2    0.0000
     15 C11        5.5025    3.5174    1.6515 C.3       2 RES2    0.0000
     16 C12        6.8459    3.7696    0.9828 C.3       2 RES2    0.0000
     17 C13        5.6291    2.8935    3.0481 C.3       2 RES2    0.0000
     18 C14        4.7555    4.8316    1.7848 C.3       2 RES2    0.0000
     19 H1         1.3279    1.1100    5.0748 H         1 RES1    0.0000
     20 H2        -2.5898   -0.0662    4.4874 H         1 RES1    0.0000
     21 H3         1.6301    3.6099    2.6214 H         1 RES1    0.0000
     22 H4         1.2837    2.8652    3.9727 H         1 RES1    0.0000
     23 H5         0.1722    3.6028    3.2020 H         1 RES1    0.0000
     24 H6         2.1735    0.5727    3.2233 H         1 RES1    0.0000
     25 H7         2.4044    1.1054    1.8372 H         1 RES1    0.0000
     26 H8         1.2685    0.0245    2.1281 H         1 RES1    0.0000
     27 H9         0.7100    2.3501    0.5912 H         1 RES1    0.0000
     28 H10       -0.1635    1.3390    0.7743 H         1 RES1    0.0000
     29 H11       -0.5466    2.7467    0.9447 H         1 RES1    0.0000
     30 H12        6.8099    1.1106    1.3993 H         2 RES2    0.0000
     31 H13        3.2949    1.0314   -0.7304 H         2 RES2    0.0000
     32 H14        7.2968    3.0933    0.7915 H         2 RES2    0.0000
     33 H15        7.4937    4.3329    1.5912 H         2 RES2    0.0000
     34 H16        6.7277    4.1132    0.1958 H         2 RES2    0.0000
     35 H17        6.1476    3.5271    3.6781 H         2 RES2    0.0000
     36 H18        6.2667    2.1088    3.0534 H         2 RES2    0.0000
     37 H19        4.6722    2.6356    3.4092 H         2 RES2    0.0000
     38 H20        5.3443    5.4014    2.3229 H         2 RES2    0.0000
     39 H21        4.6815    5.1824    0.9588 H         2 RES2    0.0000
     40 H22        4.0090    4.7976    2.2395 H         2 RES2    0.0000
     41 C3B        0.4486    0.0592    6.5726 C.2       1 RES1    0.0000
     42 C2B       -1.8539   -0.6156    6.2457 C.2       1 RES1    0.0000
     43 C1B       -0.7142   -0.5789    7.0918 C.2       1 RES1    0.0000
     44 H2B        1.2254    0.0662    7.1023 H         1 RES1    0.0000
     45 H1B       -2.6922   -1.1100    6.5150 H         1 RES1    0.0000
     46 N1B       -0.6555   -1.0975    8.3458 N.pl3     1 RES1    0.0000
     47 O1B        0.4564   -1.0478    8.9786 O.2       1 RES1    0.0000
     48 C4B       -1.8084   -1.7344    9.1049 C.3       1 RES1    0.0000
     49 C5B       -2.2002   -3.0297    8.4234 C.3       1 RES1    0.0000
     50 C6B       -2.9619   -0.7589    9.1942 C.3       1 RES1    0.0000
     51 C7B       -1.3172   -2.0636   10.5061 C.3       1 RES1    0.0000
     52 H3B       -2.9945   -3.6099    8.9684 H         1 RES1    0.0000
     53 H4B       -2.6481   -2.8652    7.6170 H         1 RES1    0.0000
     54 H5B       -1.5366   -3.6028    8.3877 H         1 RES1    0.0000
     55 H6B       -3.5379   -0.5727    8.3664 H         1 RES1    0.0000
     56 H7B       -3.7688   -1.1054    9.7526 H         1 RES1    0.0000
     57 H8B       -2.6328   -0.0245    9.4617 H         1 RES1    0.0000
     58 H9B       -2.0743   -2.3501   10.9986 H         1 RES1    0.0000
     59 H10B      -1.2008   -1.3390   10.8155 H         1 RES1    0.0000
     60 H11B      -0.8178   -2.7467   10.6451 H         1 RES1    0.0000
     61 C10B       6.4690   -0.6026    0.4265 C.2       2 RES2    0.0000
     62 C9B        4.3829   -0.6689   -0.8217 C.2       2 RES2    0.0000
     63 C8B        5.5763   -1.3224   -0.4138 C.2       2 RES2    0.0000
     64 H13B       7.2883   -1.0314    0.7304 H         2 RES2    0.0000
     65 H12B       3.7733   -1.1106   -1.3993 H         2 RES2    0.0000
     66 N2B        5.9174   -2.6011   -0.7580 N.pl3     2 RES2    0.0000
     67 O2B        7.0096   -3.0960   -0.3176 O.2       2 RES2    0.0000
     68 C11B       5.0807   -3.5174   -1.6515 C.3       2 RES2    0.0000
     69 C12B       3.7373   -3.7696   -0.9828 C.3       2 RES2    0.0000
     70 C13B       4.9541   -2.8935   -3.0481 C.3       2 RES2    0.0000
     71 C14B       5.8277   -4.8316   -1.7848 C.3       2 RES2    0.0000
     72 H14B       3.2864   -3.0933   -0.7915 H         2 RES2    0.0000
     73 H15B       3.0895   -4.3329   -1.5912 H         2 RES2    0.0000
     74 H16B       3.8555   -4.1132   -0.1958 H         2 RES2    0.0000
     75 H17B       4.4356   -3.5271   -3.6781 H         2 RES2    0.0000
     76 H18B       4.3165   -2.1088   -3.0534 H         2 RES2    0.0000
     77 H19B       5.9110   -2.6356   -3.4092 H         2 RES2    0.0000
     78 H20B       5.2389   -5.4014   -2.3229 H         2 RES2    0.0000
     79 H21B       5.9017   -5.1824   -0.9588 H         2 RES2    0.0000
     80 H22B       6.5742   -4.7976   -2.2395 H         2 RES2    0.0000
@<TRIPOS>BOND
     1    1    2 1
     2    2    3 2
     3    3    4 1
     4    4   19 1
     5    5    3 1
     6    6    2 1
     7    7    6 1
     8    8    6 1
     9    9    6 1
    10   10   11 1
    11   11   12 2
    12   12   13 1
    13   13   30 1
    14   14   12 1
    15   15   11 1
    16   16   15 1
    17   17   15 1
    18   18   15 1
    19   20    5 1
    20   21    7 1
    21   22    7 1
    22   23    7 1
    23   24    8 1
    24   25    8 1
    25   26    8 1
    26   27    9 1
    27   28    9 1
    28   29    9 1
    29   31   14 1
    30   32   16 1
    31   33   16 1
    32   34   16 1
    33   35   17 1
    34   36   17 1
    35   37   17 1
    36   38   18 1
    37   39   18 1
    38   40   18 1
    39   41    4 2
    40   42    5 2
    41   43   41 1
    42   44   41 1
    43   45   42 1
    44   46   43 2
    45   47   46 1
    46   48   46 1
    47   49   48 1
    48   50   48 1
    49   51   48 1
    50   52   49 1
    51   53   49 1
    52   54   49 1
    53   55   50 1
    54   56   50 1
    55   57   50 1
    56   58   51 1
    57   59   51 1
    58   60   51 1
    59   61   13 2
    60   62   14 2
    61   63   61 1
    62   64   61 1
    63   65   62 1
    64   66   63 2
    65   67   66 1
    66   68   66 1
    67   69   68 1
    68   70   68 1
    69   71   68 1
    70   72   69 1
    71   73   69 1
    72   74   69 1
    73   75   70 1
    74   76   70 1
    75   77   70 1
    76   78   71 1
    77   79   71 1
    78   80   71 1
    79   42   43 1
    80   62   63 1
@<TRIPOS>SUBSTRUCTURE
     1 RES1 1
     2 RES2 10

@<TRIPOS>CRYSIN
  10.5832   11.8392   11.6698  90.0000  96.7140  90.0000  14 1

