# MOL2 file generated by ConQuest
# Please check atom types

@<TRIPOS>MOLECULE
VIWGOY
   268   284     4
SMALL
NO_CHARGES
****
Generated from CSD

@<TRIPOS>ATOM
      1 O1        -4.9447  -14.0854   -1.0304 O.2       1 RES1    0.0000
      2 O2        -3.6365  -13.9740   -2.7066 O.2       1 RES1    0.0000
      3 O3         1.7501  -16.7728    3.9621 O.3       1 RES1    0.0000
      4 O4         4.6022  -19.5311    4.4223 O.2       1 RES1    0.0000
      5 O5         4.1135  -21.4060    5.4560 O.3       1 RES1    0.0000
      6 O6        -2.0759  -22.0380    3.3607 O.2       1 RES1    0.0000
      7 O7        -2.3514  -19.8955    2.8249 O.3       1 RES1    0.0000
      8 O8        -3.5694  -11.9711    2.0953 O.2       2 RES2    0.0000
      9 O9        -4.6308  -11.7181    3.9161 O.2       2 RES2    0.0000
     10 O10      -11.2532   -7.5679   -0.1364 O.3       2 RES2    0.0000
     11 O11      -12.8802   -6.2925   -3.2785 O.2       2 RES2    0.0000
     12 O12      -12.4709   -4.3357   -4.1774 O.3       2 RES2    0.0000
     13 O13       -6.2749   -3.6013   -2.1101 O.2       2 RES2    0.0000
     14 O14       -6.1217   -5.5664   -1.0912 O.3       2 RES2    0.0000
     15 O15       -1.5929   -5.7710   -7.8996 O.2       3 RES3    0.0000
     16 O16       -0.1939   -5.4515   -9.4740 O.2       3 RES3    0.0000
     17 O17        4.5300  -10.8612   -3.8126 O.3       3 RES3    0.0000
     18 O18        6.9696  -14.1870   -5.8389 O.2       3 RES3    0.0000
     19 O19        6.4680  -16.0472   -4.7723 O.3       3 RES3    0.0000
     20 O20        0.0681  -15.0139   -4.2333 O.2       3 RES3    0.0000
     21 O21        0.0981  -12.9567   -5.0796 O.3       3 RES3    0.0000
     22 O22        5.2808  -19.0288   -5.9835 O.2       4 RES4    0.0000
     23 O23        6.6320  -18.3956   -7.5364 O.2       4 RES4    0.0000
     24 O24       -0.7386  -13.1043   -8.3598 O.3       4 RES4    0.0000
     25 O25       -2.1656  -10.4603   -9.3869 O.2       4 RES4    0.0000
     26 O26       -1.5456   -8.4636  -10.1675 O.3       4 RES4    0.0000
     27 O27        4.7856   -9.7523  -11.1535 O.2       4 RES4    0.0000
     28 O28        4.8079  -11.5040   -9.7731 O.3       4 RES4    0.0000
     29 N1         0.1278  -16.7275    1.5333 N.2       1 RES1    0.0000
     30 N2        -3.8686  -14.2608   -1.5464 N.pl3     1 RES1    0.0000
     31 N3         0.4885  -21.6219    4.1051 N.3       1 RES1    0.0000
     32 N4         1.7738  -21.5080    4.4453 N.2       1 RES1    0.0000
     33 N5        -8.5764   -8.7673    0.0082 N.2       2 RES2    0.0000
     34 N6        -4.4998  -11.5479    2.7181 N.pl3     2 RES2    0.0000
     35 N7        -8.8358   -4.0697   -2.8808 N.3       2 RES2    0.0000
     36 N8       -10.0753   -4.2786   -3.3196 N.2       2 RES2    0.0000
     37 N9         2.9028   -9.7635   -6.0492 N.2       3 RES3    0.0000
     38 N10       -0.5405   -5.9941   -8.4502 N.pl3     3 RES3    0.0000
     39 N11        2.7827  -15.0800   -4.0739 N.3       3 RES3    0.0000
     40 N12        4.0693  -15.3468   -4.3976 N.2       3 RES3    0.0000
     41 N13        1.8051  -14.4988   -8.6539 N.2       4 RES4    0.0000
     42 N14        5.5718  -18.3170   -6.9481 N.pl3     4 RES4    0.0000
     43 N15        2.0706   -9.5963  -11.0352 N.3       4 RES4    0.0000
     44 N16        0.7839   -9.3085  -10.7624 N.2       4 RES4    0.0000
     45 C1         3.5595  -16.0648    2.4059 C.3       1 RES1    0.0000
     46 C2         2.3118  -16.9544    2.6392 C.3       1 RES1    0.0000
     47 C3         1.3169  -16.3123    1.6368 C.2       1 RES1    0.0000
     48 C4         2.0693  -15.2094    0.9269 C.3       1 RES1    0.0000
     49 C5         3.0779  -15.9271    0.0033 C.3       1 RES1    0.0000
     50 C6         4.1083  -16.4788    1.0172 C.3       1 RES1    0.0000
     51 C7         2.9357  -14.6679    2.0739 C.3       1 RES1    0.0000
     52 C8         2.0842  -14.0345    3.1865 C.3       1 RES1    0.0000
     53 C9         3.9944  -13.6476    1.6171 C.3       1 RES1    0.0000
     54 C10      -11.8602   -9.7169   -1.1520 C.3       2 RES2    0.0000
     55 C11      -10.7868   -8.5845   -1.0287 C.3       2 RES2    0.0000
     56 C12       -9.6268   -9.3437   -0.3829 C.2       2 RES2    0.0000
     57 C13      -10.0472  -10.7951   -0.2991 C.3       2 RES2    0.0000
     58 C14      -10.1189  -11.2796   -1.7798 C.3       2 RES2    0.0000
     59 C15      -11.3956  -10.6078   -2.3023 C.3       2 RES2    0.0000
     60 C16      -11.5210  -10.6346    0.0707 C.3       2 RES2    0.0000
     61 C17      -11.7344   -9.9955    1.4379 C.3       2 RES2    0.0000
     62 C18      -12.2882  -11.9828    0.0690 C.3       2 RES2    0.0000
     63 C19        6.3956   -9.8184   -5.0961 C.3       3 RES3    0.0000
     64 C20        5.0333  -10.5934   -5.1437 C.3       3 RES3    0.0000
     65 C21        4.1304   -9.5447   -5.8241 C.2       3 RES3    0.0000
     66 C22        5.0025   -8.3415   -6.1051 C.3       3 RES3    0.0000
     67 C23        5.9365   -8.7834   -7.2538 C.3       3 RES3    0.0000
     68 C24        6.9159   -9.7542   -6.5356 C.3       3 RES3    0.0000
     69 C25        5.9220   -8.3436   -4.8758 C.3       3 RES3    0.0000
     70 C26        5.1554   -8.0517   -3.5957 C.3       3 RES3    0.0000
     71 C27        7.0599   -7.3056   -4.9777 C.3       3 RES3    0.0000
     72 C28       -1.5065  -14.6888  -10.0919 C.3       4 RES4    0.0000
     73 C29       -0.3523  -13.7719   -9.5709 C.3       4 RES4    0.0000
     74 C30        0.7599  -14.8054   -9.2866 C.2       4 RES4    0.0000
     75 C31        0.2478  -16.1131   -9.8355 C.3       4 RES4    0.0000
     76 C32        0.1352  -15.9386  -11.3638 C.3       4 RES4    0.0000
     77 C33       -1.1264  -15.0511  -11.5380 C.3       4 RES4    0.0000
     78 C34       -1.2255  -16.0484   -9.3622 C.3       4 RES4    0.0000
     79 C35       -1.3903  -15.9935   -7.8585 C.3       4 RES4    0.0000
     80 C36       -2.0693  -17.2331   -9.8881 C.3       4 RES4    0.0000
     81 C37        4.5694  -16.1259    3.5349 C.3       1 RES1    0.0000
     82 C38       -0.8226  -16.1048    0.6968 C.ar      1 RES1    0.0000
     83 C39       -1.9927  -15.6696    1.3048 C.ar      1 RES1    0.0000
     84 C40       -2.9928  -15.0658    0.5768 C.ar      1 RES1    0.0000
     85 C41       -2.8041  -14.9309   -0.7724 C.ar      1 RES1    0.0000
     86 C42       -1.6894  -15.3638   -1.4182 C.ar      1 RES1    0.0000
     87 C43       -0.6833  -15.9596   -0.6639 C.ar      1 RES1    0.0000
     88 C44        1.8271  -17.9761    4.7115 C.3       1 RES1    0.0000
     89 C45        1.7656  -19.1116    3.6811 C.3       1 RES1    0.0000
     90 C46        2.4986  -18.4739    2.4963 C.3       1 RES1    0.0000
     91 C47        0.3233  -19.4101    3.3311 C.2       1 RES1    0.0000
     92 C48       -0.2338  -20.5861    3.5480 C.2       1 RES1    0.0000
     93 C49        2.3864  -20.3947    4.2382 C.2       1 RES1    0.0000
     94 C50        3.8020  -20.3825    4.6869 C.2       1 RES1    0.0000
     95 C51        5.4642  -21.4380    5.9506 C.3       1 RES1    0.0000
     96 C52       -1.6462  -20.9327    3.2423 C.2       1 RES1    0.0000
     97 C53       -3.7686  -20.1340    2.5587 C.3       1 RES1    0.0000
     98 C54      -13.2896   -9.2103   -1.2621 C.3       2 RES2    0.0000
     99 C55       -7.5636   -9.5137    0.6705 C.ar      2 RES2    0.0000
    100 C56       -7.6044   -9.6300    2.0558 C.ar      2 RES2    0.0000
    101 C57       -6.5954  -10.2968    2.7263 C.ar      2 RES2    0.0000
    102 C58       -5.5453  -10.8041    2.0065 C.ar      2 RES2    0.0000
    103 C59       -5.4817  -10.7109    0.6393 C.ar      2 RES2    0.0000
    104 C60       -6.5089  -10.0465   -0.0394 C.ar      2 RES2    0.0000
    105 C61      -11.0664   -6.3186   -0.6360 C.3       2 RES2    0.0000
    106 C62      -10.2489   -6.3482   -1.9129 C.3       2 RES2    0.0000
    107 C63      -10.4371   -7.8267   -2.3286 C.3       2 RES2    0.0000
    108 C64       -8.8010   -6.0590   -1.6171 C.2       2 RES2    0.0000
    109 C65       -8.1727   -4.9716   -2.0641 C.2       2 RES2    0.0000
    110 C66      -10.7423   -5.3108   -2.9186 C.2       2 RES2    0.0000
    111 C67      -12.1205   -5.3797   -3.4593 C.2       2 RES2    0.0000
    112 C68      -13.8254   -4.3223   -4.6852 C.3       2 RES2    0.0000
    113 C69       -6.7750   -4.6258   -1.7683 C.2       2 RES2    0.0000
    114 C70       -4.6916   -5.3514   -0.8956 C.3       2 RES2    0.0000
    115 C71        7.3836  -10.3792   -4.0920 C.3       3 RES3    0.0000
    116 C72        2.0807   -8.7913   -6.6753 C.ar      3 RES3    0.0000
    117 C73        0.8401   -8.5454   -6.1133 C.ar      3 RES3    0.0000
    118 C74       -0.0224   -7.6221   -6.6835 C.ar      3 RES3    0.0000
    119 C75        0.3679   -6.9798   -7.8290 C.ar      3 RES3    0.0000
    120 C76        1.5621   -7.2289   -8.4304 C.ar      3 RES3    0.0000
    121 C77        2.4284   -8.1443   -7.8536 C.ar      3 RES3    0.0000
    122 C78        4.6941  -12.2490   -3.5414 C.3       3 RES3    0.0000
    123 C79        4.3550  -12.9339   -4.8808 C.3       3 RES3    0.0000
    124 C80        5.0553  -11.9732   -5.8504 C.3       3 RES3    0.0000
    125 C81        2.8633  -12.9490   -5.0698 C.2       3 RES3    0.0000
    126 C82        2.1527  -13.9690   -4.6162 C.2       3 RES3    0.0000
    127 C83        4.8085  -14.3922   -4.8430 C.2       3 RES3    0.0000
    128 C84        6.1857  -14.8268   -5.2029 C.2       3 RES3    0.0000
    129 C85        7.8177  -16.5242   -5.0007 C.3       3 RES3    0.0000
    130 C86        0.6694  -14.0443   -4.6277 C.2       3 RES3    0.0000
    131 C87       -1.3524  -12.9417   -5.1224 C.3       3 RES3    0.0000
    132 C88       -2.8865  -14.0838   -9.9275 C.3       4 RES4    0.0000
    133 C89        2.7346  -15.4937   -8.2513 C.ar      4 RES4    0.0000
    134 C90        2.3973  -16.4332   -7.2899 C.ar      4 RES4    0.0000
    135 C91        3.3222  -17.3498   -6.8347 C.ar      4 RES4    0.0000
    136 C92        4.5832  -17.3132   -7.3836 C.ar      4 RES4    0.0000
    137 C93        4.9701  -16.3745   -8.3088 C.ar      4 RES4    0.0000
    138 C94        4.0392  -15.4350   -8.7312 C.ar      4 RES4    0.0000
    139 C95        0.0649  -11.9306   -8.1872 C.3       4 RES4    0.0000
    140 C96        0.5798  -11.5041   -9.5841 C.3       4 RES4    0.0000
    141 C97        0.0441  -12.6316  -10.5175 C.3       4 RES4    0.0000
    142 C98        2.0831  -11.4626   -9.5857 C.2       4 RES4    0.0000
    143 C99        2.7477  -10.5795  -10.3170 C.2       4 RES4    0.0000
    144 C100       0.0955  -10.1438  -10.0689 C.2       4 RES4    0.0000
    145 C101      -1.3228   -9.7396   -9.8256 C.2       4 RES4    0.0000
    146 C102      -2.9179   -8.0338  -10.0294 C.3       4 RES4    0.0000
    147 C103       4.2124  -10.5430  -10.4666 C.2       4 RES4    0.0000
    148 C104       6.2552  -11.6031   -9.9193 C.3       4 RES4    0.0000
    149 H1        -2.1152  -15.8028    2.3492 H         1 RES1    0.0000
    150 H2        -3.8718  -14.7223    1.0516 H         1 RES1    0.0000
    151 H3        -1.6041  -15.2697   -2.4320 H         1 RES1    0.0000
    152 H4         0.1725  -16.3083   -1.1203 H         1 RES1    0.0000
    153 H5        -0.2525  -18.6615    2.8974 H         1 RES1    0.0000
    154 H6         0.1891  -22.4525    4.4060 H         1 RES1    0.0000
    155 H7         1.3983  -14.6200    0.3901 H         1 RES1    0.0000
    156 H8         2.6127  -16.6955   -0.5144 H         1 RES1    0.0000
    157 H9         3.5108  -15.2602   -0.6481 H         1 RES1    0.0000
    158 H10        4.1718  -17.5116    0.9706 H         1 RES1    0.0000
    159 H11        5.0369  -16.0528    0.8826 H         1 RES1    0.0000
    160 H12        1.3100  -14.6970    3.4617 H         1 RES1    0.0000
    161 H13        2.6798  -13.8723    4.0344 H         1 RES1    0.0000
    162 H14        1.6786  -13.1488    2.8688 H         1 RES1    0.0000
    163 H15        4.5781  -14.0601    0.8997 H         1 RES1    0.0000
    164 H16        3.5014  -12.7985    1.2646 H         1 RES1    0.0000
    165 H17        4.5696  -13.3734    2.4530 H         1 RES1    0.0000
    166 H18       -8.4119   -9.2215    2.5968 H         2 RES2    0.0000
    167 H19       -6.6363  -10.4157    3.7787 H         2 RES2    0.0000
    168 H20       -4.6997  -11.1367    0.1315 H         2 RES2    0.0000
    169 H21       -6.4776   -9.9439   -1.0591 H         2 RES2    0.0000
    170 H22       -8.3044   -6.7136   -0.9808 H         2 RES2    0.0000
    171 H23       -8.1673   -3.3530   -3.2879 H         2 RES2    0.0000
    172 H24       -9.3512  -11.3533    0.2580 H         2 RES2    0.0000
    173 H25       -9.2843  -10.9748   -2.2905 H         2 RES2    0.0000
    174 H26      -10.1946  -12.3241   -1.8057 H         2 RES2    0.0000
    175 H27      -11.2010  -10.0415   -3.1334 H         2 RES2    0.0000
    176 H28      -12.1301  -11.3221   -2.5160 H         2 RES2    0.0000
    177 H29      -11.2239   -9.1012    1.4895 H         2 RES2    0.0000
    178 H30      -12.7521   -9.8331    1.6044 H         2 RES2    0.0000
    179 H31      -11.3766  -10.6435    2.1839 H         2 RES2    0.0000
    180 H32      -12.1531  -12.4763   -0.8138 H         2 RES2    0.0000
    181 H33      -11.9619  -12.5736    0.8708 H         2 RES2    0.0000
    182 H34      -13.3222  -11.7975    0.2141 H         2 RES2    0.0000
    183 H35        0.5466   -9.0629   -5.2417 H         3 RES3    0.0000
    184 H36       -0.9640   -7.4373   -6.2458 H         3 RES3    0.0000
    185 H37        1.8082   -6.7513   -9.3011 H         3 RES3    0.0000
    186 H38        3.3347   -8.3517   -8.2903 H         3 RES3    0.0000
    187 H39        2.3847  -12.1673   -5.5501 H         3 RES3    0.0000
    188 H40        2.1560  -15.7335   -3.8706 H         3 RES3    0.0000
    189 H41        4.4064   -7.5287   -6.3803 H         3 RES3    0.0000
    190 H42        5.3936   -9.2675   -7.9925 H         3 RES3    0.0000
    191 H43        6.4342   -7.9707   -7.6466 H         3 RES3    0.0000
    192 H44        6.8818  -10.7039   -6.9687 H         3 RES3    0.0000
    193 H45        7.8824   -9.3962   -6.5529 H         3 RES3    0.0000
    194 H46        4.3793   -8.7532   -3.4662 H         3 RES3    0.0000
    195 H47        5.7921   -8.1191   -2.7691 H         3 RES3    0.0000
    196 H48        4.7373   -7.1008   -3.6262 H         3 RES3    0.0000
    197 H49        7.6918   -7.5861   -5.7417 H         3 RES3    0.0000
    198 H50        6.6452   -6.3768   -5.1703 H         3 RES3    0.0000
    199 H51        7.5709   -7.2860   -4.0745 H         3 RES3    0.0000
    200 H52        1.4233  -16.4572   -6.8939 H         4 RES4    0.0000
    201 H53        3.0751  -18.0532   -6.0934 H         4 RES4    0.0000
    202 H54        5.9274  -16.3866   -8.6682 H         4 RES4    0.0000
    203 H55        4.3125  -14.6945   -9.3805 H         4 RES4    0.0000
    204 H56        2.6047  -12.1387   -8.9796 H         4 RES4    0.0000
    205 H57        2.6127   -8.9247  -11.3706 H         4 RES4    0.0000
    206 H58        0.8896  -16.8951   -9.5832 H         4 RES4    0.0000
    207 H59        0.9776  -15.4793  -11.7374 H         4 RES4    0.0000
    208 H60       -0.0000  -16.8648  -11.8302 H         4 RES4    0.0000
    209 H61       -0.9021  -14.1900  -12.0759 H         4 RES4    0.0000
    210 H62       -1.8952  -15.5660  -12.0077 H         4 RES4    0.0000
    211 H63       -0.9016  -15.1585   -7.4641 H         4 RES4    0.0000
    212 H64       -2.4073  -15.9333   -7.5948 H         4 RES4    0.0000
    213 H65       -0.9921  -16.8536   -7.4081 H         4 RES4    0.0000
    214 H66       -2.0321  -17.2798  -10.9098 H         4 RES4    0.0000
    215 H67       -1.7130  -18.1352   -9.4777 H         4 RES4    0.0000
    216 H68       -3.0737  -17.1239   -9.5775 H         4 RES4    0.0000
    217 H69        4.7361  -17.1205    3.8006 H         1 RES1    0.0000
    218 H70        5.4441  -15.6803    3.2451 H         1 RES1    0.0000
    219 H71        4.1803  -15.6233    4.3782 H         1 RES1    0.0000
    220 H72        1.0154  -18.0517    5.3795 H         1 RES1    0.0000
    221 H73        2.7088  -18.0266    5.2535 H         1 RES1    0.0000
    222 H74        3.5027  -18.7259    2.5360 H         1 RES1    0.0000
    223 H75        2.0813  -18.8153    1.6108 H         1 RES1    0.0000
    224 H76        5.6576  -22.3736    6.3790 H         1 RES1    0.0000
    225 H77        6.1212  -21.2682    5.1761 H         1 RES1    0.0000
    226 H78        5.5820  -20.7048    6.6847 H         1 RES1    0.0000
    227 H79       -4.1684  -19.3437    2.0337 H         1 RES1    0.0000
    228 H80       -3.8732  -21.0160    2.0085 H         1 RES1    0.0000
    229 H81       -4.2859  -20.2484    3.4662 H         1 RES1    0.0000
    230 H82      -13.3722   -8.6107   -2.1019 H         2 RES2    0.0000
    231 H83      -13.9359  -10.0336   -1.3660 H         2 RES2    0.0000
    232 H84      -13.5515   -8.6804   -0.4145 H         2 RES2    0.0000
    233 H85      -10.6224   -5.7180    0.0713 H         2 RES2    0.0000
    234 H86      -12.0318   -5.9121   -0.8562 H         2 RES2    0.0000
    235 H87      -11.2144   -7.9252   -3.0078 H         2 RES2    0.0000
    236 H88       -9.5642   -8.2090   -2.7239 H         2 RES2    0.0000
    237 H89      -14.0543   -3.3741   -5.0341 H         2 RES2    0.0000
    238 H90      -13.9179   -5.0179   -5.4382 H         2 RES2    0.0000
    239 H91      -14.4943   -4.5652   -3.9063 H         2 RES2    0.0000
    240 H92       -4.3600   -6.0291   -0.1745 H         2 RES2    0.0000
    241 H93       -4.2267   -5.4965   -1.7817 H         2 RES2    0.0000
    242 H94       -4.5539   -4.3825   -0.5423 H         2 RES2    0.0000
    243 H95        7.5556  -11.3854   -4.2846 H         3 RES3    0.0000
    244 H96        8.2739   -9.8531   -4.1409 H         3 RES3    0.0000
    245 H97        6.9910  -10.2888   -3.1170 H         3 RES3    0.0000
    246 H98        4.0353  -12.5665   -2.7735 H         3 RES3    0.0000
    247 H99        5.6646  -12.4603   -3.2409 H         3 RES3    0.0000
    248 H100       6.0296  -12.2813   -6.0117 H         3 RES3    0.0000
    249 H101       4.5377  -11.9334   -6.7447 H         3 RES3    0.0000
    250 H102       7.9430  -17.4389   -4.4943 H         3 RES3    0.0000
    251 H103       7.9583  -16.6643   -6.0055 H         3 RES3    0.0000
    252 H104       8.4906  -15.8363   -4.6215 H         3 RES3    0.0000
    253 H105      -1.6918  -12.0594   -5.5460 H         3 RES3    0.0000
    254 H106      -1.7025  -13.7529   -5.6730 H         3 RES3    0.0000
    255 H107      -1.7415  -13.0158   -4.1434 H         3 RES3    0.0000
    256 H108      -2.9594  -13.2159  -10.4781 H         4 RES4    0.0000
    257 H109      -3.6151  -14.7640  -10.2383 H         4 RES4    0.0000
    258 H110      -3.0613  -13.8616   -8.9105 H         4 RES4    0.0000
    259 H111       0.8613  -12.1503   -7.5443 H         4 RES4    0.0000
    260 H112      -0.5132  -11.1743   -7.7509 H         4 RES4    0.0000
    261 H113      -0.7898  -12.3068  -11.0460 H         4 RES4    0.0000
    262 H114       0.7764  -12.9525  -11.1651 H         4 RES4    0.0000
    263 H115      -3.0315   -7.0776  -10.4153 H         4 RES4    0.0000
    264 H116      -3.5520   -8.6895  -10.5367 H         4 RES4    0.0000
    265 H117      -3.1929   -8.0256   -9.0153 H         4 RES4    0.0000
    266 H118       6.6036  -12.3775   -9.3055 H         4 RES4    0.0000
    267 H119       6.4810  -11.8019  -10.8986 H         4 RES4    0.0000
    268 H120       6.6855  -10.7095   -9.6145 H         4 RES4    0.0000
@<TRIPOS>BOND
     1    1   30 2
     2    2   30 2
     3    3   46 1
     4    4   94 2
     5    5   94 1
     6    6   96 2
     7    7   96 1
     8    8   34 2
     9    9   34 2
    10   10   55 1
    11   11  111 2
    12   12  111 1
    13   13  113 2
    14   14  113 1
    15   15   38 2
    16   16   38 2
    17   17   64 1
    18   18  128 2
    19   19  128 1
    20   20  130 2
    21   21  130 1
    22   22   42 2
    23   23   42 2
    24   24   73 1
    25   25  145 2
    26   26  145 1
    27   27  147 2
    28   28  147 1
    29   29   47 2
    30   30   85 1
    31   31   32 1
    32   32   93 2
    33   33   56 2
    34   34  102 1
    35   35   36 1
    36   36  110 2
    37   37   65 2
    38   38  119 1
    39   39   40 1
    40   40  127 2
    41   41   74 2
    42   42  136 1
    43   43   44 1
    44   44  144 2
    45   45   46 1
    46   46   47 1
    47   47   48 1
    48   48   49 1
    49   49   50 1
    50   50   45 1
    51   51   45 1
    52   52   51 1
    53   53   51 1
    54   54   55 1
    55   55   56 1
    56   56   57 1
    57   57   58 1
    58   58   59 1
    59   59   54 1
    60   60   54 1
    61   61   60 1
    62   62   60 1
    63   63   64 1
    64   64   65 1
    65   65   66 1
    66   66   67 1
    67   67   68 1
    68   68   63 1
    69   69   63 1
    70   70   69 1
    71   71   69 1
    72   72   73 1
    73   73   74 1
    74   74   75 1
    75   75   76 1
    76   76   77 1
    77   77   72 1
    78   78   72 1
    79   79   78 1
    80   80   78 1
    81   81   45 1
    82   82   29 1
    83   83   82 ar
    84   84   83 ar
    85   85   84 ar
    86   86   85 ar
    87   87   82 ar
    88   88    3 1
    89   89   88 1
    90   90   46 1
    91   91   89 1
    92   92   31 1
    93   93   89 1
    94   94   93 1
    95   95    5 1
    96   96   92 1
    97   97    7 1
    98   98   54 1
    99   99   33 1
   100  100   99 ar
   101  101  100 ar
   102  102  101 ar
   103  103  102 ar
   104  104   99 ar
   105  105   10 1
   106  106  105 1
   107  107   55 1
   108  108  106 1
   109  109   35 1
   110  110  106 1
   111  111  110 1
   112  112   12 1
   113  113  109 1
   114  114   14 1
   115  115   63 1
   116  116   37 1
   117  117  116 ar
   118  118  117 ar
   119  119  118 ar
   120  120  119 ar
   121  121  116 ar
   122  122   17 1
   123  123  122 1
   124  124   64 1
   125  125  123 1
   126  126   39 1
   127  127  123 1
   128  128  127 1
   129  129   19 1
   130  130  126 1
   131  131   21 1
   132  132   72 1
   133  133   41 1
   134  134  133 ar
   135  135  134 ar
   136  136  135 ar
   137  137  136 ar
   138  138  133 ar
   139  139   24 1
   140  140  139 1
   141  141   73 1
   142  142  140 1
   143  143   43 1
   144  144  140 1
   145  145  144 1
   146  146   26 1
   147  147  143 1
   148  148   28 1
   149  149   83 1
   150  150   84 1
   151  151   86 1
   152  152   87 1
   153  153   91 1
   154  154   31 1
   155  155   48 1
   156  156   49 1
   157  157   49 1
   158  158   50 1
   159  159   50 1
   160  160   52 1
   161  161   52 1
   162  162   52 1
   163  163   53 1
   164  164   53 1
   165  165   53 1
   166  166  100 1
   167  167  101 1
   168  168  103 1
   169  169  104 1
   170  170  108 1
   171  171   35 1
   172  172   57 1
   173  173   58 1
   174  174   58 1
   175  175   59 1
   176  176   59 1
   177  177   61 1
   178  178   61 1
   179  179   61 1
   180  180   62 1
   181  181   62 1
   182  182   62 1
   183  183  117 1
   184  184  118 1
   185  185  120 1
   186  186  121 1
   187  187  125 1
   188  188   39 1
   189  189   66 1
   190  190   67 1
   191  191   67 1
   192  192   68 1
   193  193   68 1
   194  194   70 1
   195  195   70 1
   196  196   70 1
   197  197   71 1
   198  198   71 1
   199  199   71 1
   200  200  134 1
   201  201  135 1
   202  202  137 1
   203  203  138 1
   204  204  142 1
   205  205   43 1
   206  206   75 1
   207  207   76 1
   208  208   76 1
   209  209   77 1
   210  210   77 1
   211  211   79 1
   212  212   79 1
   213  213   79 1
   214  214   80 1
   215  215   80 1
   216  216   80 1
   217  217   81 1
   218  218   81 1
   219  219   81 1
   220  220   88 1
   221  221   88 1
   222  222   90 1
   223  223   90 1
   224  224   95 1
   225  225   95 1
   226  226   95 1
   227  227   97 1
   228  228   97 1
   229  229   97 1
   230  230   98 1
   231  231   98 1
   232  232   98 1
   233  233  105 1
   234  234  105 1
   235  235  107 1
   236  236  107 1
   237  237  112 1
   238  238  112 1
   239  239  112 1
   240  240  114 1
   241  241  114 1
   242  242  114 1
   243  243  115 1
   244  244  115 1
   245  245  115 1
   246  246  122 1
   247  247  122 1
   248  248  124 1
   249  249  124 1
   250  250  129 1
   251  251  129 1
   252  252  129 1
   253  253  131 1
   254  254  131 1
   255  255  131 1
   256  256  132 1
   257  257  132 1
   258  258  132 1
   259  259  139 1
   260  260  139 1
   261  261  141 1
   262  262  141 1
   263  263  146 1
   264  264  146 1
   265  265  146 1
   266  266  148 1
   267  267  148 1
   268  268  148 1
   269   48   51 1
   270   57   60 1
   271   66   69 1
   272   75   78 1
   273   86   87 ar
   274   89   90 1
   275   91   92 2
   276  103  104 ar
   277  106  107 1
   278  108  109 2
   279  120  121 ar
   280  123  124 1
   281  125  126 2
   282  137  138 ar
   283  140  141 1
   284  142  143 2
@<TRIPOS>SUBSTRUCTURE
     1 RES1 1
     2 RES2 8
     3 RES3 15
     4 RES4 22

@<TRIPOS>CRYSIN
  11.4737   13.9440   16.5685  92.4437  96.4938  97.8098   1 1

