# MOL2 file generated by ConQuest
# Please check atom types

@<TRIPOS>MOLECULE
VIWTAW
    37    39     1
SMALL
NO_CHARGES
****
Generated from CSD

@<TRIPOS>ATOM
      1 O1         0.7108    1.4237   10.6959 O.3       1 RES1    0.0000
      2 O2        -1.1842   -1.4706   12.4078 O.2       1 RES1    0.0000
      3 O3        -1.5328    1.4119   11.2558 O.3       1 RES1    0.0000
      4 O4         0.8409   -1.4175   11.6766 O.2       1 RES1    0.0000
      5 N1        -0.1184   -0.9268   12.2432 N.pl3     1 RES1    0.0000
      6 N2         1.8374   -0.3285   19.4524 N.1       1 RES1    0.0000
      7 C1        -0.5010    2.1414   10.6195 C.3       1 RES1    0.0000
      8 C2        -1.2601    1.2318   12.6437 C.3       1 RES1    0.0000
      9 C3         0.0591    0.5052   12.8473 C.3       1 RES1    0.0000
     10 C4         1.1340    1.2146   12.0498 C.3       1 RES1    0.0000
     11 C5        -0.8127    2.3243    9.1638 C.ar      1 RES1    0.0000
     12 C6        -0.6825    3.5699    8.5835 C.ar      1 RES1    0.0000
     13 C7        -0.9138    3.7307    7.2211 C.ar      1 RES1    0.0000
     14 C8        -1.2948    2.6590    6.4610 C.ar      1 RES1    0.0000
     15 C9        -1.4425    1.4147    7.0310 C.ar      1 RES1    0.0000
     16 C10       -1.1942    1.2401    8.3884 C.ar      1 RES1    0.0000
     17 C11        0.4409    0.2988   14.3098 C.ar      1 RES1    0.0000
     18 C12        1.7722    0.3071   14.6882 C.ar      1 RES1    0.0000
     19 C13        2.1297    0.1270   16.0167 C.ar      1 RES1    0.0000
     20 C14        1.1447   -0.0373   16.9702 C.ar      1 RES1    0.0000
     21 C15       -0.1849   -0.0621   16.6037 C.ar      1 RES1    0.0000
     22 C16       -0.5358    0.0966   15.2786 C.ar      1 RES1    0.0000
     23 C17        1.5299   -0.2043   18.3615 C.1       1 RES1    0.0000
     24 H1        -0.4067    2.9536   11.0793 H         1 RES1    0.0000
     25 H2        -2.0701    0.7039   13.0135 H         1 RES1    0.0000
     26 H3        -1.2133    2.0082   13.0814 H         1 RES1    0.0000
     27 H4         1.2811    1.9806   12.4197 H         1 RES1    0.0000
     28 H5         2.0274    0.7177   11.9955 H         1 RES1    0.0000
     29 H6        -0.3841    4.2855    9.1112 H         1 RES1    0.0000
     30 H7        -0.8016    4.6030    6.8037 H         1 RES1    0.0000
     31 H8        -1.4985    2.7673    5.5142 H         1 RES1    0.0000
     32 H9        -1.6853    0.6211    6.4813 H         1 RES1    0.0000
     33 H10       -1.2936    0.3865    8.7888 H         1 RES1    0.0000
     34 H11        2.4438    0.4072   14.0485 H         1 RES1    0.0000
     35 H12        3.1084    0.1587   16.2203 H         1 RES1    0.0000
     36 H13       -0.8395   -0.1863   17.2552 H         1 RES1    0.0000
     37 H14       -1.4939    0.0897   15.0495 H         1 RES1    0.0000
@<TRIPOS>BOND
     1    1    7 1
     2    2    5 2
     3    3    7 1
     4    4    5 2
     5    5    9 1
     6    6   23 3
     7    7   11 1
     8    8    3 1
     9    9    8 1
    10   10    1 1
    11   11   12 ar
    12   12   13 ar
    13   13   14 ar
    14   14   15 ar
    15   15   16 ar
    16   16   11 ar
    17   17    9 1
    18   18   17 ar
    19   19   18 ar
    20   20   19 ar
    21   21   20 ar
    22   22   17 ar
    23   23   20 1
    24   24    7 1
    25   25    8 1
    26   26    8 1
    27   27   10 1
    28   28   10 1
    29   29   12 1
    30   30   13 1
    31   31   14 1
    32   32   15 1
    33   33   16 1
    34   34   18 1
    35   35   19 1
    36   36   21 1
    37   37   22 1
    38    9   10 1
    39   21   22 ar
@<TRIPOS>SUBSTRUCTURE
     1 RES1 1

@<TRIPOS>CRYSIN
  25.7980    6.9010   17.7130  90.0000 106.6900  90.0000  15 1

