# MOL2 file generated by ConQuest
# Please check atom types

@<TRIPOS>MOLECULE
VIXJET
    54    58     2
SMALL
NO_CHARGES
****
Generated from CSD

@<TRIPOS>ATOM
      1 O1        10.8563   11.1035    3.0402 O.3       1 RES1    0.0000
      2 N1         9.4858   11.3086    3.3355 N.2       1 RES1    0.0000
      3 C1         3.2444    9.8045    4.4355 C.3       1 RES1    0.0000
      4 H1         2.7735   10.2151    3.7062 H         1 RES1    0.0000
      5 H2         3.0298   10.2619    5.2523 H         1 RES1    0.0000
      6 H3         2.9851    8.8829    4.5064 H         1 RES1    0.0000
      7 C2         4.7233    9.8894    4.1884 C.ar      1 RES1    0.0000
      8 C3         5.4811   10.9682    4.6390 C.ar      1 RES1    0.0000
      9 H4         5.0634   11.6546    5.1076 H         1 RES1    0.0000
     10 C4         6.8310   11.0370    4.4054 C.ar      1 RES1    0.0000
     11 H5         7.3145   11.7655    4.7226 H         1 RES1    0.0000
     12 C5         7.4895   10.0316    3.6983 C.ar      1 RES1    0.0000
     13 C6         8.9299   10.1241    3.4092 C.2       1 RES1    0.0000
     14 C7         9.8838    9.0864    3.1609 C.ar      1 RES1    0.0000
     15 C8        11.0640    9.7645    2.9354 C.ar      1 RES1    0.0000
     16 C9        12.2669    9.1446    2.6446 C.ar      1 RES1    0.0000
     17 H6        13.0474    9.6278    2.4969 H         1 RES1    0.0000
     18 C10       12.2406    7.7827    2.5888 C.ar      1 RES1    0.0000
     19 H7        13.0213    7.3234    2.3801 H         1 RES1    0.0000
     20 C11        9.8921    7.6874    3.1260 C.ar      1 RES1    0.0000
     21 H8         9.1190    7.1978    3.2948 H         1 RES1    0.0000
     22 C12       11.0771    7.0617    2.8360 C.ar      1 RES1    0.0000
     23 H9        11.1043    6.1329    2.8028 H         1 RES1    0.0000
     24 C13        6.7344    8.9524    3.2584 C.ar      1 RES1    0.0000
     25 H10        7.1464    8.2637    2.7893 H         1 RES1    0.0000
     26 C14        5.3834    8.8908    3.5088 C.ar      1 RES1    0.0000
     27 H11        4.9025    8.1529    3.2097 H         1 RES1    0.0000
     28 O2         1.0939    5.4739    4.5832 O.3       2 RES2    0.0000
     29 N2         2.4797    5.6670    4.3489 N.2       2 RES2    0.0000
     30 C15        8.7276    3.8885    3.5849 C.3       2 RES2    0.0000
     31 H12        8.9405    2.9534    3.6150 H         2 RES2    0.0000
     32 H13        9.1813    4.3438    4.2984 H         2 RES2    0.0000
     33 H14        9.0088    4.2535    2.7425 H         2 RES2    0.0000
     34 C16        7.2439    4.0686    3.7378 C.ar      2 RES2    0.0000
     35 C17        6.3647    3.1179    3.2602 C.ar      2 RES2    0.0000
     36 H15        6.6988    2.3695    2.8194 H         2 RES2    0.0000
     37 C18        5.0045    3.2536    3.4240 C.ar      2 RES2    0.0000
     38 H16        4.4364    2.5969    3.0921 H         2 RES2    0.0000
     39 C19        4.4679    4.3529    4.0750 C.ar      2 RES2    0.0000
     40 C20        3.0184    4.4783    4.2798 C.2       2 RES2    0.0000
     41 C21        2.0389    3.4465    4.4535 C.ar      2 RES2    0.0000
     42 C22        0.8613    4.1368    4.6435 C.ar      2 RES2    0.0000
     43 C23       -0.3602    3.5280    4.8853 C.ar      2 RES2    0.0000
     44 H17       -1.1409    4.0205    5.0006 H         2 RES2    0.0000
     45 C24       -0.3507    2.1730    4.9434 C.ar      2 RES2    0.0000
     46 H18       -1.1450    1.7217    5.1174 H         2 RES2    0.0000
     47 C25        5.3506    5.3194    4.5618 C.ar      2 RES2    0.0000
     48 H19        5.0186    6.0667    5.0044 H         2 RES2    0.0000
     49 C26        6.7075    5.1750    4.3926 C.ar      2 RES2    0.0000
     50 H20        7.2793    5.8302    4.7226 H         2 RES2    0.0000
     51 C27        0.8130    1.4398    4.7490 C.ar      2 RES2    0.0000
     52 H21        0.7751    0.5107    4.7836 H         2 RES2    0.0000
     53 C28        2.0153    2.0509    4.5079 C.ar      2 RES2    0.0000
     54 H22        2.7909    1.5527    4.3835 H         2 RES2    0.0000
@<TRIPOS>BOND
     1    1    2 1
     2    2   13 2
     3    3    4 1
     4    5    3 1
     5    6    3 1
     6    7    3 1
     7    8    7 ar
     8    9    8 1
     9   10    8 ar
    10   11   10 1
    11   12   10 ar
    12   13   12 1
    13   14   13 1
    14   15    1 1
    15   16   15 ar
    16   17   16 1
    17   18   16 ar
    18   19   18 1
    19   20   14 ar
    20   21   20 1
    21   22   18 ar
    22   23   22 1
    23   24   12 ar
    24   25   24 1
    25   26    7 ar
    26   27   26 1
    27   28   29 1
    28   29   40 2
    29   30   31 1
    30   32   30 1
    31   33   30 1
    32   34   30 1
    33   35   34 ar
    34   36   35 1
    35   37   35 ar
    36   38   37 1
    37   39   37 ar
    38   40   39 1
    39   41   40 1
    40   42   28 1
    41   43   42 ar
    42   44   43 1
    43   45   43 ar
    44   46   45 1
    45   47   39 ar
    46   48   47 1
    47   49   34 ar
    48   50   49 1
    49   51   45 ar
    50   52   51 1
    51   53   41 ar
    52   54   53 1
    53   14   15 ar
    54   20   22 ar
    55   24   26 ar
    56   41   42 ar
    57   47   49 ar
    58   51   53 ar
@<TRIPOS>SUBSTRUCTURE
     1 RES1 1
     2 RES2 28

@<TRIPOS>CRYSIN
  25.1525   11.4250    7.5575  90.0000  94.4750  90.0000  14 1

