# MOL2 file generated by ConQuest
# Please check atom types

@<TRIPOS>MOLECULE
VIYMEX
    32    33     1
SMALL
USER_CHARGES
****
Generated from CSD

@<TRIPOS>ATOM
      1 O1         5.6277    5.4007    6.4785 O.2       1 RES1   -1.0000
      2 N1         4.4499    4.9717    6.6760 N.pl3     1 RES1    1.0000
      3 C1         3.7160    2.7125    6.0265 C.ar      1 RES1    0.0000
      4 C2         3.8197    4.0686    5.7206 C.ar      1 RES1    0.0000
      5 C3         3.4262    4.6160    4.5073 C.ar      1 RES1    0.0000
      6 H1         3.5300    5.5456    4.3394 H         1 RES1    0.0000
      7 C4         2.8790    3.7815    3.5460 C.ar      1 RES1    0.0000
      8 H2         2.5865    4.1364    2.7141 H         1 RES1    0.0000
      9 C5         2.7615    2.4238    3.8072 C.ar      1 RES1    0.0000
     10 H3         2.3942    1.8468    3.1470 H         1 RES1    0.0000
     11 C6         3.1766    1.9005    5.0259 C.ar      1 RES1    0.0000
     12 H4         3.0914    0.9674    5.1822 H         1 RES1    0.0000
     13 C7         4.1406    2.1600    7.3573 C.3       1 RES1    0.0000
     14 H5         3.6814    2.6455    8.0746 H         1 RES1    0.0000
     15 H6         5.1092    2.2648    7.4605 H         1 RES1    0.0000
     16 H7         3.9080    1.2095    7.4058 H         1 RES1    0.0000
     17 O1D        2.5549    4.9455    7.9045 O.2       1 RES1   -1.0000
     18 N1D        3.7327    5.3745    7.7070 N.pl3     1 RES1    1.0000
     19 C1D        4.4666    7.6337    8.3565 C.ar      1 RES1    0.0000
     20 C2D        4.3629    6.2776    8.6624 C.ar      1 RES1    0.0000
     21 C3D        4.7564    5.7302    9.8757 C.ar      1 RES1    0.0000
     22 H1D        4.6526    4.8006   10.0436 H         1 RES1    0.0000
     23 C4D        5.3036    6.5647   10.8370 C.ar      1 RES1    0.0000
     24 H2D        5.5961    6.2098   11.6689 H         1 RES1    0.0000
     25 C5D        5.4211    7.9224   10.5758 C.ar      1 RES1    0.0000
     26 H3D        5.7884    8.4994   11.2360 H         1 RES1    0.0000
     27 C6D        5.0060    8.4457    9.3571 C.ar      1 RES1    0.0000
     28 H4D        5.0912    9.3788    9.2008 H         1 RES1    0.0000
     29 C7D        4.0420    8.1862    7.0257 C.3       1 RES1    0.0000
     30 H5D        4.5012    7.7007    6.3084 H         1 RES1    0.0000
     31 H6D        3.0734    8.0814    6.9225 H         1 RES1    0.0000
     32 H7D        4.2746    9.1367    6.9772 H         1 RES1    0.0000
@<TRIPOS>BOND
     1    1    2 1
     2    2    4 1
     3    3    4 ar
     4    4    5 ar
     5    5    6 1
     6    7    5 ar
     7    8    7 1
     8    9    7 ar
     9   10    9 1
    10   11    3 ar
    11   12   11 1
    12   13    3 1
    13   14   13 1
    14   15   13 1
    15   16   13 1
    16   17   18 1
    17   18    2 2
    18   19   20 ar
    19   20   18 1
    20   21   20 ar
    21   22   21 1
    22   23   21 ar
    23   24   23 1
    24   25   23 ar
    25   26   25 1
    26   27   19 ar
    27   28   27 1
    28   29   19 1
    29   30   29 1
    30   31   29 1
    31   32   29 1
    32    9   11 ar
    33   25   27 ar
@<TRIPOS>SUBSTRUCTURE
     1 RES1 1

@<TRIPOS>CRYSIN
   8.1826   10.3462   14.3830  90.0000  90.0000  90.0000  61 1

