# MOL2 file generated by ConQuest
# Please check atom types

@<TRIPOS>MOLECULE
VIYMUN
    20    20     1
SMALL
NO_CHARGES
****
Generated from CSD

@<TRIPOS>ATOM
      1 O1         0.8177    7.6946    0.8313 O.3       1 RES1    0.0000
      2 N1        -1.7891   12.1064    2.8981 N.2       1 RES1    0.0000
      3 C1         0.2007    8.7639    1.3873 C.ar      1 RES1    0.0000
      4 O2        -2.1289   12.9980    2.1192 O.2       1 RES1    0.0000
      5 C2        -0.1045    9.8117    0.4804 C.ar      1 RES1    0.0000
      6 C3        -0.7605   10.9202    0.9604 C.ar      1 RES1    0.0000
      7 H1        -0.9861   11.6283    0.3681 H         1 RES1    0.0000
      8 C4        -1.0988   11.0134    2.3196 C.ar      1 RES1    0.0000
      9 C5        -0.7707    9.9899    3.1938 C.ar      1 RES1    0.0000
     10 H2        -0.9912   10.0685    4.1145 H         1 RES1    0.0000
     11 C6        -0.1258    8.8572    2.7398 C.ar      1 RES1    0.0000
     12 H3         0.0918    8.1525    3.3395 H         1 RES1    0.0000
     13 C7         1.1566    6.5943    1.6882 C.3       1 RES1    0.0000
     14 H4         1.7603    6.9047    2.3954 H         1 RES1    0.0000
     15 H5         1.6004    5.8956    1.1625 H         1 RES1    0.0000
     16 H6         0.3409    6.2315    2.0917 H         1 RES1    0.0000
     17 C8         0.2944    9.6829   -0.9649 C.3       1 RES1    0.0000
     18 H7        -0.0206   10.4663   -1.4618 H         1 RES1    0.0000
     19 H8        -0.1066    8.8724   -1.3436 H         1 RES1    0.0000
     20 H9         1.2706    9.6252   -1.0309 H         1 RES1    0.0000
@<TRIPOS>BOND
     1    1    3 1
     2    2    4 2
     3    3    5 ar
     4    5    6 ar
     5    6    7 1
     6    8    2 1
     7    9    8 ar
     8   10    9 1
     9   11    3 ar
    10   12   11 1
    11   13    1 1
    12   14   13 1
    13   15   13 1
    14   16   13 1
    15   17    5 1
    16   18   17 1
    17   19   17 1
    18   20   17 1
    19    6    8 ar
    20    9   11 ar
@<TRIPOS>SUBSTRUCTURE
     1 RES1 1

@<TRIPOS>CRYSIN
   3.9710   12.6298   15.0510  90.0000  96.2350  90.0000 231 1

