# MOL2 file generated by ConQuest
# Please check atom types

@<TRIPOS>MOLECULE
VIYNAU
    25    25     2
SMALL
NO_CHARGES
****
Generated from CSD

@<TRIPOS>ATOM
      1 O1         2.1012    2.8170    0.8025 O.3       1 RES1    0.0000
      2 N1        -0.6526    2.8170    5.6255 N.2       1 RES1    0.0000
      3 C1         1.3901    2.8170    1.9845 C.2       1 RES1    0.0000
      4 C2         1.0781    4.0412    2.5746 C.2       1 RES1    0.0000
      5 C3         0.4098    4.0207    3.7849 C.2       1 RES1    0.0000
      6 H1         0.1821    4.8373    4.2136 H         1 RES1    0.0000
      7 C4         0.0723    2.8170    4.3733 C.2       1 RES1    0.0000
      8 C5         1.3052    2.8170   -0.3843 C.3       1 RES1    0.0000
      9 H2         1.8904    2.8170   -1.1700 H         1 RES1    0.0000
     10 H3         0.7395    3.6170   -0.3977 H         1 RES1    0.0000
     11 C6         1.4819    5.3383    1.9233 C.3       1 RES1    0.0000
     12 H4         2.4364    5.3094    1.7025 H         1 RES1    0.0000
     13 H5         1.3110    6.0802    2.5399 H         1 RES1    0.0000
     14 H6         0.9611    5.4683    1.1031 H         1 RES1    0.0000
     15 O2        -1.0257    3.5843    6.1589 O.3       1 RES1    0.0000
     16 H7         0.7395    3.6170   -0.3977 Du        2 SUP2    0.0000
     17 C2C        1.0781    1.5927    2.5746 C.2       1 RES1    0.0000
     18 C3C        0.4098    1.6132    3.7849 C.2       1 RES1    0.0000
     19 H1C        0.1821    0.7966    4.2136 H         1 RES1    0.0000
     20 H3C        0.7395    2.0170   -0.3977 H         1 RES1    0.0000
     21 C6C        1.4819    0.2957    1.9233 C.3       1 RES1    0.0000
     22 H4C        2.4364    0.3245    1.7025 H         1 RES1    0.0000
     23 H5C        1.3110   -0.4462    2.5399 H         1 RES1    0.0000
     24 H6C        0.9611    0.1656    1.1031 H         1 RES1    0.0000
     25 O2C       -1.0257    2.0496    6.1589 O.3       1 RES1    0.0000
@<TRIPOS>BOND
     1    1    3 1
     2    2    7 1
     3    3    4 1
     4    4    5 1
     5    5    6 1
     6    7    5 1
     7    8    1 1
     8    9    8 1
     9   10    8 1
    10   11    4 1
    11   12   11 1
    12   13   11 1
    13   14   11 1
    14   15    2 1
    15   17    3 1
    16   18    7 1
    17   19   18 1
    18   20    8 1
    19   21   17 1
    20   22   21 1
    21   23   21 1
    22   24   21 1
    23   25    2 1
    24   15   25 1
    25   17   18 1
@<TRIPOS>SUBSTRUCTURE
     1 RES1 1
     2 SUP2 16

@<TRIPOS>CRYSIN
   3.9667   11.2679    9.6508  90.0000  97.9050  90.0000  11 1

