# MOL2 file generated by ConQuest
# Please check atom types

@<TRIPOS>MOLECULE
VIZJAQ
    42    44     1
SMALL
NO_CHARGES
****
Generated from CSD

@<TRIPOS>ATOM
      1 C1         1.1667   11.6024    3.1515 C.ar      1 RES1    0.0000
      2 C2         0.4040   10.6577    3.7880 C.ar      1 RES1    0.0000
      3 C3         0.4202    9.3777    3.2934 C.ar      1 RES1    0.0000
      4 H1        -0.0638    8.7096    3.7212 H         1 RES1    0.0000
      5 C4         1.1562    9.0793    2.1580 C.ar      1 RES1    0.0000
      6 C5         1.8852   10.0307    1.4860 C.ar      1 RES1    0.0000
      7 C6         1.9073   11.2806    2.0203 C.ar      1 RES1    0.0000
      8 H2         2.4308   11.9364    1.6196 H         1 RES1    0.0000
      9 C7         1.2851   12.9686    3.7108 C.2       1 RES1    0.0000
     10 C8        -0.6977   12.5210    4.9443 C.3       1 RES1    0.0000
     11 H3        -1.1063   12.8085    5.7854 H         1 RES1    0.0000
     12 C9        -0.3750   11.0411    5.0319 C.3       1 RES1    0.0000
     13 C10        0.5235   10.8740    6.2863 C.3       1 RES1    0.0000
     14 H4         0.0255   11.1150    7.0710 H         1 RES1    0.0000
     15 H5         1.2920   11.4449    6.2090 H         1 RES1    0.0000
     16 H6         0.8091    9.9609    6.3572 H         1 RES1    0.0000
     17 C11       -1.6356   10.2429    5.2365 C.3       1 RES1    0.0000
     18 H7        -2.0768   10.5400    6.0358 H         1 RES1    0.0000
     19 H8        -1.4139    9.3120    5.3220 H         1 RES1    0.0000
     20 H9        -2.2184   10.3661    4.4851 H         1 RES1    0.0000
     21 C12        1.1121    7.6555    1.6759 C.2       1 RES1    0.0000
     22 C13        1.8527    8.4851   -0.3945 C.3       1 RES1    0.0000
     23 H10        2.3426    8.1648   -1.1792 H         1 RES1    0.0000
     24 C14        2.6398    9.6378    0.2275 C.3       1 RES1    0.0000
     25 C15        4.0177    8.9985    0.6929 C.3       1 RES1    0.0000
     26 H11        4.5587    9.6748    1.1082 H         1 RES1    0.0000
     27 H12        4.4786    8.6426   -0.0689 H         1 RES1    0.0000
     28 H13        3.8459    8.2948    1.3232 H         1 RES1    0.0000
     29 C16        2.8069   10.7276   -0.7451 C.3       1 RES1    0.0000
     30 H14        3.3084   11.4408   -0.3423 H         1 RES1    0.0000
     31 H15        1.9433   11.0534   -1.0101 H         1 RES1    0.0000
     32 H16        3.2771   10.4004   -1.5152 H         1 RES1    0.0000
     33 N1        -2.3275   13.9269    3.8757 N.pl3     1 RES1    0.0000
     34 O1         2.1267   13.7449    3.3998 O.2       1 RES1    0.0000
     35 O2         0.4133   13.3506    4.6646 O.3       1 RES1    0.0000
     36 O3        -1.6426   12.6538    3.9091 O.3       1 RES1    0.0000
     37 O4        -3.1018   14.0392    3.0263 O.2       1 RES1    0.0000
     38 O5        -2.0245   14.7073    4.7126 O.2       1 RES1    0.0000
     39 O6         0.6106    6.7602    2.2853 O.2       1 RES1    0.0000
     40 O7         1.6774    7.3653    0.5239 O.3       1 RES1    0.0000
     41 O8         0.6222    8.9506   -0.8098 O.3       1 RES1    0.0000
     42 H17        0.2821    8.4071   -1.3211 H         1 RES1    0.0000
@<TRIPOS>BOND
     1    1    2 ar
     2    2    3 ar
     3    3    4 1
     4    5    3 ar
     5    6    5 ar
     6    7    1 ar
     7    8    7 1
     8    9    1 1
     9   10   11 1
    10   12    2 1
    11   13   12 1
    12   14   13 1
    13   15   13 1
    14   16   13 1
    15   17   12 1
    16   18   17 1
    17   19   17 1
    18   20   17 1
    19   21    5 1
    20   22   23 1
    21   24    6 1
    22   25   24 1
    23   26   25 1
    24   27   25 1
    25   28   25 1
    26   29   24 1
    27   30   29 1
    28   31   29 1
    29   32   29 1
    30   33   36 1
    31   34    9 2
    32   35    9 1
    33   36   10 1
    34   37   33 2
    35   38   33 2
    36   39   21 2
    37   40   21 1
    38   41   22 1
    39   42   41 1
    40    6    7 ar
    41   10   12 1
    42   10   35 1
    43   22   24 1
    44   22   40 1
@<TRIPOS>SUBSTRUCTURE
     1 RES1 1

@<TRIPOS>CRYSIN
  11.6085   13.6901   20.8707  90.0000  90.0000  90.0000  61 1

