# MOL2 file generated by ConQuest
# Please check atom types

@<TRIPOS>MOLECULE
VIZZIP
    22    22     1
SMALL
NO_CHARGES
****
Generated from CSD

@<TRIPOS>ATOM
      1 O1         2.8907    7.8027    6.5162 O.2       1 RES1    0.0000
      2 O2         2.9479    7.7058    4.3537 O.2       1 RES1    0.0000
      3 O3         6.3720    1.7348    6.0174 O.2       1 RES1    0.0000
      4 O4         4.6564    2.2717    8.4153 O.2       1 RES1    0.0000
      5 N1         3.1233    7.2095    5.4599 N.pl3     1 RES1    0.0000
      6 N2         4.4136    0.8761    5.2859 N.am      1 RES1    0.0000
      7 H1         3.5552    1.0021    5.1794 H         1 RES1    0.0000
      8 H2         4.7470    0.0676    5.2866 H         1 RES1    0.0000
      9 N3         5.4513    4.2765    9.0820 N.am      1 RES1    0.0000
     10 H3         5.6557    3.9262    9.8644 H         1 RES1    0.0000
     11 H4         5.5654    5.1274    8.9377 H         1 RES1    0.0000
     12 C1         3.6333    5.8332    5.5370 C.ar      1 RES1    0.0000
     13 C2         3.6707    5.0745    4.3854 C.ar      1 RES1    0.0000
     14 H5         3.3752    5.4502    3.5100 H         1 RES1    0.0000
     15 C3         4.1352    3.7674    4.4793 C.ar      1 RES1    0.0000
     16 H6         4.1835    3.2537    3.6884 H         1 RES1    0.0000
     17 C4         4.5684    3.2549    5.7017 C.ar      1 RES1    0.0000
     18 C5         4.5239    4.0528    6.8574 C.ar      1 RES1    0.0000
     19 C6         4.0432    5.3579    6.7730 C.ar      1 RES1    0.0000
     20 H7         3.9904    5.8966    7.5458 H         1 RES1    0.0000
     21 C7         5.1845    1.8767    5.7141 C.2       1 RES1    0.0000
     22 C8         4.8964    3.4625    8.1916 C.2       1 RES1    0.0000
@<TRIPOS>BOND
     1    1    5 2
     2    2    5 2
     3    3   21 2
     4    4   22 2
     5    5   12 1
     6    6    7 1
     7    8    6 1
     8    9   10 1
     9   11    9 1
    10   12   13 ar
    11   13   14 1
    12   15   13 ar
    13   16   15 1
    14   17   15 ar
    15   18   17 ar
    16   19   12 ar
    17   20   19 1
    18   21    6 1
    19   22    9 1
    20   17   21 1
    21   18   19 ar
    22   18   22 1
@<TRIPOS>SUBSTRUCTURE
     1 RES1 1

@<TRIPOS>CRYSIN
   7.7425    9.6634   12.1276  90.0000 106.0080  90.0000  14 1

