# MOL2 file generated by ConQuest
# Please check atom types

@<TRIPOS>MOLECULE
VOBBEV
    38    39     1
SMALL
NO_CHARGES
****
Generated from CSD

@<TRIPOS>ATOM
      1 O1         1.6390   -3.8397    8.3876 O.3       1 RES1    0.0000
      2 O2        -0.4857   -3.3448    7.8838 O.2       1 RES1    0.0000
      3 O3         5.2059   -1.2757    6.8608 O.2       1 RES1    0.0000
      4 O4         5.0808    0.1041    5.2220 O.2       1 RES1    0.0000
      5 O5         3.2759    2.0139    6.7706 O.2       1 RES1    0.0000
      6 O6         4.5573    3.5338    5.9413 O.2       1 RES1    0.0000
      7 O7         4.2043    4.8312    1.3932 O.3       1 RES1    0.0000
      8 O8         3.2244    3.5034   -0.1165 O.2       1 RES1    0.0000
      9 N1         4.5600   -0.6329    6.0413 N.pl3     1 RES1    0.0000
     10 N2         3.7707    2.6092    5.8227 N.pl3     1 RES1    0.0000
     11 C1         1.1581   -4.9636    9.1618 C.3       1 RES1    0.0000
     12 H1         1.9020   -5.3548    9.6653 H         1 RES1    0.0000
     13 H2         0.7815   -5.6377    8.5588 H         1 RES1    0.0000
     14 H3         0.4663   -4.6585    9.7848 H         1 RES1    0.0000
     15 C2         0.6915   -3.1272    7.7711 C.2       1 RES1    0.0000
     16 C3         1.2591   -2.0454    6.9261 C.ar      1 RES1    0.0000
     17 C4         2.6207   -1.7965    6.8653 C.ar      1 RES1    0.0000
     18 H4         3.2213   -2.3128    7.3891 H         1 RES1    0.0000
     19 C5         3.1016   -0.8024    6.0472 C.ar      1 RES1    0.0000
     20 C6         2.2645   -0.0118    5.2421 C.ar      1 RES1    0.0000
     21 C7         0.9035   -0.2971    5.3189 C.ar      1 RES1    0.0000
     22 H5         0.2995    0.1997    4.7787 H         1 RES1    0.0000
     23 C8         0.4015   -1.2772    6.1530 C.ar      1 RES1    0.0000
     24 H6        -0.5358   -1.4257    6.1971 H         1 RES1    0.0000
     25 C9         2.6664    1.0211    4.2402 C.ar      1 RES1    0.0000
     26 C10        3.3626    2.2138    4.4661 C.ar      1 RES1    0.0000
     27 C11        3.6885    3.0914    3.4484 C.ar      1 RES1    0.0000
     28 H7         4.1969    3.8721    3.6333 H         1 RES1    0.0000
     29 C12        3.2667    2.8212    2.1578 C.ar      1 RES1    0.0000
     30 C13        2.5366    1.6698    1.9099 C.ar      1 RES1    0.0000
     31 H8         2.2313    1.4862    1.0298 H         1 RES1    0.0000
     32 C14        2.2503    0.7868    2.9323 C.ar      1 RES1    0.0000
     33 H9         1.7568   -0.0016    2.7386 H         1 RES1    0.0000
     34 C15        3.5524    3.7341    1.0141 C.2       1 RES1    0.0000
     35 C16        4.4547    5.7901    0.3367 C.3       1 RES1    0.0000
     36 H10        4.9133    6.5727    0.7082 H         1 RES1    0.0000
     37 H11        3.6037    6.0689   -0.0602 H         1 RES1    0.0000
     38 H12        5.0174    5.3777   -0.3517 H         1 RES1    0.0000
@<TRIPOS>BOND
     1    1   11 1
     2    2   15 2
     3    3    9 2
     4    4    9 2
     5    5   10 2
     6    6   10 2
     7    7   34 1
     8    8   34 2
     9    9   19 1
    10   10   26 1
    11   11   12 1
    12   13   11 1
    13   14   11 1
    14   15    1 1
    15   16   15 1
    16   17   16 ar
    17   18   17 1
    18   19   17 ar
    19   20   19 ar
    20   21   20 ar
    21   22   21 1
    22   23   16 ar
    23   24   23 1
    24   25   20 1
    25   26   25 ar
    26   27   26 ar
    27   28   27 1
    28   29   27 ar
    29   30   29 ar
    30   31   30 1
    31   32   25 ar
    32   33   32 1
    33   34   29 1
    34   35    7 1
    35   36   35 1
    36   37   35 1
    37   38   35 1
    38   21   23 ar
    39   30   32 ar
@<TRIPOS>SUBSTRUCTURE
     1 RES1 1

@<TRIPOS>CRYSIN
   8.0520   10.4193   10.5310 108.4230  95.1420 111.6170   2 1

