# MOL2 file generated by ConQuest
# Please check atom types

@<TRIPOS>MOLECULE
VOBPEH
    49    52     1
SMALL
USER_CHARGES
****
Generated from CSD

@<TRIPOS>ATOM
      1 N1         0.2439    2.0667    5.7457 N.ar      1 RES1    0.0000
      2 N2         0.5999    1.2125    4.7937 N.pl3     1 RES1    1.0000
      3 N3         1.7652    1.2052    4.1576 N.ar      1 RES1    0.0000
      4 C1         2.6562    2.1509    4.5005 C.ar      1 RES1    0.0000
      5 C2         2.3976    3.1062    5.4888 C.ar      1 RES1    0.0000
      6 C3         1.1463    3.0117    6.0932 C.ar      1 RES1    0.0000
      7 O1        -0.2245    0.3401    4.4693 O.2       1 RES1   -1.0000
      8 C4         3.9129    2.0113    3.7183 C.ar      1 RES1    0.0000
      9 C5         3.8385    1.5631    2.3940 C.ar      1 RES1    0.0000
     10 C6         4.9803    1.3146    1.6712 C.ar      1 RES1    0.0000
     11 C7         6.2409    1.4658    2.2191 C.ar      1 RES1    0.0000
     12 C8         6.3058    1.9269    3.5445 C.ar      1 RES1    0.0000
     13 C9         5.1782    2.1948    4.2799 C.ar      1 RES1    0.0000
     14 C10        7.4795    1.1245    1.4594 C.3       1 RES1    0.0000
     15 C11        3.3782    4.1653    5.8421 C.ar      1 RES1    0.0000
     16 C12        3.6507    5.2015    4.9594 C.ar      1 RES1    0.0000
     17 C13        4.4990    6.2336    5.3260 C.ar      1 RES1    0.0000
     18 C14        5.1261    6.2408    6.5613 C.ar      1 RES1    0.0000
     19 C15        4.8638    5.1858    7.4336 C.ar      1 RES1    0.0000
     20 C16        4.0099    4.1621    7.0849 C.ar      1 RES1    0.0000
     21 C17        6.0191    7.3711    6.9724 C.3       1 RES1    0.0000
     22 C18        0.6138    3.9005    7.1675 C.ar      1 RES1    0.0000
     23 C19        0.9161    5.2559    7.2362 C.ar      1 RES1    0.0000
     24 C20        0.3510    6.0504    8.2280 C.ar      1 RES1    0.0000
     25 C21       -0.5467    5.5368    9.1372 C.ar      1 RES1    0.0000
     26 C22       -0.8287    4.1931    9.0766 C.ar      1 RES1    0.0000
     27 C23       -0.2674    3.3808    8.1113 C.ar      1 RES1    0.0000
     28 C24       -1.1612    6.4346   10.1763 C.3       1 RES1    0.0000
     29 H1         2.9928    1.3465    1.9801 H         1 RES1    0.0000
     30 H2         4.8999    1.0154    0.7158 H         1 RES1    0.0000
     31 H3         7.1695    2.0601    3.9139 H         1 RES1    0.0000
     32 H4         5.2775    2.5944    5.1840 H         1 RES1    0.0000
     33 H5         3.1722    5.1858    4.0929 H         1 RES1    0.0000
     34 H6         4.6583    7.0545    4.6817 H         1 RES1    0.0000
     35 H7         5.3268    5.1749    8.3417 H         1 RES1    0.0000
     36 H8         3.7785    3.3737    7.7355 H         1 RES1    0.0000
     37 H9         1.6044    5.7260    6.5694 H         1 RES1    0.0000
     38 H10        0.4824    7.0227    8.2609 H         1 RES1    0.0000
     39 H11       -1.4275    3.7249    9.6752 H         1 RES1    0.0000
     40 H12       -0.5067    2.4008    8.1050 H         1 RES1    0.0000
     41 H13        7.7436    1.8316    0.5888 H         1 RES1    0.0000
     42 H14        8.3619    1.1180    2.0205 H         1 RES1    0.0000
     43 H15        7.4039    0.1816    1.0853 H         1 RES1    0.0000
     44 H16        5.5042    8.1522    7.0255 H         1 RES1    0.0000
     45 H17        6.3526    7.2822    7.7009 H         1 RES1    0.0000
     46 H18        6.7646    7.5000    6.3616 H         1 RES1    0.0000
     47 H19       -1.5984    7.1910    9.8715 H         1 RES1    0.0000
     48 H20       -1.6478    5.9009   10.6912 H         1 RES1    0.0000
     49 H21       -0.4007    6.8218   10.7951 H         1 RES1    0.0000
@<TRIPOS>BOND
     1    1    2 ar
     2    2    3 ar
     3    3    4 ar
     4    4    5 ar
     5    5    6 ar
     6    6    1 ar
     7    7    2 1
     8    8    4 1
     9    9    8 ar
    10   10    9 ar
    11   11   10 ar
    12   12   11 ar
    13   13    8 ar
    14   14   11 1
    15   15    5 1
    16   16   15 ar
    17   17   16 ar
    18   18   17 ar
    19   19   18 ar
    20   20   15 ar
    21   21   18 1
    22   22    6 1
    23   23   22 ar
    24   24   23 ar
    25   25   24 ar
    26   26   25 ar
    27   27   22 ar
    28   28   25 1
    29   29    9 1
    30   30   10 1
    31   31   12 1
    32   32   13 1
    33   33   16 1
    34   34   17 1
    35   35   19 1
    36   36   20 1
    37   37   23 1
    38   38   24 1
    39   39   26 1
    40   40   27 1
    41   41   14 1
    42   42   14 1
    43   43   14 1
    44   44   21 1
    45   45   21 1
    46   46   21 1
    47   47   28 1
    48   48   28 1
    49   49   28 1
    50   12   13 ar
    51   19   20 ar
    52   26   27 ar
@<TRIPOS>SUBSTRUCTURE
     1 RES1 1

@<TRIPOS>CRYSIN
   9.3300   10.0730    5.9030  94.3200  98.6200 113.0100   1 1

