# MOL2 file generated by ConQuest
# Please check atom types

@<TRIPOS>MOLECULE
VOBPAD
    14    15     1
SMALL
USER_CHARGES
****
Generated from CSD

@<TRIPOS>ATOM
      1 N1         8.0413    5.6165    6.5338 N.ar      1 RES1    0.0000
      2 N2         6.9074    5.1224    6.0889 N.ar      1 RES1    0.0000
      3 N3         5.9464    5.9703    5.6827 N.pl3     1 RES1    1.0000
      4 C1         6.0726    7.3350    5.7532 C.ar      1 RES1    0.0000
      5 C2         7.2541    7.8205    6.2193 C.ar      1 RES1    0.0000
      6 C3         8.2658    6.9307    6.5994 C.ar      1 RES1    0.0000
      7 O1         4.8866    5.4552    5.2223 O.2       1 RES1   -1.0000
      8 C4         4.9185    8.1349    5.2737 C.3       1 RES1    0.0000
      9 C5         9.6074    7.3313    7.0662 C.ar      1 RES1    0.0000
     10 C6        10.6723    6.4527    6.9583 C.ar      1 RES1    0.0000
     11 C7        11.9395    6.8194    7.3786 C.ar      1 RES1    0.0000
     12 C8        12.1421    8.0678    7.9490 C.ar      1 RES1    0.0000
     13 C9        11.0929    8.9582    8.0534 C.ar      1 RES1    0.0000
     14 C10        9.8277    8.6000    7.6099 C.ar      1 RES1    0.0000
@<TRIPOS>BOND
     1    1    2 ar
     2    2    3 ar
     3    3    4 ar
     4    4    5 ar
     5    5    6 ar
     6    6    1 ar
     7    7    3 1
     8    8    4 1
     9    9    6 1
    10   10    9 ar
    11   11   10 ar
    12   12   11 ar
    13   13   12 ar
    14   14    9 ar
    15   13   14 ar
@<TRIPOS>SUBSTRUCTURE
     1 RES1 1

@<TRIPOS>CRYSIN
  10.3330    6.1530    7.0580  90.0000  92.4800  90.0000   7 1

