# MOL2 file generated by ConQuest
# Please check atom types

@<TRIPOS>MOLECULE
VOBPEH10
    28    31     1
SMALL
USER_CHARGES
****
Generated from CSD

@<TRIPOS>ATOM
      1 O1        -0.2242    0.3479    4.4704 O.2       1 RES1   -1.0000
      2 N1         0.2452    2.0763    5.7494 N.ar      1 RES1    0.0000
      3 N2         0.6024    1.2208    4.7955 N.pl3     1 RES1    1.0000
      4 N3         1.7666    1.2132    4.1598 N.ar      1 RES1    0.0000
      5 C1         2.6580    2.1577    4.5022 C.ar      1 RES1    0.0000
      6 C2         2.3996    3.1165    5.4913 C.ar      1 RES1    0.0000
      7 C3         1.1483    3.0221    6.0959 C.ar      1 RES1    0.0000
      8 C4         3.9145    2.0176    3.7204 C.ar      1 RES1    0.0000
      9 C5         3.8389    1.5670    2.3963 C.ar      1 RES1    0.0000
     10 C6         4.9827    1.3184    1.6717 C.ar      1 RES1    0.0000
     11 C7         6.2444    1.4685    2.2208 C.ar      1 RES1    0.0000
     12 C8         6.3098    1.9322    3.5448 C.ar      1 RES1    0.0000
     13 C9         5.1807    2.2028    4.2834 C.ar      1 RES1    0.0000
     14 C10        7.4786    1.1259    1.4609 C.3       1 RES1    0.0000
     15 C11        3.3810    4.1753    5.8447 C.ar      1 RES1    0.0000
     16 C12        3.6527    5.2099    4.9624 C.ar      1 RES1    0.0000
     17 C13        4.5012    6.2438    5.3273 C.ar      1 RES1    0.0000
     18 C14        5.1291    6.2528    6.5659 C.ar      1 RES1    0.0000
     19 C15        4.8669    5.1994    7.4373 C.ar      1 RES1    0.0000
     20 C16        4.0116    4.1751    7.0885 C.ar      1 RES1    0.0000
     21 C17        6.1038    7.1894    6.9747 C.3       1 RES1    0.0000
     22 C18        0.6154    3.9137    7.1705 C.ar      1 RES1    0.0000
     23 C19        0.9200    5.2681    7.2409 C.ar      1 RES1    0.0000
     24 C20        0.3534    6.0663    8.2318 C.ar      1 RES1    0.0000
     25 C21       -0.5458    5.5524    9.1418 C.ar      1 RES1    0.0000
     26 C22       -0.8283    4.2067    9.0812 C.ar      1 RES1    0.0000
     27 C23       -0.2670    3.3957    8.1146 C.ar      1 RES1    0.0000
     28 C24       -1.1619    6.4527   10.1824 C.3       1 RES1    0.0000
@<TRIPOS>BOND
     1    1    3 1
     2    2    3 ar
     3    3    4 ar
     4    4    5 ar
     5    5    6 ar
     6    6    7 ar
     7    7    2 ar
     8    8    5 1
     9    9    8 ar
    10   10    9 ar
    11   11   10 ar
    12   12   11 ar
    13   13    8 ar
    14   14   11 1
    15   15    6 1
    16   16   15 ar
    17   17   16 ar
    18   18   17 ar
    19   19   18 ar
    20   20   15 ar
    21   21   18 1
    22   22    7 1
    23   23   22 ar
    24   24   23 ar
    25   25   24 ar
    26   26   25 ar
    27   27   22 ar
    28   28   25 1
    29   12   13 ar
    30   19   20 ar
    31   26   27 ar
@<TRIPOS>SUBSTRUCTURE
     1 RES1 1

@<TRIPOS>CRYSIN
   9.3330   10.0730    5.9030  94.2300  98.6200 113.0100   1 1

