# MOL2 file generated by ConQuest
# Please check atom types

@<TRIPOS>MOLECULE
VOBTOV01
    19    19     1
SMALL
USER_CHARGES
****
Generated from CSD

@<TRIPOS>ATOM
      1 O1         2.2978    0.8819    8.7859 O.2       1 RES1   -1.0000
      2 N1         1.1782    1.5163    8.8915 N.pl3     1 RES1    1.0000
      3 C1         0.7657    2.2393    7.6787 C.3       1 RES1    0.0000
      4 C2         0.4333    1.5714    9.9672 C.2       1 RES1    0.0000
      5 C3         0.7468    0.9892   11.2606 C.ar      1 RES1    0.0000
      6 C4         1.8608    0.1762   11.5408 C.ar      1 RES1    0.0000
      7 C5         2.0858   -0.2691   12.8437 C.ar      1 RES1    0.0000
      8 C6         1.2184    0.0830   13.8766 C.ar      1 RES1    0.0000
      9 C7         0.0910    0.8611   13.6007 C.ar      1 RES1    0.0000
     10 C8        -0.1450    1.3059   12.3037 C.ar      1 RES1    0.0000
     11 H1         1.4795    3.0483    7.5287 H         1 RES1    0.0000
     12 H2        -0.2328    2.6372    7.7946 H         1 RES1    0.0000
     13 H3         0.7932    1.5301    6.8496 H         1 RES1    0.0000
     14 H4        -0.4990    2.1264    9.8744 H         1 RES1    0.0000
     15 H5         2.5273   -0.0975   10.7379 H         1 RES1    0.0000
     16 H6         2.9457   -0.8982   13.0521 H         1 RES1    0.0000
     17 H7         1.4134   -0.2508   14.8906 H         1 RES1    0.0000
     18 H8        -0.6112    1.1286   14.3969 H         1 RES1    0.0000
     19 H9        -1.0171    1.9105   12.0738 H         1 RES1    0.0000
@<TRIPOS>BOND
     1    1    2 1
     2    2    3 1
     3    3   11 1
     4    4    2 2
     5    5    4 1
     6    6    5 ar
     7    7    6 ar
     8    8    7 ar
     9    9    8 ar
    10   10    5 ar
    11   12    3 1
    12   13    3 1
    13   14    4 1
    14   15    6 1
    15   16    7 1
    16   17    8 1
    17   18    9 1
    18   19   10 1
    19    9   10 ar
@<TRIPOS>SUBSTRUCTURE
     1 RES1 1

@<TRIPOS>CRYSIN
   9.5444    7.7466   19.1298  90.0000  90.0000  90.0000  61 1

