# MOL2 file generated by ConQuest
# Please check atom types

@<TRIPOS>MOLECULE
VOBTOV
    19    19     1
SMALL
NO_CHARGES
****
Generated from CSD

@<TRIPOS>ATOM
      1 O1         2.4539    0.9521    8.7822 O.2       1 RES1    0.0000
      2 N1         3.5876    1.5659    8.8852 N.pl3     1 RES1    0.0000
      3 C1         4.0081    2.2977    7.6780 C.3       1 RES1    0.0000
      4 C2         4.3280    1.5842    9.9512 C.2       1 RES1    0.0000
      5 C3         4.0284    0.9944   11.2290 C.ar      1 RES1    0.0000
      6 C4         2.9333    0.1756   11.5113 C.ar      1 RES1    0.0000
      7 C5         2.7178   -0.2881   12.7966 C.ar      1 RES1    0.0000
      8 C6         3.5915    0.0375   13.8169 C.ar      1 RES1    0.0000
      9 C7         4.6875    0.8196   13.5480 C.ar      1 RES1    0.0000
     10 C8         4.9224    1.2865   12.2741 C.ar      1 RES1    0.0000
     11 H1         3.3248    3.0727    7.5140 H         1 RES1    0.0000
     12 H2         3.8950    1.7239    6.9609 H         1 RES1    0.0000
     13 H3         4.8905    2.6657    7.7238 H         1 RES1    0.0000
     14 H4         5.1225    2.0830    9.8406 H         1 RES1    0.0000
     15 H5         2.3679   -0.0479   10.8133 H         1 RES1    0.0000
     16 H6         2.0200   -0.9178   13.0064 H         1 RES1    0.0000
     17 H7         3.4214   -0.2793   14.7228 H         1 RES1    0.0000
     18 H8         5.3254    1.0295   14.2460 H         1 RES1    0.0000
     19 H9         5.6830    1.8676   12.0719 H         1 RES1    0.0000
@<TRIPOS>BOND
     1    1    2 un
     2    2    3 1
     3    3   11 1
     4    4    2 un
     5    5    4 1
     6    6    5 ar
     7    7    6 ar
     8    8    7 ar
     9    9    8 ar
    10   10    5 ar
    11   12    3 1
    12   13    3 1
    13   14    4 1
    14   15    6 1
    15   16    7 1
    16   17    8 1
    17   18    9 1
    18   19   10 1
    19    9   10 ar
@<TRIPOS>SUBSTRUCTURE
     1 RES1 1

@<TRIPOS>CRYSIN
   9.6650    7.9810   19.0710  90.0000  90.0000  90.0000  61 1

