# MOL2 file generated by ConQuest
# Please check atom types

@<TRIPOS>MOLECULE
VOBZIX
    36    37     1
SMALL
NO_CHARGES
****
Generated from CSD

@<TRIPOS>ATOM
      1 O1         3.3235    2.0659    1.5706 O.3       1 RES1    0.0000
      2 O2         2.8814    2.5014    5.4926 O.3       1 RES1    0.0000
      3 O3         4.7494    1.6852    4.5594 O.2       1 RES1    0.0000
      4 N1         3.9447    1.6886    0.3625 N.2       1 RES1    0.0000
      5 N2         3.6506   -0.1091    1.7041 N.2       1 RES1    0.0000
      6 C1         3.5495    1.7814    4.6000 C.2       1 RES1    0.0000
      7 C2         3.1991    0.9383    2.3015 C.2       1 RES1    0.0000
      8 C3         2.5987    1.0767    3.6483 C.3       1 RES1    0.0000
      9 C4         4.1040    0.4085    0.5165 C.2       1 RES1    0.0000
     10 C5         3.6722    3.1275    6.5537 C.3       1 RES1    0.0000
     11 C6         2.7454    3.9649    7.3585 C.3       1 RES1    0.0000
     12 H1         1.7538    1.5625    3.6039 H         1 RES1    0.0000
     13 H2         2.4661    0.2035    4.0039 H         1 RES1    0.0000
     14 H3         4.4500    3.5563    6.1343 H         1 RES1    0.0000
     15 H4         2.0234    3.4261    7.7005 H         1 RES1    0.0000
     16 H5         4.1373    2.3600    7.1112 H         1 RES1    0.0000
     17 H6         3.2405    4.3620    8.0774 H         1 RES1    0.0000
     18 H7         2.3527    4.6713    6.8116 H         1 RES1    0.0000
     19 O1B        5.5289   -2.0659   -1.5706 O.3       1 RES1    0.0000
     20 O2B        5.9710   -2.5014   -5.4926 O.3       1 RES1    0.0000
     21 O3B        4.1030   -1.6852   -4.5594 O.2       1 RES1    0.0000
     22 N1B        4.9077   -1.6886   -0.3625 N.2       1 RES1    0.0000
     23 N2B        5.2018    0.1091   -1.7041 N.2       1 RES1    0.0000
     24 C1B        5.3029   -1.7814   -4.6000 C.2       1 RES1    0.0000
     25 C2B        5.6533   -0.9383   -2.3015 C.2       1 RES1    0.0000
     26 C3B        6.2537   -1.0767   -3.6483 C.3       1 RES1    0.0000
     27 C4B        4.7484   -0.4085   -0.5165 C.2       1 RES1    0.0000
     28 C5B        5.1802   -3.1275   -6.5537 C.3       1 RES1    0.0000
     29 C6B        6.1070   -3.9649   -7.3585 C.3       1 RES1    0.0000
     30 H1B        7.0986   -1.5625   -3.6039 H         1 RES1    0.0000
     31 H2B        6.3863   -0.2035   -4.0039 H         1 RES1    0.0000
     32 H3B        4.4024   -3.5563   -6.1343 H         1 RES1    0.0000
     33 H4B        6.8290   -3.4261   -7.7005 H         1 RES1    0.0000
     34 H5B        4.7151   -2.3600   -7.1112 H         1 RES1    0.0000
     35 H6B        5.6119   -4.3620   -8.0774 H         1 RES1    0.0000
     36 H7B        6.4997   -4.6713   -6.8116 H         1 RES1    0.0000
@<TRIPOS>BOND
     1    1    4 1
     2    2    6 1
     3    3    6 2
     4    4    9 2
     5    5    7 2
     6    6    8 1
     7    7    1 1
     8    8    7 1
     9    9    5 1
    10   10    2 1
    11   11   10 1
    12   12    8 1
    13   13    8 1
    14   14   10 1
    15   15   11 1
    16   16   10 1
    17   17   11 1
    18   18   11 1
    19   19   22 1
    20   20   24 1
    21   21   24 2
    22   22   27 2
    23   23   25 2
    24   24   26 1
    25   25   19 1
    26   26   25 1
    27   27    9 1
    28   28   20 1
    29   29   28 1
    30   30   26 1
    31   31   26 1
    32   32   28 1
    33   33   29 1
    34   34   28 1
    35   35   29 1
    36   36   29 1
    37   23   27 1
@<TRIPOS>SUBSTRUCTURE
     1 RES1 1

@<TRIPOS>CRYSIN
   8.8524    8.1381    9.6626  90.0000  90.6870  90.0000 231 1

