# MOL2 file generated by ConQuest
# Please check atom types

@<TRIPOS>MOLECULE
VODJOO
    28    28     1
SMALL
NO_CHARGES
****
Generated from CSD

@<TRIPOS>ATOM
      1 O1        -2.3343    1.9787    4.1504 O.2       1 RES1    0.0000
      2 O2        -2.4574    3.5675    2.5915 O.3       1 RES1    0.0000
      3 O3         3.9338    0.8319    1.7197 O.3       1 RES1    0.0000
      4 O4        -0.7927    1.7747    1.3896 O.2       1 RES1    0.0000
      5 N1         1.0379    2.6077    2.4421 N.am      1 RES1    0.0000
      6 N2         3.2010    1.8119    2.4238 N.2       1 RES1    0.0000
      7 C1         1.8779    0.7177    0.9698 C.2       1 RES1    0.0000
      8 H1         1.1164    0.4648    0.4991 H         1 RES1    0.0000
      9 C2        -3.0025    2.6130    3.3692 C.2       1 RES1    0.0000
     10 C3        -5.0899    1.5038    3.8172 C.2       1 RES1    0.0000
     11 H2        -6.0023    1.3747    3.6935 H         1 RES1    0.0000
     12 H3        -4.6220    0.9705    4.4181 H         1 RES1    0.0000
     13 C4         1.9903    1.7248    1.9421 C.2       1 RES1    0.0000
     14 C5         3.7199   -0.8664    0.0429 C.3       1 RES1    0.0000
     15 H4         3.0923   -1.1431   -0.6299 H         1 RES1    0.0000
     16 H5         3.9438   -1.6159    0.5989 H         1 RES1    0.0000
     17 H6         4.5156   -0.5333   -0.3786 H         1 RES1    0.0000
     18 C6        -4.4478    2.4589    3.1281 C.2       1 RES1    0.0000
     19 C7         3.1178    0.1997    0.8697 C.2       1 RES1    0.0000
     20 C8        -1.0447    3.7508    2.7352 C.3       1 RES1    0.0000
     21 H7        -0.8222    3.8119    3.6780 H         1 RES1    0.0000
     22 H8        -0.7825    4.5827    2.3097 H         1 RES1    0.0000
     23 C9        -5.1203    3.3354    2.1645 C.3       1 RES1    0.0000
     24 H9        -6.0431    3.0799    2.0894 H         1 RES1    0.0000
     25 H10       -4.6943    3.2552    1.3080 H         1 RES1    0.0000
     26 H11       -5.0638    4.2448    2.4663 H         1 RES1    0.0000
     27 C10       -0.2789    2.6045    2.1104 C.2       1 RES1    0.0000
     28 H12        1.3086    3.1553    3.0085 H         1 RES1    0.0000
@<TRIPOS>BOND
     1    1    9 2
     2    2    9 1
     3    3    6 1
     4    4   27 2
     5    5   13 1
     6    6   13 2
     7    7    8 1
     8    9   18 1
     9   10   11 1
    10   12   10 1
    11   13    7 1
    12   14   15 1
    13   16   14 1
    14   17   14 1
    15   18   10 2
    16   19    3 1
    17   20    2 1
    18   21   20 1
    19   22   20 1
    20   23   18 1
    21   24   23 1
    22   25   23 1
    23   26   23 1
    24   27    5 1
    25   28    5 1
    26    7   19 2
    27   14   19 1
    28   20   27 1
@<TRIPOS>SUBSTRUCTURE
     1 RES1 1

@<TRIPOS>CRYSIN
  11.9270    5.3120   17.2780  90.0000  95.0480  90.0000  14 1

