# MOL2 file generated by ConQuest
# Please check atom types

@<TRIPOS>MOLECULE
VODQEK
    38    39     1
SMALL
NO_CHARGES
****
Generated from CSD

@<TRIPOS>ATOM
      1 O1         2.1689    1.4654    9.0109 O.2       1 RES1    0.0000
      2 O2         3.3718   -1.8849    8.1033 O.3       1 RES1    0.0000
      3 O3         2.7894   -1.3612    4.9895 O.2       1 RES1    0.0000
      4 O4         4.7646   -2.0952    5.0718 O.2       1 RES1    0.0000
      5 N1         3.9654   -1.2050    5.1940 N.pl3     1 RES1    0.0000
      6 C1         3.2074    2.0688    8.8269 C.2       1 RES1    0.0000
      7 C2         4.1865    1.6504    7.7511 C.3       1 RES1    0.0000
      8 H1         5.0751    1.5890    8.1351 H         1 RES1    0.0000
      9 H2         4.2080    2.3290    7.0582 H         1 RES1    0.0000
     10 C3         3.8161    0.3021    7.1228 C.3       1 RES1    0.0000
     11 H3         2.8411    0.2781    7.0250 H         1 RES1    0.0000
     12 C4         4.4344    0.1738    5.6996 C.3       1 RES1    0.0000
     13 C5         4.2058   -0.8180    8.0205 C.2       1 RES1    0.0000
     14 C6         3.9665   -2.7828    8.9519 C.2       1 RES1    0.0000
     15 H4         3.6052   -3.6070    9.1879 H         1 RES1    0.0000
     16 C7         5.1051   -2.3245    9.3816 C.2       1 RES1    0.0000
     17 H5         5.6915   -2.7524    9.9635 H         1 RES1    0.0000
     18 C8         5.2804   -1.0465    8.7916 C.2       1 RES1    0.0000
     19 H6         6.0028   -0.4744    8.9152 H         1 RES1    0.0000
     20 C9         3.5301    3.2888    9.6255 C.ar      1 RES1    0.0000
     21 C10        4.7008    4.0107    9.4502 C.ar      1 RES1    0.0000
     22 H7         5.3343    3.7217    8.8339 H         1 RES1    0.0000
     23 C11        4.9333    5.1643   10.1912 C.ar      1 RES1    0.0000
     24 H8         5.7125    5.6534   10.0574 H         1 RES1    0.0000
     25 C12        4.0128    5.5789   11.1191 C.ar      1 RES1    0.0000
     26 H9         4.1708    6.3481   11.6166 H         1 RES1    0.0000
     27 C13        2.8558    4.8601   11.3165 C.ar      1 RES1    0.0000
     28 H10        2.2368    5.1393   11.9523 H         1 RES1    0.0000
     29 C14        2.6170    3.7285   10.5724 C.ar      1 RES1    0.0000
     30 H11        1.8302    3.2506   10.7058 H         1 RES1    0.0000
     31 C15        5.9430    0.1998    5.6722 C.3       1 RES1    0.0000
     32 H12        6.2497    0.0272    4.7795 H         1 RES1    0.0000
     33 H13        6.2855   -0.4733    6.2643 H         1 RES1    0.0000
     34 H14        6.2531    1.0635    5.9549 H         1 RES1    0.0000
     35 C16        3.8376    1.1863    4.7326 C.3       1 RES1    0.0000
     36 H15        4.1945    2.0578    4.9204 H         1 RES1    0.0000
     37 H16        2.8832    1.2031    4.8357 H         1 RES1    0.0000
     38 H17        4.0582    0.9375    3.8321 H         1 RES1    0.0000
@<TRIPOS>BOND
     1    1    6 2
     2    2   13 1
     3    3    5 2
     4    4    5 2
     5    5   12 1
     6    6    7 1
     7    7    8 1
     8    9    7 1
     9   10    7 1
    10   11   10 1
    11   12   10 1
    12   13   10 1
    13   14    2 1
    14   15   14 1
    15   16   14 2
    16   17   16 1
    17   18   13 2
    18   19   18 1
    19   20    6 1
    20   21   20 ar
    21   22   21 1
    22   23   21 ar
    23   24   23 1
    24   25   23 ar
    25   26   25 1
    26   27   25 ar
    27   28   27 1
    28   29   20 ar
    29   30   29 1
    30   31   12 1
    31   32   31 1
    32   33   31 1
    33   34   31 1
    34   35   12 1
    35   36   35 1
    36   37   35 1
    37   38   35 1
    38   16   18 1
    39   27   29 ar
@<TRIPOS>SUBSTRUCTURE
     1 RES1 1

@<TRIPOS>CRYSIN
   5.8390   11.3500   11.4640  90.0000  92.1100  90.0000   4 1

