# MOL2 file generated by ConQuest
# Please check atom types

@<TRIPOS>MOLECULE
VODVUG
   118   120     2
SMALL
NO_CHARGES
****
Generated from CSD

@<TRIPOS>ATOM
      1 O1         9.4731   -1.0899   14.2002 O.3       1 RES1    0.0000
      2 O2         9.8940    2.6089   12.1941 O.3       1 RES1    0.0000
      3 O3         5.9423    0.4479   12.5840 O.2       1 RES1    0.0000
      4 O4         8.8608   -2.1105   16.1121 O.2       1 RES1    0.0000
      5 O5        12.8834   -7.3946   14.2015 O.2       1 RES1    0.0000
      6 O6        13.5704   -6.2532   12.4916 O.2       1 RES1    0.0000
      7 N1         8.1436    0.2150   12.0782 N.am      1 RES1    0.0000
      8 N2        12.8728   -6.3909   13.4913 N.pl3     1 RES1    0.0000
      9 C1         6.8194   -0.0168   11.8398 C.2       1 RES1    0.0000
     10 C2         6.4641   -0.8581   10.6584 C.3       1 RES1    0.0000
     11 H1         5.4887   -1.0275   10.6769 H         1 RES1    0.0000
     12 H2         6.9195   -1.7330   10.7499 H         1 RES1    0.0000
     13 C3         6.8313   -0.2556    9.2882 C.3       1 RES1    0.0000
     14 H3         6.2232   -0.6351    8.6037 H         1 RES1    0.0000
     15 H4         6.6720    0.7203    9.3212 H         1 RES1    0.0000
     16 C4         8.2752   -0.4994    8.8444 C.3       1 RES1    0.0000
     17 H5         8.4134   -1.4882    8.8958 H         1 RES1    0.0000
     18 C5         9.2769    0.1130    9.8127 C.3       1 RES1    0.0000
     19 H6         9.1373    1.0929    9.8324 H         1 RES1    0.0000
     20 H7        10.1903   -0.0505    9.4673 H         1 RES1    0.0000
     21 C6         9.1939   -0.4231   11.2515 C.3       1 RES1    0.0000
     22 H8         9.0241   -1.3981   11.2166 H         1 RES1    0.0000
     23 H9        10.0706   -0.2883   11.6928 H         1 RES1    0.0000
     24 C7         8.4884    0.9096   13.3288 C.3       1 RES1    0.0000
     25 H10        7.7606    1.5715   13.5056 H         1 RES1    0.0000
     26 C8         8.4963   -0.0604   14.4996 C.3       1 RES1    0.0000
     27 H11        8.7425    0.4122   15.3343 H         1 RES1    0.0000
     28 H12        7.6000   -0.4627   14.6168 H         1 RES1    0.0000
     29 C9         9.4967   -2.1065   15.0863 C.2       1 RES1    0.0000
     30 C10       10.4128   -3.1935   14.6403 C.ar      1 RES1    0.0000
     31 C11       10.5984   -4.2606   15.5095 C.ar      1 RES1    0.0000
     32 H13       10.1851   -4.2596   16.3629 H         1 RES1    0.0000
     33 C12       11.3934   -5.3268   15.1200 C.ar      1 RES1    0.0000
     34 H14       11.5171   -6.0738   15.6930 H         1 RES1    0.0000
     35 C13       11.9962   -5.2822   13.8885 C.ar      1 RES1    0.0000
     36 C14       11.8462   -4.2259   13.0322 C.ar      1 RES1    0.0000
     37 H15       12.2924   -4.2210   12.1944 H         1 RES1    0.0000
     38 C15       11.0433   -3.1747   13.3945 C.ar      1 RES1    0.0000
     39 H16       10.9182   -2.4404   12.8040 H         1 RES1    0.0000
     40 C16        8.5003   -0.1120    7.3414 C.3       1 RES1    0.0000
     41 C17        8.0462    1.3228    7.0674 C.3       1 RES1    0.0000
     42 H17        8.3042    1.5784    6.1559 H         1 RES1    0.0000
     43 H18        8.4713    1.9282    7.7084 H         1 RES1    0.0000
     44 H19        7.0722    1.3802    7.1592 H         1 RES1    0.0000
     45 C18        9.9666   -0.2309    6.9633 C.3       1 RES1    0.0000
     46 H20       10.0627   -0.1288    5.9940 H         1 RES1    0.0000
     47 H21       10.3022   -1.1107    7.2354 H         1 RES1    0.0000
     48 H22       10.4786    0.4687    7.4195 H         1 RES1    0.0000
     49 C19        7.7158   -1.0751    6.4474 C.3       1 RES1    0.0000
     50 H23        7.9053   -0.8749    5.5083 H         1 RES1    0.0000
     51 H24        6.7563   -0.9700    6.6163 H         1 RES1    0.0000
     52 H25        7.9843   -1.9965    6.6449 H         1 RES1    0.0000
     53 C20        9.7968    1.6904   13.2815 C.3       1 RES1    0.0000
     54 H26        9.8968    2.1917   14.1310 H         1 RES1    0.0000
     55 H27       10.5470    1.0483   13.2230 H         1 RES1    0.0000
     56 C21        8.8820    3.6136   12.2481 C.3       1 RES1    0.0000
     57 H28        9.1215    4.3508   11.6483 H         1 RES1    0.0000
     58 H29        8.8043    3.9515   13.1659 H         1 RES1    0.0000
     59 H30        8.0251    3.2301   11.9690 H         1 RES1    0.0000
     60 O7        -0.1141    3.8573    1.6382 O.3       2 RES2    0.0000
     61 O8         0.3227    7.4888    3.7428 O.3       2 RES2    0.0000
     62 O9        -3.6568    5.4120    3.2072 O.2       2 RES2    0.0000
     63 O10       -0.7134    2.8457   -0.2727 O.2       2 RES2    0.0000
     64 O11        3.3182   -2.4454    1.6236 O.2       2 RES2    0.0000
     65 O12        4.0106   -1.3059    3.3259 O.2       2 RES2    0.0000
     66 N3        -1.4768    5.1524    3.7717 N.am      2 RES2    0.0000
     67 N4         3.3222   -1.4446    2.3259 N.pl3     2 RES2    0.0000
     68 C22       -2.8102    4.9294    3.9628 C.2       2 RES2    0.0000
     69 C23       -3.2037    4.1120    5.1562 C.3       2 RES2    0.0000
     70 H31       -2.7681    3.2262    5.0892 H         2 RES2    0.0000
     71 H32       -4.1830    3.9653    5.1273 H         2 RES2    0.0000
     72 C24       -2.8431    4.7293    6.5128 C.3       2 RES2    0.0000
     73 H33       -2.9550    5.7112    6.4512 H         2 RES2    0.0000
     74 H34       -3.4841    4.3973    7.1909 H         2 RES2    0.0000
     75 C25       -1.4202    4.4310    6.9988 C.3       2 RES2    0.0000
     76 H35       -1.3149    3.4372    6.9528 H         2 RES2    0.0000
     77 C26       -0.3738    5.0156    6.0309 C.3       2 RES2    0.0000
     78 H36       -0.4738    6.0005    6.0162 H         2 RES2    0.0000
     79 H37        0.5291    4.8135    6.3845 H         2 RES2    0.0000
     80 C27       -0.4581    4.5004    4.5962 C.3       2 RES2    0.0000
     81 H38        0.4238    4.6223    4.1653 H         2 RES2    0.0000
     82 H39       -0.6476    3.5284    4.6193 H         2 RES2    0.0000
     83 C28       -1.0938    5.8499    2.5332 C.3       2 RES2    0.0000
     84 H40       -1.8085    6.5247    2.3525 H         2 RES2    0.0000
     85 C29       -1.0859    4.9047    1.3633 C.3       2 RES2    0.0000
     86 H41       -1.9862    4.5103    1.2382 H         2 RES2    0.0000
     87 H42       -0.8398    5.3892    0.5365 H         2 RES2    0.0000
     88 C30       -0.0803    2.8606    0.7531 C.2       2 RES2    0.0000
     89 C31        0.8292    1.7607    1.1852 C.ar      2 RES2    0.0000
     90 C32        1.0293    0.6827    0.3232 C.ar      2 RES2    0.0000
     91 H43        0.6226    0.6876   -0.5365 H         2 RES2    0.0000
     92 C33        1.8046   -0.3825    0.7004 C.ar      2 RES2    0.0000
     93 H44        1.9033   -1.1405    0.1365 H         2 RES2    0.0000
     94 C34        2.4377   -0.3240    1.9220 C.ar      2 RES2    0.0000
     95 C35        2.2995    0.7421    2.7894 C.ar      2 RES2    0.0000
     96 H45        2.7549    0.7530    3.6224 H         2 RES2    0.0000
     97 C36        1.4808    1.7944    2.4151 C.ar      2 RES2    0.0000
     98 H46        1.3649    2.5375    2.9970 H         2 RES2    0.0000
     99 C37       -1.2109    4.8175    8.4827 C.3       2 RES2    0.0000
    100 C38       -1.6084    6.2651    8.7796 C.3       2 RES2    0.0000
    101 H47       -2.5798    6.3612    8.6926 H         2 RES2    0.0000
    102 H48       -1.1622    6.8635    8.1434 H         2 RES2    0.0000
    103 H49       -1.3373    6.4979    9.6927 H         2 RES2    0.0000
    104 C39        0.2646    4.6282    8.8853 C.3       2 RES2    0.0000
    105 H50        0.8095    5.3258    8.4672 H         2 RES2    0.0000
    106 H51        0.5739    3.7474    8.5847 H         2 RES2    0.0000
    107 H52        0.3475    4.6887    9.8609 H         2 RES2    0.0000
    108 C40       -2.0454    3.8742    9.3704 C.3       2 RES2    0.0000
    109 H53       -2.9984    4.0228    9.1974 H         2 RES2    0.0000
    110 H54       -1.8506    4.0555   10.3149 H         2 RES2    0.0000
    111 H55       -1.8177    2.9438    9.1625 H         2 RES2    0.0000
    112 C41        0.2172    6.6178    2.6271 C.3       2 RES2    0.0000
    113 H56        0.9622    5.9668    2.6668 H         2 RES2    0.0000
    114 H57        0.3304    7.1509    1.8001 H         2 RES2    0.0000
    115 C42       -0.6621    8.5083    3.7396 C.3       2 RES2    0.0000
    116 H58       -0.4738    9.1464    4.4606 H         2 RES2    0.0000
    117 H59       -1.5453    8.1090    3.8796 H         2 RES2    0.0000
    118 H60       -0.6463    8.9750    2.8764 H         2 RES2    0.0000
@<TRIPOS>BOND
     1    1   26 1
     2    2   53 1
     3    3    9 2
     4    4   29 2
     5    5    8 2
     6    6    8 2
     7    7    9 1
     8    8   35 1
     9    9   10 1
    10   10   11 1
    11   12   10 1
    12   13   10 1
    13   14   13 1
    14   15   13 1
    15   16   13 1
    16   17   16 1
    17   18   16 1
    18   19   18 1
    19   20   18 1
    20   21    7 1
    21   22   21 1
    22   23   21 1
    23   24    7 1
    24   25   24 1
    25   26   24 1
    26   27   26 1
    27   28   26 1
    28   29    1 1
    29   30   29 1
    30   31   30 ar
    31   32   31 1
    32   33   31 ar
    33   34   33 1
    34   35   33 ar
    35   36   35 ar
    36   37   36 1
    37   38   30 ar
    38   39   38 1
    39   40   16 1
    40   41   40 1
    41   42   41 1
    42   43   41 1
    43   44   41 1
    44   45   40 1
    45   46   45 1
    46   47   45 1
    47   48   45 1
    48   49   40 1
    49   50   49 1
    50   51   49 1
    51   52   49 1
    52   53   24 1
    53   54   53 1
    54   55   53 1
    55   56    2 1
    56   57   56 1
    57   58   56 1
    58   59   56 1
    59   60   85 1
    60   61  112 1
    61   62   68 2
    62   63   88 2
    63   64   67 2
    64   65   67 2
    65   66   68 1
    66   67   94 1
    67   68   69 1
    68   69   70 1
    69   71   69 1
    70   72   69 1
    71   73   72 1
    72   74   72 1
    73   75   72 1
    74   76   75 1
    75   77   75 1
    76   78   77 1
    77   79   77 1
    78   80   66 1
    79   81   80 1
    80   82   80 1
    81   83   66 1
    82   84   83 1
    83   85   83 1
    84   86   85 1
    85   87   85 1
    86   88   60 1
    87   89   88 1
    88   90   89 ar
    89   91   90 1
    90   92   90 ar
    91   93   92 1
    92   94   92 ar
    93   95   94 ar
    94   96   95 1
    95   97   89 ar
    96   98   97 1
    97   99   75 1
    98  100   99 1
    99  101  100 1
   100  102  100 1
   101  103  100 1
   102  104   99 1
   103  105  104 1
   104  106  104 1
   105  107  104 1
   106  108   99 1
   107  109  108 1
   108  110  108 1
   109  111  108 1
   110  112   83 1
   111  113  112 1
   112  114  112 1
   113  115   61 1
   114  116  115 1
   115  117  115 1
   116  118  115 1
   117   18   21 1
   118   36   38 ar
   119   77   80 1
   120   95   97 ar
@<TRIPOS>SUBSTRUCTURE
     1 RES1 1
     2 RES2 60

@<TRIPOS>CRYSIN
  13.1624    9.9084   31.7480  90.0000  90.0000  90.0000  29 1

