# MOL2 file generated by ConQuest
# Please check atom types

@<TRIPOS>MOLECULE
VOFDIF
    37    38     1
SMALL
NO_CHARGES
****
Generated from CSD

@<TRIPOS>ATOM
      1 C1         1.8145    5.8760    9.4474 C.ar      1 RES1    0.0000
      2 C2         0.7745    5.1614   10.0172 C.ar      1 RES1    0.0000
      3 H1         0.3629    5.4703   10.7932 H         1 RES1    0.0000
      4 C3         0.3581    4.0018    9.4349 C.ar      1 RES1    0.0000
      5 H2        -0.3281    3.5084    9.8250 H         1 RES1    0.0000
      6 C4         0.9550    3.5542    8.2648 C.ar      1 RES1    0.0000
      7 C5         2.0253    4.2688    7.7240 C.ar      1 RES1    0.0000
      8 H3         2.4510    3.9618    6.9572 H         1 RES1    0.0000
      9 C6         2.4466    5.4258    8.3284 C.ar      1 RES1    0.0000
     10 H4         3.1632    5.9018    7.9762 H         1 RES1    0.0000
     11 C7         0.9372    1.6742    6.6474 C.2       1 RES1    0.0000
     12 C8         0.4527    0.0684    4.9051 C.3       1 RES1    0.0000
     13 H5         1.3811   -0.1909    5.0116 H         1 RES1    0.0000
     14 H6         0.3836    0.5966    4.0941 H         1 RES1    0.0000
     15 C9        -0.3803   -1.1589    4.7576 C.3       1 RES1    0.0000
     16 H7        -1.3165   -0.9048    4.7396 H         1 RES1    0.0000
     17 H8        -0.2418   -1.7291    5.5280 H         1 RES1    0.0000
     18 C10       -0.0656   -1.9341    3.5178 C.ar      1 RES1    0.0000
     19 C11        0.9087   -2.9138    3.5137 C.ar      1 RES1    0.0000
     20 H9         1.3715   -3.0924    4.3016 H         1 RES1    0.0000
     21 C12        1.2132   -3.6290    2.3887 C.ar      1 RES1    0.0000
     22 H10        1.8922   -4.2643    2.4159 H         1 RES1    0.0000
     23 C13        0.5352   -3.4207    1.2324 C.ar      1 RES1    0.0000
     24 C14       -0.4348   -2.4417    1.1904 C.ar      1 RES1    0.0000
     25 H11       -0.9010   -2.2714    0.4057 H         1 RES1    0.0000
     26 C15       -0.7017   -1.7207    2.3297 C.ar      1 RES1    0.0000
     27 H12       -1.3488   -1.0538    2.2868 H         1 RES1    0.0000
     28 N1         2.2314    7.1233   10.0656 N.pl3     1 RES1    0.0000
     29 N2         0.4247    2.4114    7.6650 N.am      1 RES1    0.0000
     30 N3         0.0594    0.8797    6.0287 N.am      1 RES1    0.0000
     31 O1         3.2274    7.6831    9.5981 O.2       1 RES1    0.0000
     32 O2         1.6123    7.5799   10.9974 O.2       1 RES1    0.0000
     33 H13       -0.2268    2.1347    7.9485 H         1 RES1    0.0000
     34 O3         2.1190    1.7303    6.3302 O.2       1 RES1    0.0000
     35 H14       -0.7769    1.0835    6.1688 H         1 RES1    0.0000
     36 O4         0.7403   -4.1269    0.0816 O.3       1 RES1    0.0000
     37 H15        1.4525   -4.6757    0.1844 H         1 RES1    0.0000
@<TRIPOS>BOND
     1    1    2 ar
     2    2    3 1
     3    4    2 ar
     4    5    4 1
     5    6    4 ar
     6    7    6 ar
     7    8    7 1
     8    9    1 ar
     9   10    9 1
    10   11   29 1
    11   12   13 1
    12   14   12 1
    13   15   12 1
    14   16   15 1
    15   17   15 1
    16   18   15 1
    17   19   18 ar
    18   20   19 1
    19   21   19 ar
    20   22   21 1
    21   23   21 ar
    22   24   23 ar
    23   25   24 1
    24   26   18 ar
    25   27   26 1
    26   28    1 1
    27   29    6 1
    28   30   11 1
    29   31   28 2
    30   32   28 2
    31   33   29 1
    32   34   11 2
    33   35   30 1
    34   36   23 1
    35   37   36 1
    36    7    9 ar
    37   12   30 1
    38   24   26 ar
@<TRIPOS>SUBSTRUCTURE
     1 RES1 1

@<TRIPOS>CRYSIN
   4.8257    6.4493   46.1050  90.0000  90.0000  90.0000  19 1

