# MOL2 file generated by ConQuest
# Please check atom types

@<TRIPOS>MOLECULE
VOGCOL
    51    53     1
SMALL
NO_CHARGES
****
Generated from CSD

@<TRIPOS>ATOM
      1 C1         3.6359   19.6652    9.8376 C.3       1 RES1    0.0000
      2 H1         3.1240   18.8429    9.9889 H         1 RES1    0.0000
      3 H2         3.4365   20.3087   10.5495 H         1 RES1    0.0000
      4 H3         4.5940   19.4596    9.8428 H         1 RES1    0.0000
      5 C2         3.2602   20.2480    8.5204 C.3       1 RES1    0.0000
      6 H4         2.2838   20.4060    8.4811 H         1 RES1    0.0000
      7 H5         3.7261   21.1104    8.3805 H         1 RES1    0.0000
      8 C3         3.2543   19.5331    6.2706 C.2       1 RES1    0.0000
      9 C4         3.6893   18.4799    5.3157 C.2       1 RES1    0.0000
     10 C5         3.9077   17.2271    3.5413 C.2       1 RES1    0.0000
     11 C6         3.2722   18.3251    3.9817 C.2       1 RES1    0.0000
     12 H6         2.6707   18.8784    3.4965 H         1 RES1    0.0000
     13 C7         3.9291   16.4590    2.2756 C.3       1 RES1    0.0000
     14 H7         4.8075   16.5800    1.8353 H         1 RES1    0.0000
     15 H8         3.2323   16.8148    1.6684 H         1 RES1    0.0000
     16 C8         3.6835   14.9713    2.5008 C.3       1 RES1    0.0000
     17 H9         4.3701   14.6208    3.1224 H         1 RES1    0.0000
     18 H10        2.7987   14.8508    2.9275 H         1 RES1    0.0000
     19 C9         3.7263   14.1760    1.2270 C.3       1 RES1    0.0000
     20 H11        4.5696   14.3598    0.7410 H         1 RES1    0.0000
     21 H12        3.6883   13.2071    1.4311 H         1 RES1    0.0000
     22 C10        2.6054   13.9293   -0.8232 C.ar      1 RES1    0.0000
     23 C11        2.1062   12.6340   -0.9476 C.ar      1 RES1    0.0000
     24 C12        2.0793   12.0664   -2.2247 C.ar      1 RES1    0.0000
     25 H13        1.7099   11.1980   -2.3420 H         1 RES1    0.0000
     26 C13        2.5816   12.7453   -3.3207 C.ar      1 RES1    0.0000
     27 C14        3.1039   14.0282   -3.1556 C.ar      1 RES1    0.0000
     28 H14        3.4624   14.4879   -3.9058 H         1 RES1    0.0000
     29 C15        3.1074   14.6421   -1.9161 C.ar      1 RES1    0.0000
     30 C16        3.6568   16.0366   -1.7327 C.3       1 RES1    0.0000
     31 H15        2.9663   16.6108   -1.3420 H         1 RES1    0.0000
     32 H16        3.9276   16.3974   -2.6021 H         1 RES1    0.0000
     33 H17        4.4333   16.0060   -1.1358 H         1 RES1    0.0000
     34 C17        1.6649   11.8548    0.2604 C.3       1 RES1    0.0000
     35 H18        1.0844   11.1174   -0.0207 H         1 RES1    0.0000
     36 H19        1.1710   12.4457    0.8674 H         1 RES1    0.0000
     37 H20        2.4506   11.4945    0.7223 H         1 RES1    0.0000
     38 C18        2.5930   12.1202   -4.6531 C.2       1 RES1    0.0000
     39 C19        2.3797   10.7187   -6.1829 C.2       1 RES1    0.0000
     40 C20        2.1320    9.5640   -7.0864 C.3       1 RES1    0.0000
     41 H21        2.2347    8.7288   -6.5846 H         1 RES1    0.0000
     42 H22        2.7763    9.5827   -7.8251 H         1 RES1    0.0000
     43 H23        1.2218    9.6207   -7.4448 H         1 RES1    0.0000
     44 N1         4.5274   17.5435    5.6862 N.2       1 RES1    0.0000
     45 N2         3.0591   12.7557   -5.6913 N.2       1 RES1    0.0000
     46 N3         2.1592   10.8410   -4.9163 N.2       1 RES1    0.0000
     47 O1         3.6590   19.2864    7.5041 O.3       1 RES1    0.0000
     48 O2         2.5856   20.4738    5.9261 O.2       1 RES1    0.0000
     49 O3         4.6772   16.7377    4.5496 O.3       1 RES1    0.0000
     50 O4         2.5978   14.5532    0.4146 O.3       1 RES1    0.0000
     51 O5         2.9177   11.8098   -6.7399 O.3       1 RES1    0.0000
@<TRIPOS>BOND
     1    1    2 1
     2    3    1 1
     3    4    1 1
     4    5    1 1
     5    6    5 1
     6    7    5 1
     7    8    9 1
     8    9   11 1
     9   10   11 2
    10   11   12 1
    11   13   10 1
    12   14   13 1
    13   15   13 1
    14   16   13 1
    15   17   16 1
    16   18   16 1
    17   19   16 1
    18   20   19 1
    19   21   19 1
    20   22   23 ar
    21   23   24 ar
    22   24   25 1
    23   26   24 ar
    24   27   26 ar
    25   28   27 1
    26   29   22 ar
    27   30   29 1
    28   31   30 1
    29   32   30 1
    30   33   30 1
    31   34   23 1
    32   35   34 1
    33   36   34 1
    34   37   34 1
    35   38   26 1
    36   39   40 1
    37   40   41 1
    38   42   40 1
    39   43   40 1
    40   44    9 2
    41   45   38 2
    42   46   38 1
    43   47    5 1
    44   48    8 2
    45   49   10 1
    46   50   19 1
    47   51   39 1
    48    8   47 1
    49   22   50 1
    50   27   29 ar
    51   39   46 2
    52   44   49 1
    53   45   51 1
@<TRIPOS>SUBSTRUCTURE
     1 RES1 1

@<TRIPOS>CRYSIN
   7.8644   23.7196   10.4242  90.0000  96.2130  90.0000 231 1

