# MOL2 file generated by ConQuest
# Please check atom types

@<TRIPOS>MOLECULE
VOGWEU
    99    77     2
SMALL
NO_CHARGES
****
Generated from CSD

@<TRIPOS>ATOM
      1 O1        -5.9204    6.0825    3.2830 O.2       1 RES1    0.0000
      2 O2        -4.0749    7.1665    3.5709 O.2       1 RES1    0.0000
      3 O3         4.9656    0.2618    3.6086 O.2       1 RES1    0.0000
      4 O4         4.3228   -1.8020    3.6195 O.2       1 RES1    0.0000
      5 N1        -4.9312    6.6634    2.8637 N.pl3     1 RES1    0.0000
      6 N2        -2.4077    6.2145    1.5450 N.pl3     1 RES1    0.0000
      7 N3        -2.4189    4.9299    1.9807 N.2       1 RES1    0.0000
      8 N4         0.3622    3.3737    3.6803 N.ar      1 RES1    0.0000
      9 N5         2.4816    0.9593    5.3125 N.2       1 RES1    0.0000
     10 N6         3.6920    1.2640    5.8617 N.pl3     1 RES1    0.0000
     11 N7         4.6994   -0.7871    4.1797 N.pl3     1 RES1    0.0000
     12 C1         1.0629   10.4712    0.2403 Du        2 SUP2    0.0000
     13 H1         1.8407    9.8791    0.3161 Du        2 SUP2    0.0000
     14 H2         1.3668   11.3924    0.1015 Du        2 SUP2    0.0000
     15 H3         0.5121   10.1904   -0.5206 Du        2 SUP2    0.0000
     16 C2         0.2520   10.3959    1.4988 Du        2 SUP2    0.0000
     17 H4        -0.6178   10.8412    1.3372 Du        2 SUP2    0.0000
     18 H5         0.7206   10.9095    2.2038 Du        2 SUP2    0.0000
     19 C3        -0.0143    9.0040    2.0208 Du        2 SUP2    0.0000
     20 H6        -0.3793    9.0688    2.9389 Du        2 SUP2    0.0000
     21 H7         0.8417    8.5100    2.0694 Du        2 SUP2    0.0000
     22 C4        -0.9916    8.2164    1.1541 Du        2 SUP2    0.0000
     23 H8        -0.6079    8.0738    0.2531 Du        2 SUP2    0.0000
     24 H9        -1.8392    8.7185    1.0569 Du        2 SUP2    0.0000
     25 C5         1.4263   10.5913   -0.1773 C.3       1 RES1    0.0000
     26 H10        2.2556   10.3661    0.2946 H         1 RES1    0.0000
     27 H11        1.4023   11.5559   -0.3504 H         1 RES1    0.0000
     28 H12        1.3917   10.1058   -1.0268 H         1 RES1    0.0000
     29 C6         0.2574   10.2084    0.6621 C.3       1 RES1    0.0000
     30 H13       -0.5561   10.5866    0.2446 H         1 RES1    0.0000
     31 H14        0.3611   10.6405    1.5474 H         1 RES1    0.0000
     32 C7         0.0248    8.7343    0.8852 C.3       1 RES1    0.0000
     33 H15       -0.1622    8.3147    0.0086 H         1 RES1    0.0000
     34 H16        0.8645    8.3373    1.2299 H         1 RES1    0.0000
     35 C8        -1.0776    8.3683    1.8191 C.3       1 RES1    0.0000
     36 H17       -1.9191    8.8027    1.5288 H         1 RES1    0.0000
     37 H18       -0.8634    8.6885    2.7315 H         1 RES1    0.0000
     38 C9        -1.2565    6.8645    1.8338 C.2       1 RES1    0.0000
     39 C10       -0.4720    5.9521    2.4886 C.2       1 RES1    0.0000
     40 H19        0.4054    6.0902    2.8259 H         1 RES1    0.0000
     41 C11       -1.2265    4.7729    2.5608 C.2       1 RES1    0.0000
     42 C12       -0.8550    3.4638    3.1195 C.ar      1 RES1    0.0000
     43 C13       -1.7189    2.3807    3.0359 C.ar      1 RES1    0.0000
     44 H20       -2.5836    2.4822    2.6557 H         1 RES1    0.0000
     45 C14       -1.3068    1.1554    3.5124 C.ar      1 RES1    0.0000
     46 H21       -1.8782    0.3981    3.4566 H         1 RES1    0.0000
     47 C15       -0.0558    1.0442    4.0688 C.ar      1 RES1    0.0000
     48 H22        0.2580    0.2070    4.3891 H         1 RES1    0.0000
     49 C16        0.7429    2.1773    4.1555 C.ar      1 RES1    0.0000
     50 C17        2.0670    2.1153    4.7964 C.2       1 RES1    0.0000
     51 C18        3.0107    3.1344    4.9939 C.2       1 RES1    0.0000
     52 H23        2.9441    4.0392    4.7123 H         1 RES1    0.0000
     53 C19        4.0486    2.5543    5.6760 C.2       1 RES1    0.0000
     54 C20        5.4144    3.1062    6.0294 Du        2 SUP2    0.0000
     55 H24        5.5434    3.0111    7.0062 Du        2 SUP2    0.0000
     56 H25        6.0990    2.5462    5.5846 Du        2 SUP2    0.0000
     57 C21        5.6619    4.5223    5.6633 Du        2 SUP2    0.0000
     58 H26        5.0661    5.0909    6.2125 Du        2 SUP2    0.0000
     59 H27        5.3954    4.6466    4.7180 Du        2 SUP2    0.0000
     60 C22        7.1042    5.0447    5.8249 Du        2 SUP2    0.0000
     61 H28        7.7677    4.3247    5.6833 Du        2 SUP2    0.0000
     62 H29        7.2911    5.7903    5.2014 Du        2 SUP2    0.0000
     63 C23        7.0958    5.5170    7.2650 Du        2 SUP2    0.0000
     64 H30        6.2775    6.0267    7.4367 Du        2 SUP2    0.0000
     65 H31        7.8769    6.0869    7.4252 Du        2 SUP2    0.0000
     66 H32        7.1294    4.7405    7.8628 Du        2 SUP2    0.0000
     67 C24        5.3263    3.0524    6.2425 C.3       1 RES1    0.0000
     68 H33        5.2392    3.1243    7.2264 H         1 RES1    0.0000
     69 H34        6.0448    2.3996    6.0480 H         1 RES1    0.0000
     70 C25        5.7073    4.3714    5.6919 C.3       1 RES1    0.0000
     71 H35        4.9633    5.0166    5.8006 H         1 RES1    0.0000
     72 H36        5.9177    4.2925    4.7280 H         1 RES1    0.0000
     73 C26        6.9462    4.8500    6.4713 C.3       1 RES1    0.0000
     74 H37        6.8969    4.5082    7.3995 H         1 RES1    0.0000
     75 H38        7.7590    4.4707    6.0523 H         1 RES1    0.0000
     76 C27        7.0591    6.3317    6.5028 C.3       1 RES1    0.0000
     77 H39        7.0986    6.6755    5.5861 H         1 RES1    0.0000
     78 H40        7.8752    6.5872    6.9819 H         1 RES1    0.0000
     79 H41        6.2798    6.7092    6.9604 H         1 RES1    0.0000
     80 C28        4.4524    0.2037    6.4194 C.ar      1 RES1    0.0000
     81 C29        4.8789   -0.8529    5.6364 C.ar      1 RES1    0.0000
     82 C30        5.4800   -1.9629    6.1717 C.ar      1 RES1    0.0000
     83 H42        5.7416   -2.6850    5.6132 H         1 RES1    0.0000
     84 C31        5.6975   -2.0140    7.5360 C.ar      1 RES1    0.0000
     85 H43        6.1036   -2.7788    7.9258 H         1 RES1    0.0000
     86 C32        5.3250   -0.9533    8.3232 C.ar      1 RES1    0.0000
     87 H44        5.5015   -0.9807    9.2558 H         1 RES1    0.0000
     88 C33        4.6988    0.1502    7.7847 C.ar      1 RES1    0.0000
     89 H45        4.4368    0.8714    8.3462 H         1 RES1    0.0000
     90 C34       -3.5399    6.6780    0.8195 C.ar      1 RES1    0.0000
     91 C35       -4.7870    6.8047    1.4157 C.ar      1 RES1    0.0000
     92 C36       -5.9113    7.1022    0.6849 C.ar      1 RES1    0.0000
     93 H46       -6.7625    7.1502    1.1041 H         1 RES1    0.0000
     94 C37       -5.7825    7.3298   -0.6666 C.ar      1 RES1    0.0000
     95 H47       -6.5491    7.5423   -1.1856 H         1 RES1    0.0000
     96 C38       -4.5473    7.2518   -1.2705 C.ar      1 RES1    0.0000
     97 H48       -4.4614    7.4404   -2.1981 H         1 RES1    0.0000
     98 C39       -3.4365    6.9016   -0.5379 C.ar      1 RES1    0.0000
     99 H49       -2.5947    6.8138   -0.9682 H         1 RES1    0.0000
@<TRIPOS>BOND
     1    1    5 2
     2    2    5 2
     3    3   11 2
     4    4   11 2
     5    5   91 1
     6    6    7 1
     7    7   41 2
     8    8   42 ar
     9    9   10 1
    10   10   53 1
    11   11   81 1
    12   25   26 1
    13   27   25 1
    14   28   25 1
    15   29   25 1
    16   30   29 1
    17   31   29 1
    18   32   29 1
    19   33   32 1
    20   34   32 1
    21   35   32 1
    22   36   35 1
    23   37   35 1
    24   38    6 1
    25   39   38 2
    26   40   39 1
    27   41   39 1
    28   42   41 1
    29   43   42 ar
    30   44   43 1
    31   45   43 ar
    32   46   45 1
    33   47   45 ar
    34   48   47 1
    35   49    8 ar
    36   50    9 2
    37   51   50 1
    38   52   51 1
    39   53   51 2
    40   67   53 1
    41   68   67 1
    42   69   67 1
    43   70   67 1
    44   71   70 1
    45   72   70 1
    46   73   70 1
    47   74   73 1
    48   75   73 1
    49   76   73 1
    50   77   76 1
    51   78   76 1
    52   79   76 1
    53   80   10 1
    54   81   80 ar
    55   82   81 ar
    56   83   82 1
    57   84   82 ar
    58   85   84 1
    59   86   84 ar
    60   87   86 1
    61   88   80 ar
    62   89   88 1
    63   90    6 1
    64   91   90 ar
    65   92   91 ar
    66   93   92 1
    67   94   92 ar
    68   95   94 1
    69   96   94 ar
    70   97   96 1
    71   98   90 ar
    72   99   98 1
    73   35   38 1
    74   47   49 ar
    75   49   50 1
    76   86   88 ar
    77   96   98 ar
@<TRIPOS>SUBSTRUCTURE
     1 RES1 1
     2 SUP2 12

@<TRIPOS>CRYSIN
   9.5267   10.8174   15.0455 105.1790  97.3320  98.2900   2 1

