# MOL2 file generated by ConQuest
# Please check atom types

@<TRIPOS>MOLECULE
VOHYAT
    46    47     1
SMALL
NO_CHARGES
****
Generated from CSD

@<TRIPOS>ATOM
      1 O1         8.8356    8.2960   -0.7353 O.2       1 RES1    0.0000
      2 O2         7.9954    6.5485   -1.6966 O.2       1 RES1    0.0000
      3 O3         8.8118    2.2350   -0.0145 O.3       1 RES1    0.0000
      4 O4         9.5125    1.8391    2.0860 O.2       1 RES1    0.0000
      5 N1        10.5453    4.5366    4.7703 N.2       1 RES1    0.0000
      6 N2        10.0520    3.9608    3.6208 N.3       1 RES1    0.0000
      7 N3        13.1602    5.0057   10.6756 N.3       1 RES1    0.0000
      8 N4         8.5943    7.0863   -0.7645 N.pl3     1 RES1    0.0000
      9 C1        11.5359    5.3833    7.3840 C.ar      1 RES1    0.0000
     10 H1        11.2173    6.0646    6.8362 H         1 RES1    0.0000
     11 C2        12.0822    5.7013    8.6084 C.ar      1 RES1    0.0000
     12 H2        12.1232    6.5914    8.8737 H         1 RES1    0.0000
     13 C3        12.5815    4.6960    9.4686 C.ar      1 RES1    0.0000
     14 C4        12.4578    3.3591    9.0435 C.ar      1 RES1    0.0000
     15 H3        12.7526    2.6725    9.5964 H         1 RES1    0.0000
     16 C5        11.9029    3.0554    7.8150 C.ar      1 RES1    0.0000
     17 H4        11.8284    2.1648    7.5589 H         1 RES1    0.0000
     18 C6        11.4502    4.0558    6.9468 C.ar      1 RES1    0.0000
     19 C7        10.9153    3.6771    5.6524 C.2       1 RES1    0.0000
     20 H5        10.8368    2.7728    5.4517 H         1 RES1    0.0000
     21 C8         9.7341    4.7068    2.5445 C.ar      1 RES1    0.0000
     22 C9         9.2569    4.0968    1.3432 C.ar      1 RES1    0.0000
     23 C10        8.8826    4.9042    0.2759 C.ar      1 RES1    0.0000
     24 H6         8.5398    4.5190   -0.4977 H         1 RES1    0.0000
     25 C11        9.0173    6.2755    0.3567 C.ar      1 RES1    0.0000
     26 C12        9.5445    6.8864    1.4973 C.ar      1 RES1    0.0000
     27 H7         9.6626    7.8091    1.5239 H         1 RES1    0.0000
     28 C13        9.8859    6.1145    2.5741 C.ar      1 RES1    0.0000
     29 H8        10.2234    6.5214    3.3395 H         1 RES1    0.0000
     30 C14        9.2093    2.6262    1.2089 C.2       1 RES1    0.0000
     31 C15        8.7749    0.8005   -0.2538 C.3       1 RES1    0.0000
     32 H9         9.4764    0.3709    0.2608 H         1 RES1    0.0000
     33 H10        8.9441    0.6271   -1.1935 H         1 RES1    0.0000
     34 C16        7.4491    0.2142    0.1286 C.3       1 RES1    0.0000
     35 H11        7.4547   -0.7306   -0.0448 H         1 RES1    0.0000
     36 H12        6.7549    0.6303   -0.3872 H         1 RES1    0.0000
     37 H13        7.2894    0.3661    1.0631 H         1 RES1    0.0000
     38 C17       13.5269    3.9487   11.5995 C.3       1 RES1    0.0000
     39 H14       14.1579    3.3602   11.1780 H         1 RES1    0.0000
     40 H15       12.7424    3.4525   11.8469 H         1 RES1    0.0000
     41 H16       13.9234    4.3327   12.3844 H         1 RES1    0.0000
     42 C18       13.2375    6.3828   11.1129 C.3       1 RES1    0.0000
     43 H17       13.7200    6.8986   10.4624 H         1 RES1    0.0000
     44 H18       13.6935    6.4259   11.9564 H         1 RES1    0.0000
     45 H19       12.3507    6.7379   11.2099 H         1 RES1    0.0000
     46 H20       10.0330    3.0912    3.5256 H         1 RES1    0.0000
@<TRIPOS>BOND
     1    1    8 2
     2    2    8 2
     3    3   30 1
     4    4   30 2
     5    5    6 1
     6    6   21 1
     7    7   13 1
     8    8   25 1
     9    9   10 1
    10   11    9 ar
    11   12   11 1
    12   13   11 ar
    13   14   13 ar
    14   15   14 1
    15   16   14 ar
    16   17   16 1
    17   18    9 ar
    18   19    5 2
    19   20   19 1
    20   21   22 ar
    21   22   23 ar
    22   23   24 1
    23   25   23 ar
    24   26   25 ar
    25   27   26 1
    26   28   21 ar
    27   29   28 1
    28   30   22 1
    29   31    3 1
    30   32   31 1
    31   33   31 1
    32   34   31 1
    33   35   34 1
    34   36   34 1
    35   37   34 1
    36   38    7 1
    37   39   38 1
    38   40   38 1
    39   41   38 1
    40   42    7 1
    41   43   42 1
    42   44   42 1
    43   45   42 1
    44   46    6 1
    45   16   18 ar
    46   18   19 1
    47   26   28 ar
@<TRIPOS>SUBSTRUCTURE
     1 RES1 1

@<TRIPOS>CRYSIN
  10.8216   15.9175   10.4136  90.0000 107.0910  90.0000  14 1

