# MOL2 file generated by ConQuest
# Please check atom types

@<TRIPOS>MOLECULE
VOHZOI
    33    34     1
SMALL
NO_CHARGES
****
Generated from CSD

@<TRIPOS>ATOM
      1 O1         1.9485    9.7924    7.7227 O.2       1 RES1    0.0000
      2 O2         2.8809    7.8602    7.9675 O.2       1 RES1    0.0000
      3 O3         3.6640    5.0124    9.0794 O.2       1 RES1    0.0000
      4 O4         3.8475    3.1531   10.1599 O.2       1 RES1    0.0000
      5 O5         5.4227    2.9684   14.6127 O.2       1 RES1    0.0000
      6 O6         5.6404    4.7699   15.7647 O.2       1 RES1    0.0000
      7 N1         3.6249    8.6060   10.5386 N.2       1 RES1    0.0000
      8 N2         3.7421    7.2851   10.3424 N.3       1 RES1    0.0000
      9 N3         2.6269    8.9969    8.3447 N.pl3     1 RES1    0.0000
     10 N4         3.8901    4.3755   10.1066 N.pl3     1 RES1    0.0000
     11 N5         5.3550    4.1843   14.7302 N.pl3     1 RES1    0.0000
     12 C1         2.6513   11.1492   11.3434 C.ar      1 RES1    0.0000
     13 H1         2.4140   10.4654   11.9264 H         1 RES1    0.0000
     14 C2         2.6164   12.4586   11.7701 C.ar      1 RES1    0.0000
     15 H2         2.3533   12.6528   12.6420 H         1 RES1    0.0000
     16 C3         2.9668   13.4804   10.9220 C.ar      1 RES1    0.0000
     17 H3         2.9472   14.3620   11.2197 H         1 RES1    0.0000
     18 C4         3.3478   13.1918    9.6263 C.ar      1 RES1    0.0000
     19 H4         3.5851   13.8825    9.0494 H         1 RES1    0.0000
     20 C5         3.3792   11.8802    9.1778 C.ar      1 RES1    0.0000
     21 H5         3.6256   11.6938    8.3014 H         1 RES1    0.0000
     22 C6         3.0421   10.8451   10.0406 C.ar      1 RES1    0.0000
     23 C7         3.1503    9.4209    9.6760 C.2       1 RES1    0.0000
     24 C8         4.1372    6.5115   11.4029 C.ar      1 RES1    0.0000
     25 C9         4.4547    7.1087   12.6367 C.ar      1 RES1    0.0000
     26 H6         4.3933    8.0329   12.7274 H         1 RES1    0.0000
     27 C10        4.8525    6.3555   13.7077 C.ar      1 RES1    0.0000
     28 H7         5.0744    6.7655   14.5120 H         1 RES1    0.0000
     29 C11        4.9216    4.9839   13.5861 C.ar      1 RES1    0.0000
     30 C12        4.6027    4.3510   12.4144 C.ar      1 RES1    0.0000
     31 H8         4.6438    3.4238   12.3505 H         1 RES1    0.0000
     32 C13        4.2209    5.1130   11.3325 C.ar      1 RES1    0.0000
     33 H9         3.5453    6.9109    9.5529 H         1 RES1    0.0000
@<TRIPOS>BOND
     1    1    9 2
     2    2    9 2
     3    3   10 2
     4    4   10 2
     5    5   11 2
     6    6   11 2
     7    7    8 1
     8    8   24 1
     9    9   23 1
    10   10   32 1
    11   11   29 1
    12   12   13 1
    13   14   12 ar
    14   15   14 1
    15   16   14 ar
    16   17   16 1
    17   18   16 ar
    18   19   18 1
    19   20   18 ar
    20   21   20 1
    21   22   12 ar
    22   23    7 2
    23   24   25 ar
    24   25   26 1
    25   27   25 ar
    26   28   27 1
    27   29   27 ar
    28   30   29 ar
    29   31   30 1
    30   32   24 ar
    31   33    8 1
    32   20   22 ar
    33   22   23 1
    34   30   32 ar
@<TRIPOS>SUBSTRUCTURE
     1 RES1 1

@<TRIPOS>CRYSIN
   6.9790   13.4690   29.4480  90.0000  90.0000  90.0000  61 1

