# MOL2 file generated by ConQuest
# Please check atom types

@<TRIPOS>MOLECULE
VOJLUC
    41    42     1
SMALL
USER_CHARGES
****
Generated from CSD

@<TRIPOS>ATOM
      1 N1         1.6218    7.2873   15.3191 N.pl3     1 RES1    1.0000
      2 O1         2.3845    7.8582   16.1963 O.2       1 RES1   -1.0000
      3 O2         2.1781    4.7153   16.2159 O.3       1 RES1    0.0000
      4 O3         0.3471    3.3551   16.3095 O.3       1 RES1    0.0000
      5 C1        -1.3508    9.2849   15.2997 C.2       1 RES1    0.0000
      6 H1        -0.7743    9.8746   15.7309 H         1 RES1    0.0000
      7 H2        -1.9400    9.5995   14.6539 H         1 RES1    0.0000
      8 C2        -1.3335    8.0964   15.5848 C.2       1 RES1    0.0000
      9 H3        -1.9371    7.5669   15.1149 H         1 RES1    0.0000
     10 C3        -0.4840    7.3691   16.5775 C.3       1 RES1    0.0000
     11 H4        -1.0548    6.8432   17.1598 H         1 RES1    0.0000
     12 H5        -0.0135    8.0155   17.1264 H         1 RES1    0.0000
     13 C4         0.5293    6.4503   15.9067 C.3       1 RES1    0.0000
     14 H6         0.0810    5.9658   15.1818 H         1 RES1    0.0000
     15 C5         1.1426    5.4407   16.8613 C.3       1 RES1    0.0000
     16 H7         1.4993    5.9010   17.6490 H         1 RES1    0.0000
     17 C6         0.1842    4.3503   17.2944 C.3       1 RES1    0.0000
     18 H8         0.4165    4.0113   18.1735 H         1 RES1    0.0000
     19 H9        -0.7289    4.6757   17.3129 H         1 RES1    0.0000
     20 C7         1.7201    3.3730   15.9371 C.3       1 RES1    0.0000
     21 C8         2.5310    2.4264   16.7797 C.3       1 RES1    0.0000
     22 H10        3.4509    2.4615   16.5052 H         1 RES1    0.0000
     23 H11        2.1984    1.5328   16.6671 H         1 RES1    0.0000
     24 H12        2.4616    2.6799   17.7018 H         1 RES1    0.0000
     25 C9         1.8166    3.1007   14.4761 C.3       1 RES1    0.0000
     26 H13        2.7383    3.1096   14.2104 H         1 RES1    0.0000
     27 H14        1.3364    3.7767   13.9922 H         1 RES1    0.0000
     28 H15        1.4367    2.2403   14.2861 H         1 RES1    0.0000
     29 C10        1.7288    7.4320   14.0372 C.2       1 RES1    0.0000
     30 H16        1.1204    6.9601   13.5170 H         1 RES1    0.0000
     31 C11        2.6901    8.2474   13.3222 C.ar      1 RES1    0.0000
     32 C12        2.5204    8.3508   11.9332 C.ar      1 RES1    0.0000
     33 H17        1.8146    7.9076   11.5214 H         1 RES1    0.0000
     34 C13        3.3901    9.1015   11.1730 C.ar      1 RES1    0.0000
     35 H18        3.2648    9.1581   10.2526 H         1 RES1    0.0000
     36 C14        4.4363    9.7658   11.7555 C.ar      1 RES1    0.0000
     37 H19        5.0196   10.2720   11.2363 H         1 RES1    0.0000
     38 C15        4.6108    9.6786   13.1000 C.ar      1 RES1    0.0000
     39 H20        5.3205   10.1308   13.4959 H         1 RES1    0.0000
     40 C16        3.7507    8.9244   13.8989 C.ar      1 RES1    0.0000
     41 H21        3.8905    8.8767   14.8175 H         1 RES1    0.0000
@<TRIPOS>BOND
     1    1    2 1
     2    3   15 1
     3    4   17 1
     4    5    6 1
     5    7    5 1
     6    8    5 2
     7    9    8 1
     8   10    8 1
     9   11   10 1
    10   12   10 1
    11   13    1 1
    12   14   13 1
    13   15   13 1
    14   16   15 1
    15   17   15 1
    16   18   17 1
    17   19   17 1
    18   20    3 1
    19   21   20 1
    20   22   21 1
    21   23   21 1
    22   24   21 1
    23   25   20 1
    24   26   25 1
    25   27   25 1
    26   28   25 1
    27   29    1 2
    28   30   29 1
    29   31   29 1
    30   32   31 ar
    31   33   32 1
    32   34   32 ar
    33   35   34 1
    34   36   34 ar
    35   37   36 1
    36   38   36 ar
    37   39   38 1
    38   40   31 ar
    39   41   40 1
    40    4   20 1
    41   10   13 1
    42   38   40 ar
@<TRIPOS>SUBSTRUCTURE
     1 RES1 1

@<TRIPOS>CRYSIN
   9.6420    8.9900   17.5980  90.0000  90.0000  90.0000  19 1

