# MOL2 file generated by ConQuest
# Please check atom types

@<TRIPOS>MOLECULE
VOJMAJ
    82    88     2
SMALL
NO_CHARGES
****
Generated from CSD

@<TRIPOS>ATOM
      1 O1         1.3429    3.2332   27.9929 O.3       1 RES1    0.0000
      2 O2         1.8430    8.3243   27.3080 O.3       1 RES1    0.0000
      3 O3         3.0145    4.7189   27.4202 O.3       1 RES1    0.0000
      4 N1         1.8654    7.1686   26.3913 N.3       1 RES1    0.0000
      5 C1         1.9926    5.4263   28.1545 C.3       1 RES1    0.0000
      6 H1         2.4256    6.0628   28.7922 H         1 RES1    0.0000
      7 C2         2.6101    3.3068   27.3762 C.3       1 RES1    0.0000
      8 C3         0.5249    6.6976   24.2868 C.ar      1 RES1    0.0000
      9 C4        -0.0629    8.6210   26.0381 C.3       1 RES1    0.0000
     10 H2        -0.0399    9.5701   25.7567 H         1 RES1    0.0000
     11 H3        -0.9768    8.2621   25.9124 H         1 RES1    0.0000
     12 C5         0.9981    7.7709   25.2777 C.3       1 RES1    0.0000
     13 H4         1.5755    8.4083   24.7688 H         1 RES1    0.0000
     14 C6         0.4123    8.4512   27.4780 C.3       1 RES1    0.0000
     15 H5         0.1388    9.1945   28.0887 H         1 RES1    0.0000
     16 C7         1.0593    6.2064   27.2146 C.3       1 RES1    0.0000
     17 H6         0.5833    5.5673   26.6099 H         1 RES1    0.0000
     18 C8        -0.7023    6.0278   24.4305 C.ar      1 RES1    0.0000
     19 H7        -1.3022    6.2493   25.1340 H         1 RES1    0.0000
     20 C9         1.0056    5.3764   22.2931 C.ar      1 RES1    0.0000
     21 H8         1.5766    5.1751   21.5627 H         1 RES1    0.0000
     22 C10        1.2887    4.3574   28.9269 C.3       1 RES1    0.0000
     23 H9         1.7621    4.1490   29.7711 H         1 RES1    0.0000
     24 H10        0.3544    4.6130   29.1304 H         1 RES1    0.0000
     25 C11       -1.0209    5.0009   23.4876 C.ar      1 RES1    0.0000
     26 H11       -1.8393    4.5255   23.5714 H         1 RES1    0.0000
     27 C12       -0.1828    4.6988   22.4847 C.ar      1 RES1    0.0000
     28 H12       -0.4137    3.9967   21.8890 H         1 RES1    0.0000
     29 C13        2.4811    2.8953   25.9094 C.3       1 RES1    0.0000
     30 H13        3.3601    2.9426   25.4783 H         1 RES1    0.0000
     31 H14        1.8606    3.5011   25.4543 H         1 RES1    0.0000
     32 H15        2.1403    1.9778   25.8585 H         1 RES1    0.0000
     33 C14        3.6691    2.5214   28.0977 C.3       1 RES1    0.0000
     34 H16        4.5216    2.6090   27.6247 H         1 RES1    0.0000
     35 H17        3.4093    1.5768   28.1336 H         1 RES1    0.0000
     36 H18        3.7660    2.8655   29.0107 H         1 RES1    0.0000
     37 C15        1.3441    6.3973   23.2481 C.ar      1 RES1    0.0000
     38 H19        2.1604    6.8727   23.1463 H         1 RES1    0.0000
     39 C16        0.0267    7.0635   27.9749 C.3       1 RES1    0.0000
     40 H20       -0.9017    6.8289   27.7235 H         1 RES1    0.0000
     41 H21        0.1333    6.9812   28.9568 H         1 RES1    0.0000
     42 O4         4.1571    2.9531   16.8975 O.3       2 RES2    0.0000
     43 O5         4.6735   -2.1450   17.5920 O.3       2 RES2    0.0000
     44 O6         5.8453    1.4778   17.4992 O.3       2 RES2    0.0000
     45 N2         4.6750   -0.9919   18.5272 N.3       2 RES2    0.0000
     46 C17        2.0952    0.1926   20.4850 C.ar      2 RES2    0.0000
     47 H22        1.4952   -0.0201   19.7815 H         2 RES2    0.0000
     48 C18        5.4538    2.8944   17.5603 C.3       2 RES2    0.0000
     49 C19        3.7829    0.8107   22.5955 C.ar      2 RES2    0.0000
     50 H23        4.3643    1.0182   23.3169 H         2 RES2    0.0000
     51 C20        4.8014    0.7354   16.7670 C.3       2 RES2    0.0000
     52 H24        5.2266    0.0893   16.1324 H         2 RES2    0.0000
     53 C21        3.3101   -0.5157   20.6018 C.ar      2 RES2    0.0000
     54 C22        3.2252   -2.2816   17.4376 C.3       2 RES2    0.0000
     55 H25        2.9470   -3.0240   16.8269 H         2 RES2    0.0000
     56 C23        1.7658    1.1828   21.3741 C.ar      2 RES2    0.0000
     57 H26        0.9549    1.6635   21.2574 H         2 RES2    0.0000
     58 C24        2.7314   -2.4339   18.8655 C.3       2 RES2    0.0000
     59 H27        2.7446   -3.3786   19.1619 H         2 RES2    0.0000
     60 H28        1.8208   -2.0627   18.9822 H         2 RES2    0.0000
     61 C25        3.8906   -0.0009   17.7100 C.3       2 RES2    0.0000
     62 H29        3.4265    0.6479   18.3147 H         2 RES2    0.0000
     63 C26        4.1418   -0.1900   21.6974 C.ar      2 RES2    0.0000
     64 H30        4.9576   -0.6601   21.8231 H         2 RES2    0.0000
     65 C27        3.8104   -1.5741   19.6079 C.3       2 RES2    0.0000
     66 H31        4.3821   -2.2106   20.1258 H         2 RES2    0.0000
     67 C28        2.6065    1.5015   22.4608 C.ar      2 RES2    0.0000
     68 H32        2.3641    2.1774   23.0834 H         2 RES2    0.0000
     69 C29        4.0987    1.8499   15.9797 C.3       2 RES2    0.0000
     70 H33        4.5794    2.0548   15.1385 H         2 RES2    0.0000
     71 H34        3.1629    1.6057   15.7701 H         2 RES2    0.0000
     72 C30        2.8312   -0.8685   16.9376 C.3       2 RES2    0.0000
     73 H35        1.9050   -0.6330   17.1951 H         2 RES2    0.0000
     74 H36        2.9336   -0.7844   15.9557 H         2 RES2    0.0000
     75 C31        5.3095    3.3111   18.9733 C.3       2 RES2    0.0000
     76 H37        6.1841    3.2796   19.4133 H         2 RES2    0.0000
     77 H38        4.6905    2.7044   19.4313 H         2 RES2    0.0000
     78 H39        4.9576    4.2252   19.0122 H         2 RES2    0.0000
     79 C32        6.4909    3.7086   16.7879 C.3       2 RES2    0.0000
     80 H40        6.5451    3.3786   15.8659 H         2 RES2    0.0000
     81 H41        7.3657    3.6167   17.2190 H         2 RES2    0.0000
     82 H42        6.2268    4.6524   16.7820 H         2 RES2    0.0000
@<TRIPOS>BOND
     1    1    7 1
     2    2    4 1
     3    3    5 1
     4    4   12 1
     5    5    6 1
     6    7    3 1
     7    8   12 1
     8    9   10 1
     9   11    9 1
    10   12    9 1
    11   13   12 1
    12   14    2 1
    13   15   14 1
    14   16    4 1
    15   17   16 1
    16   18    8 ar
    17   19   18 1
    18   20   21 1
    19   22    1 1
    20   23   22 1
    21   24   22 1
    22   25   18 ar
    23   26   25 1
    24   27   20 ar
    25   28   27 1
    26   29    7 1
    27   30   29 1
    28   31   29 1
    29   32   29 1
    30   33    7 1
    31   34   33 1
    32   35   33 1
    33   36   33 1
    34   37    8 ar
    35   38   37 1
    36   39   14 1
    37   40   39 1
    38   41   39 1
    39   42   48 1
    40   43   45 1
    41   44   48 1
    42   45   61 1
    43   46   47 1
    44   48   75 1
    45   49   50 1
    46   51   44 1
    47   52   51 1
    48   53   46 ar
    49   54   43 1
    50   55   54 1
    51   56   46 ar
    52   57   56 1
    53   58   54 1
    54   59   58 1
    55   60   58 1
    56   61   51 1
    57   62   61 1
    58   63   49 ar
    59   64   63 1
    60   65   45 1
    61   66   65 1
    62   67   49 ar
    63   68   67 1
    64   69   42 1
    65   70   69 1
    66   71   69 1
    67   72   54 1
    68   73   72 1
    69   74   72 1
    70   75   76 1
    71   77   75 1
    72   78   75 1
    73   79   48 1
    74   80   79 1
    75   81   79 1
    76   82   79 1
    77    5   16 1
    78    5   22 1
    79    9   14 1
    80   16   39 1
    81   20   37 ar
    82   25   27 ar
    83   51   69 1
    84   53   63 ar
    85   53   65 1
    86   56   67 ar
    87   58   65 1
    88   61   72 1
@<TRIPOS>SUBSTRUCTURE
     1 RES1 1
     2 RES2 42

@<TRIPOS>CRYSIN
   5.5728    8.7550   29.9360  90.0000  90.2500  90.0000   4 1

