# MOL2 file generated by ConQuest
# Please check atom types

@<TRIPOS>MOLECULE
VOKKUB
    29    30     1
SMALL
NO_CHARGES
****
Generated from CSD

@<TRIPOS>ATOM
      1 O1         4.4667    1.0174    6.0763 O.2       1 RES1    0.0000
      2 O2         5.1786    2.9744    5.5995 O.2       1 RES1    0.0000
      3 O3         2.3253    4.0394    1.6885 O.2       1 RES1    0.0000
      4 O4         4.3485    4.5950    1.1356 O.2       1 RES1    0.0000
      5 O5         4.7395   -0.9505    3.6886 O.2       1 RES1    0.0000
      6 O6         6.7024    0.0677    4.0227 O.3       1 RES1    0.0000
      7 N1         4.8358    1.8578    5.2939 N.pl3     1 RES1    0.0000
      8 N2         3.5366    3.9861    1.8134 N.pl3     1 RES1    0.0000
      9 C1         5.4556    2.5374    2.9085 C.3       1 RES1    0.0000
     10 C2         5.7683    1.9193    1.5470 C.3       1 RES1    0.0000
     11 C3         4.5841    1.1318    0.9703 C.3       1 RES1    0.0000
     12 C4         3.3447    1.0285    1.8324 C.3       1 RES1    0.0000
     13 C5         3.4668    1.7668    3.1689 C.3       1 RES1    0.0000
     14 C6         4.8461    1.4460    3.8194 C.3       1 RES1    0.0000
     15 C7         4.0572    3.1692    2.9561 C.3       1 RES1    0.0000
     16 C8         5.4050    0.0303    3.8253 C.2       1 RES1    0.0000
     17 C9         7.3939   -1.2119    4.0822 C.3       1 RES1    0.0000
     18 H1         6.2724    3.0308    3.1987 H         1 RES1    0.0000
     19 H2         6.6135    1.3402    1.6291 H         1 RES1    0.0000
     20 H3         6.1355    2.6171    0.9275 H         1 RES1    0.0000
     21 H4         5.0020    0.3796    0.7254 H         1 RES1    0.0000
     22 H5         4.4810    1.4989    0.0951 H         1 RES1    0.0000
     23 H6         3.0329    0.1230    2.0452 H         1 RES1    0.0000
     24 H7         2.4598    1.3658    1.4507 H         1 RES1    0.0000
     25 H8         2.6475    1.6646    3.7576 H         1 RES1    0.0000
     26 H9         3.8618    3.7125    3.7338 H         1 RES1    0.0000
     27 H10        6.9912   -1.6864    4.6256 H         1 RES1    0.0000
     28 H11        8.3068   -0.9986    4.3402 H         1 RES1    0.0000
     29 H12        7.5093   -1.5898    3.1154 H         1 RES1    0.0000
@<TRIPOS>BOND
     1    1    7 2
     2    2    7 2
     3    3    8 2
     4    4    8 2
     5    5   16 2
     6    6   16 1
     7    7   14 1
     8    8   15 1
     9    9   10 1
    10   10   11 1
    11   11   12 1
    12   12   13 1
    13   13   14 1
    14   14    9 1
    15   15    9 1
    16   16   14 1
    17   17    6 1
    18   18    9 1
    19   19   10 1
    20   20   10 1
    21   21   11 1
    22   22   11 1
    23   23   12 1
    24   24   12 1
    25   25   13 1
    26   26   15 1
    27   27   17 1
    28   28   17 1
    29   29   17 1
    30   13   15 1
@<TRIPOS>SUBSTRUCTURE
     1 RES1 1

@<TRIPOS>CRYSIN
   6.2780    7.2500   12.9240  67.3600  87.8200  95.1300   2 1

