# MOL2 file generated by ConQuest
# Please check atom types

@<TRIPOS>MOLECULE
VOKYOK
    55    48     2
SMALL
NO_CHARGES
****
Generated from CSD

@<TRIPOS>ATOM
      1 N1         7.1929    7.9530    2.8276 N.3       1 RES1    0.0000
      2 O1         5.8508    8.5613    3.0471 O.3       1 RES1    0.0000
      3 O2         8.6112   11.8037    1.2212 O.3       1 RES1    0.0000
      4 C1         8.0008    8.9708    2.0585 C.3       1 RES1    0.0000
      5 H1         8.8673    9.1366    2.5299 H         1 RES1    0.0000
      6 C2         7.1449   10.2090    2.1253 C.ar      1 RES1    0.0000
      7 C3         7.3795   11.5270    1.7398 C.ar      1 RES1    0.0000
      8 C4         6.3625   12.4722    1.9153 C.ar      1 RES1    0.0000
      9 H2         6.4953   13.3718    1.6395 H         1 RES1    0.0000
     10 C5         5.1532   12.0914    2.4968 C.ar      1 RES1    0.0000
     11 H3         4.4748   12.7456    2.6143 H         1 RES1    0.0000
     12 C6         4.9075   10.7903    2.9090 C.ar      1 RES1    0.0000
     13 H4         4.0836   10.5374    3.3085 H         1 RES1    0.0000
     14 C7         5.9335    9.8786    2.7045 C.ar      1 RES1    0.0000
     15 C8         8.2718    8.4485    0.6633 C.2       1 RES1    0.0000
     16 C9         9.5200    8.2409    0.2453 C.2       1 RES1    0.0000
     17 H5        10.2351    8.4764    0.8237 H         1 RES1    0.0000
     18 C10        9.8534    7.6495   -1.1045 C.3       1 RES1    0.0000
     19 H6        10.5767    6.9832   -0.9943 H         1 RES1    0.0000
     20 H7        10.1907    8.3670   -1.6964 H         1 RES1    0.0000
     21 C11        8.6552    6.9772   -1.7709 C.3       1 RES1    0.0000
     22 H8         8.8540    6.8227   -2.7280 H         1 RES1    0.0000
     23 H9         8.4901    6.0992   -1.3454 H         1 RES1    0.0000
     24 C12        7.4133    7.8441   -1.6441 C.3       1 RES1    0.0000
     25 H10        7.5599    8.6953   -2.1279 H         1 RES1    0.0000
     26 H11        6.6483    7.3808   -2.0690 H         1 RES1    0.0000
     27 C13        7.0719    8.1447   -0.1942 C.3       1 RES1    0.0000
     28 H12        6.4552    8.9190   -0.1667 H         1 RES1    0.0000
     29 H13        6.5952    7.3662    0.1883 H         1 RES1    0.0000
     30 C14        7.7256    7.6331    4.1883 C.3       1 RES1    0.0000
     31 C15        9.0357    6.8779    3.9549 C.3       1 RES1    0.0000
     32 H14        9.6885    7.4781    3.5380 H         1 RES1    0.0000
     33 H15        8.8709    6.1126    3.3654 H         1 RES1    0.0000
     34 H16        9.3863    6.5601    4.8127 H         1 RES1    0.0000
     35 C16        7.9450    8.8592    5.0812 C.3       1 RES1    0.0000
     36 H17        8.5933    9.4601    4.6578 H         1 RES1    0.0000
     37 H18        8.2875    8.5712    5.9522 H         1 RES1    0.0000
     38 H19        7.0948    9.3300    5.2030 H         1 RES1    0.0000
     39 C17        6.7209    6.6864    4.8469 C.3       1 RES1    0.0000
     40 H20        5.8777    7.1619    5.0030 H         1 RES1    0.0000
     41 H21        7.0813    6.3716    5.7012 H         1 RES1    0.0000
     42 H22        6.5602    5.9205    4.2577 H         1 RES1    0.0000
     43 C18        8.8585   13.1665    0.8594 C.3       1 RES1    0.0000
     44 H23        9.7672   13.2502    0.5021 H         1 RES1    0.0000
     45 H24        8.7644   13.7366    1.6513 H         1 RES1    0.0000
     46 H25        8.2126   13.4460    0.1765 H         1 RES1    0.0000
     47 C19        9.9016    7.7651   -1.1296 Du        2 SUP2    0.0000
     48 H26       10.1195    6.7996   -1.1002 Du        2 SUP2    0.0000
     49 H27       10.7042    8.2539   -1.4415 Du        2 SUP2    0.0000
     50 C20        8.7482    8.0022   -2.0930 Du        2 SUP2    0.0000
     51 H28        8.6606    8.9713   -2.2750 Du        2 SUP2    0.0000
     52 H29        8.9321    7.5438   -2.9516 Du        2 SUP2    0.0000
     53 C21        7.4509    7.4757   -1.5023 Du        2 SUP2    0.0000
     54 H30        6.7202    7.6131   -2.1553 Du        2 SUP2    0.0000
     55 H31        7.5396    6.5017   -1.3493 Du        2 SUP2    0.0000
@<TRIPOS>BOND
     1    1    2 1
     2    2   14 1
     3    3    7 1
     4    4    1 1
     5    5    4 1
     6    6    4 1
     7    7    6 ar
     8    8    7 ar
     9    9    8 1
    10   10    8 ar
    11   11   10 1
    12   12   10 ar
    13   13   12 1
    14   14    6 ar
    15   15    4 1
    16   16   15 2
    17   17   16 1
    18   18   16 1
    19   19   18 1
    20   20   18 1
    21   21   18 1
    22   22   21 1
    23   23   21 1
    24   24   21 1
    25   25   24 1
    26   26   24 1
    27   27   15 1
    28   28   27 1
    29   29   27 1
    30   30    1 1
    31   31   30 1
    32   32   31 1
    33   33   31 1
    34   34   31 1
    35   35   30 1
    36   36   35 1
    37   37   35 1
    38   38   35 1
    39   39   30 1
    40   40   39 1
    41   41   39 1
    42   42   39 1
    43   43    3 1
    44   44   43 1
    45   45   43 1
    46   46   43 1
    47   12   14 ar
    48   24   27 1
@<TRIPOS>SUBSTRUCTURE
     1 RES1 1
     2 SUP2 47

@<TRIPOS>CRYSIN
   6.6770   12.1595   19.6802  90.0000  94.7770  90.0000 231 1

