# MOL2 file generated by ConQuest
# Please check atom types

@<TRIPOS>MOLECULE
VOLVAU
    28    29     1
SMALL
NO_CHARGES
****
Generated from CSD

@<TRIPOS>ATOM
      1 O1         5.5613    5.8811    1.6740 O.2       1 RES1    0.0000
      2 O2         5.6465   10.5306    1.9021 O.3       1 RES1    0.0000
      3 H1         5.0143   11.0514    1.9399 H         1 RES1    0.0000
      4 O3        11.6205    8.4983    2.8516 O.2       1 RES1    0.0000
      5 O4        10.1450    8.2359    1.3343 O.2       1 RES1    0.0000
      6 N1        10.4644    8.3163    2.5040 N.pl3     1 RES1    0.0000
      7 C1         9.4340    8.1906    3.5418 C.ar      1 RES1    0.0000
      8 C2         9.8985    8.1141    4.8368 C.ar      1 RES1    0.0000
      9 H2        10.8120    8.1576    5.0065 H         1 RES1    0.0000
     10 C3         9.0151    7.9736    5.8760 C.ar      1 RES1    0.0000
     11 H3         9.3214    7.9198    6.7529 H         1 RES1    0.0000
     12 C4         7.6717    7.9140    5.6054 C.ar      1 RES1    0.0000
     13 H4         7.0627    7.8250    6.3022 H         1 RES1    0.0000
     14 C5         7.2224    7.9842    4.3082 C.ar      1 RES1    0.0000
     15 H5         6.3067    7.9367    4.1533 H         1 RES1    0.0000
     16 C6         8.0725    8.1235    3.2186 C.ar      1 RES1    0.0000
     17 C7         7.4880    8.1865    1.8176 C.3       1 RES1    0.0000
     18 H6         7.8244    8.9828    1.3773 H         1 RES1    0.0000
     19 H7         7.8033    7.4183    1.3157 H         1 RES1    0.0000
     20 C8         5.9950    8.2090    1.7657 C.2       1 RES1    0.0000
     21 C9         5.1949    9.3012    1.8005 C.2       1 RES1    0.0000
     22 C10        3.7399    8.9811    1.7294 C.3       1 RES1    0.0000
     23 H8         3.3332    9.3752    0.9414 H         1 RES1    0.0000
     24 H9         3.2735    9.2985    2.5181 H         1 RES1    0.0000
     25 C11        3.7209    7.4645    1.6545 C.3       1 RES1    0.0000
     26 H10        3.2385    7.0895    2.4076 H         1 RES1    0.0000
     27 H11        3.3009    7.1662    0.8324 H         1 RES1    0.0000
     28 C12        5.1678    7.0583    1.6923 C.2       1 RES1    0.0000
@<TRIPOS>BOND
     1    1   28 2
     2    2    3 1
     3    4    6 2
     4    5    6 2
     5    6    7 1
     6    7    8 ar
     7    8    9 1
     8   10    8 ar
     9   11   10 1
    10   12   10 ar
    11   13   12 1
    12   14   12 ar
    13   15   14 1
    14   16    7 ar
    15   17   16 1
    16   18   17 1
    17   19   17 1
    18   20   17 1
    19   21    2 1
    20   22   21 1
    21   23   22 1
    22   24   22 1
    23   25   22 1
    24   26   25 1
    25   27   25 1
    26   28   20 1
    27   14   16 ar
    28   20   21 2
    29   25   28 1
@<TRIPOS>SUBSTRUCTURE
     1 RES1 1

@<TRIPOS>CRYSIN
  10.8050   12.9940    7.9240  90.0000 110.6960  90.0000  14 1

