# MOL2 file generated by ConQuest
# Please check atom types

@<TRIPOS>MOLECULE
VOLXID
    47    49     1
SMALL
NO_CHARGES
****
Generated from CSD

@<TRIPOS>ATOM
      1 O1        -0.4770    0.9719   15.9994 O.3       1 RES1    0.0000
      2 O2         1.7003    3.4703   17.2278 O.3       1 RES1    0.0000
      3 O3         1.1065    0.6325   13.8694 O.2       1 RES1    0.0000
      4 O4         2.5806    2.1441   14.6395 O.3       1 RES1    0.0000
      5 O5         0.2373    3.6922   14.0290 O.2       1 RES1    0.0000
      6 N1        -0.1941   -0.1689   16.8164 N.2       1 RES1    0.0000
      7 N2         1.9762    2.2335   17.8589 N.2       1 RES1    0.0000
      8 N3         1.0872    5.4158   15.1692 N.am      1 RES1    0.0000
      9 C1         0.5307    3.2667   16.3036 C.3       1 RES1    0.0000
     10 C2         0.6973    1.7848   15.9543 C.3       1 RES1    0.0000
     11 C3         1.4355    1.3097   17.1545 C.2       1 RES1    0.0000
     12 C4         0.9288   -0.0132   17.4626 C.2       1 RES1    0.0000
     13 C5         1.4472   -0.9818   18.3904 C.ar      1 RES1    0.0000
     14 C6         2.6414   -0.7269   19.0441 C.ar      1 RES1    0.0000
     15 C7         3.0751   -1.6325   19.9757 C.ar      1 RES1    0.0000
     16 C8         2.4251   -2.7932   20.2387 C.ar      1 RES1    0.0000
     17 C9         1.2871   -3.0614   19.5700 C.ar      1 RES1    0.0000
     18 C10        0.7727   -2.1574   18.6384 C.ar      1 RES1    0.0000
     19 C11        1.4420    1.4471   14.6620 C.2       1 RES1    0.0000
     20 C12        3.3837    1.9521   13.4467 C.3       1 RES1    0.0000
     21 C13       -0.7487    3.5134   17.0756 C.3       1 RES1    0.0000
     22 C14        0.6330    4.1674   15.0846 C.2       1 RES1    0.0000
     23 C15        1.2836    6.1874   16.4370 C.3       1 RES1    0.0000
     24 C16        2.7711    6.6029   16.5722 C.3       1 RES1    0.0000
     25 C17        1.1316    6.1874   13.9126 C.3       1 RES1    0.0000
     26 C18        2.4192    5.8860   13.1462 C.3       1 RES1    0.0000
     27 H1         3.2264    0.1490   18.8206 H         1 RES1    0.0000
     28 H2         3.9688   -1.4073   20.5298 H         1 RES1    0.0000
     29 H3         2.8114   -3.4935   20.9618 H         1 RES1    0.0000
     30 H4         0.7657   -3.9902   19.7597 H         1 RES1    0.0000
     31 H5        -0.1461   -2.3842   18.1068 H         1 RES1    0.0000
     32 H6         4.2844    2.5498   13.5238 H         1 RES1    0.0000
     33 H7         2.8231    2.2683   12.5846 H         1 RES1    0.0000
     34 H8         3.6414    0.9106   13.3547 H         1 RES1    0.0000
     35 H9        -1.6015    3.3776   16.4351 H         1 RES1    0.0000
     36 H10       -0.7482    4.5201   17.4494 H         1 RES1    0.0000
     37 H11       -0.8066    2.8147   17.9002 H         1 RES1    0.0000
     38 H12        0.6605    7.0698   16.3976 H         1 RES1    0.0000
     39 H13        0.9937    5.5797   17.2804 H         1 RES1    0.0000
     40 H14        2.8816    7.1692   17.4870 H         1 RES1    0.0000
     41 H15        3.0628    7.2023   15.7214 H         1 RES1    0.0000
     42 H16        3.3959    5.7287   16.6230 H         1 RES1    0.0000
     43 H17        0.2630    5.9605   13.3171 H         1 RES1    0.0000
     44 H18        1.1339    7.2354   14.1624 H         1 RES1    0.0000
     45 H19        2.4432    6.4738   12.2465 H         1 RES1    0.0000
     46 H20        2.4198    4.8346   12.8851 H         1 RES1    0.0000
     47 H21        3.2907    6.1095   13.7492 H         1 RES1    0.0000
@<TRIPOS>BOND
     1    1    6 1
     2    2    7 1
     3    3   19 2
     4    4   19 1
     5    5   22 2
     6    6   12 2
     7    7   11 2
     8    8   22 1
     9    9    2 1
    10   10    1 1
    11   11   10 1
    12   12   11 1
    13   13   12 1
    14   14   13 ar
    15   15   14 ar
    16   16   15 ar
    17   17   16 ar
    18   18   13 ar
    19   19   10 1
    20   20    4 1
    21   21    9 1
    22   22    9 1
    23   23    8 1
    24   24   23 1
    25   25    8 1
    26   26   25 1
    27   27   14 1
    28   28   15 1
    29   29   16 1
    30   30   17 1
    31   31   18 1
    32   32   20 1
    33   33   20 1
    34   34   20 1
    35   35   21 1
    36   36   21 1
    37   37   21 1
    38   38   23 1
    39   39   23 1
    40   40   24 1
    41   41   24 1
    42   42   24 1
    43   43   25 1
    44   44   25 1
    45   45   26 1
    46   46   26 1
    47   47   26 1
    48    9   10 1
    49   17   18 ar
@<TRIPOS>SUBSTRUCTURE
     1 RES1 1

@<TRIPOS>CRYSIN
   5.8450   16.5570   18.7830  90.0000  90.0000  90.0000  19 1

