# MOL2 file generated by ConQuest
# Please check atom types

@<TRIPOS>MOLECULE
VOMYUS
    79    82     1
SMALL
NO_CHARGES
****
Generated from CSD

@<TRIPOS>ATOM
      1 O1         2.2080    0.2383   -0.5421 O.3       1 RES1    0.0000
      2 O2         3.6481    2.0058   -2.2859 O.3       1 RES1    0.0000
      3 O3        -0.0117    3.6602    0.1757 O.3       1 RES1    0.0000
      4 O4         2.1064   -1.4979    3.4320 O.3       1 RES1    0.0000
      5 O5         3.1534    4.7259   -1.6546 O.3       1 RES1    0.0000
      6 O6         1.6314    2.0747   -3.2590 O.2       1 RES1    0.0000
      7 O7         2.8649   -7.2583    5.7577 O.3       1 RES1    0.0000
      8 O8         4.2950    4.9094    0.2790 O.2       1 RES1    0.0000
      9 O9         3.4984    3.0522    2.1332 O.2       1 RES1    0.0000
     10 N1         2.0784   -0.6687    0.6198 N.3       1 RES1    0.0000
     11 N2         2.7610    3.2320   -0.0583 N.am      1 RES1    0.0000
     12 C1         1.3745    1.3299   -0.1545 C.3       1 RES1    0.0000
     13 H1         0.4218    1.1199   -0.2499 H         1 RES1    0.0000
     14 C2         2.3141    0.2441    1.7703 C.3       1 RES1    0.0000
     15 H2         3.2747    0.3159    1.9522 H         1 RES1    0.0000
     16 C3         2.7734    2.6964    1.2299 C.2       1 RES1    0.0000
     17 C4        -0.4014    8.3061   -0.6163 C.ar      1 RES1    0.0000
     18 H3        -0.7306    8.9450   -1.2035 H         1 RES1    0.0000
     19 C5         1.7677    2.5866   -0.9262 C.3       1 RES1    0.0000
     20 C6         1.7609    1.6009    1.2935 C.3       1 RES1    0.0000
     21 H4         0.9819    1.8701    1.8224 H         1 RES1    0.0000
     22 C7         1.1225    7.6708    1.0798 C.ar      1 RES1    0.0000
     23 H5         1.8317    7.8897    1.6387 H         1 RES1    0.0000
     24 C8         0.5692    8.6112    0.2631 C.ar      1 RES1    0.0000
     25 H6         0.8699    9.4906    0.3161 H         1 RES1    0.0000
     26 C9         1.9187   -3.3023    4.9754 C.ar      1 RES1    0.0000
     27 C10        0.5304    3.4671   -1.1196 C.3       1 RES1    0.0000
     28 H7         0.7762    4.3182   -1.5160 H         1 RES1    0.0000
     29 H8        -0.1138    3.0295   -1.6970 H         1 RES1    0.0000
     30 C11        3.0690   -3.6146    5.6694 C.ar      1 RES1    0.0000
     31 H9         3.6222   -2.9254    5.9599 H         1 RES1    0.0000
     32 C12        1.5285   -1.8988    4.6743 C.3       1 RES1    0.0000
     33 H10        0.5615   -1.8306    4.6231 H         1 RES1    0.0000
     34 H11        1.8367   -1.3138    5.3833 H         1 RES1    0.0000
     35 C13        2.3382    2.2115   -2.3010 C.2       1 RES1    0.0000
     36 C14        4.2242    1.5880   -3.5459 C.3       1 RES1    0.0000
     37 H12        3.9341    0.6964   -3.7508 H         1 RES1    0.0000
     38 H13        5.1822    1.6045   -3.4806 H         1 RES1    0.0000
     39 H14        3.9395    2.1860   -4.2417 H         1 RES1    0.0000
     40 C15        3.8374    5.8258   -2.3663 C.3       1 RES1    0.0000
     41 C16        3.4212   -4.9068    5.9449 C.ar      1 RES1    0.0000
     42 H15        4.1990   -5.0899    6.4217 H         1 RES1    0.0000
     43 C17        1.5911   -0.2563    2.9950 C.3       1 RES1    0.0000
     44 H16        1.6775    0.3948    3.7084 H         1 RES1    0.0000
     45 H17        0.6474   -0.3554    2.7928 H         1 RES1    0.0000
     46 C18       -0.9886    4.6771    0.2172 C.3       1 RES1    0.0000
     47 H18       -1.5205    4.5730    1.0207 H         1 RES1    0.0000
     48 H19       -1.5808    4.5766   -0.5457 H         1 RES1    0.0000
     49 C19       -0.3986    6.0555    0.2004 C.ar      1 RES1    0.0000
     50 C20        3.4892    4.3792   -0.4176 C.2       1 RES1    0.0000
     51 C21        2.6242   -5.9370    5.5140 C.ar      1 RES1    0.0000
     52 C22        1.1522   -4.3505    4.5375 C.ar      1 RES1    0.0000
     53 H20        0.3914   -4.1710    4.0324 H         1 RES1    0.0000
     54 C23        5.3189    5.5530   -2.4316 C.3       1 RES1    0.0000
     55 H21        5.7058    5.6786   -1.5619 H         1 RES1    0.0000
     56 H22        5.7281    6.1596   -3.0541 H         1 RES1    0.0000
     57 H23        5.4653    4.6520   -2.7195 H         1 RES1    0.0000
     58 C24        3.1374   -1.6483    0.4273 C.3       1 RES1    0.0000
     59 H24        2.9766   -2.1393   -0.3823 H         1 RES1    0.0000
     60 H25        3.1518   -2.2542    1.1717 H         1 RES1    0.0000
     61 H26        3.9830   -1.1989    0.3647 H         1 RES1    0.0000
     62 C25        0.6163    6.3750    1.0701 C.ar      1 RES1    0.0000
     63 H27        0.9602    5.7324    1.6467 H         1 RES1    0.0000
     64 C26        1.4768   -5.6499    4.8227 C.ar      1 RES1    0.0000
     65 H28        0.9176   -6.3426    4.5472 H         1 RES1    0.0000
     66 C27        3.5107    7.1216   -1.6617 C.3       1 RES1    0.0000
     67 H29        2.5659    7.1646   -1.4966 H         1 RES1    0.0000
     68 H30        3.7758    7.8610   -2.2127 H         1 RES1    0.0000
     69 H31        3.9834    7.1575   -0.8264 H         1 RES1    0.0000
     70 C28        3.1988    5.7827   -3.7278 C.3       1 RES1    0.0000
     71 H32        3.3622    4.9248   -4.1295 H         1 RES1    0.0000
     72 H33        3.5748    6.4719   -4.2796 H         1 RES1    0.0000
     73 H34        2.2529    5.9191   -3.6422 H         1 RES1    0.0000
     74 C29       -0.9018    7.0067   -0.6287 C.ar      1 RES1    0.0000
     75 H35       -1.5911    6.7842   -1.2132 H         1 RES1    0.0000
     76 C30        3.8042   -7.6026    6.7245 C.3       1 RES1    0.0000
     77 H36        4.6840   -7.3908    6.4040 H         1 RES1    0.0000
     78 H37        3.7472   -8.5430    6.9055 H         1 RES1    0.0000
     79 H38        3.6295   -7.1108    7.5298 H         1 RES1    0.0000
@<TRIPOS>BOND
     1    1   10 1
     2    2   35 1
     3    3   27 1
     4    4   32 1
     5    5   40 1
     6    6   35 2
     7    7   51 1
     8    8   50 2
     9    9   16 2
    10   10   14 1
    11   11   16 1
    12   12    1 1
    13   13   12 1
    14   14   15 1
    15   16   20 1
    16   17   18 1
    17   19   11 1
    18   20   12 1
    19   21   20 1
    20   22   23 1
    21   24   17 ar
    22   25   24 1
    23   26   30 ar
    24   27   19 1
    25   28   27 1
    26   29   27 1
    27   30   31 1
    28   32   26 1
    29   33   32 1
    30   34   32 1
    31   35   19 1
    32   36    2 1
    33   37   36 1
    34   38   36 1
    35   39   36 1
    36   40   54 1
    37   41   30 ar
    38   42   41 1
    39   43    4 1
    40   44   43 1
    41   45   43 1
    42   46    3 1
    43   47   46 1
    44   48   46 1
    45   49   46 1
    46   50    5 1
    47   51   41 ar
    48   52   26 ar
    49   53   52 1
    50   54   55 1
    51   56   54 1
    52   57   54 1
    53   58   10 1
    54   59   58 1
    55   60   58 1
    56   61   58 1
    57   62   22 ar
    58   63   62 1
    59   64   51 ar
    60   65   64 1
    61   66   40 1
    62   67   66 1
    63   68   66 1
    64   69   66 1
    65   70   40 1
    66   71   70 1
    67   72   70 1
    68   73   70 1
    69   74   17 ar
    70   75   74 1
    71   76    7 1
    72   77   76 1
    73   78   76 1
    74   79   76 1
    75   11   50 1
    76   12   19 1
    77   14   20 1
    78   14   43 1
    79   22   24 ar
    80   49   62 ar
    81   49   74 ar
    82   52   64 ar
@<TRIPOS>SUBSTRUCTURE
     1 RES1 1

@<TRIPOS>CRYSIN
   9.8130   35.8950    8.8300  90.0000  90.6300  90.0000  14 1

