# MOL2 file generated by ConQuest
# Please check atom types

@<TRIPOS>MOLECULE
VOPNAR
    45    47     1
SMALL
NO_CHARGES
****
Generated from CSD

@<TRIPOS>ATOM
      1 C1         7.7959    5.3393   -0.5868 C.ar      1 RES1    0.0000
      2 C2         7.9008    5.5308    0.7734 C.ar      1 RES1    0.0000
      3 H1         8.1383    4.8112    1.3463 H         1 RES1    0.0000
      4 C3         7.6538    6.7882    1.2870 C.ar      1 RES1    0.0000
      5 H2         7.7293    6.9331    2.2226 H         1 RES1    0.0000
      6 C4         7.2958    7.8476    0.4568 C.ar      1 RES1    0.0000
      7 C5         7.2043    7.6161   -0.9146 C.ar      1 RES1    0.0000
      8 H3         6.9713    8.3306   -1.4958 H         1 RES1    0.0000
      9 C6         7.4478    6.3601   -1.4398 C.ar      1 RES1    0.0000
     10 H4         7.3764    6.2054   -2.3748 H         1 RES1    0.0000
     11 C7         6.9916    9.2179    0.9458 C.3       1 RES1    0.0000
     12 H5         6.4153    9.7471    0.3233 H         1 RES1    0.0000
     13 C8         6.7516    9.5284    2.4047 C.3       1 RES1    0.0000
     14 H6         6.8979    8.7713    3.0419 H         1 RES1    0.0000
     15 C9         5.6360   10.4463    2.7375 C.2       1 RES1    0.0000
     16 C10        4.2765   11.2180    4.4942 C.3       1 RES1    0.0000
     17 H7         4.4017   11.3649    5.4656 H         1 RES1    0.0000
     18 H8         4.3833   12.0915    4.0390 H         1 RES1    0.0000
     19 C11        2.9552   10.7262    4.2605 C.3       1 RES1    0.0000
     20 H9         2.3015   11.3716    4.6001 H         1 RES1    0.0000
     21 H10        2.8389    9.8695    4.7224 H         1 RES1    0.0000
     22 H11        2.8184   10.5994    3.2986 H         1 RES1    0.0000
     23 C12        7.9962   10.0657    1.7176 C.3       1 RES1    0.0000
     24 C13        8.1449   11.5481    1.4087 C.3       1 RES1    0.0000
     25 H12        7.2682   11.9246    1.1847 H         1 RES1    0.0000
     26 H13        8.7540   11.6642    0.6494 H         1 RES1    0.0000
     27 H14        8.5079   12.0103    2.1927 H         1 RES1    0.0000
     28 C14        9.2842    9.3782    2.0864 C.2       1 RES1    0.0000
     29 C15       10.3894    9.3983    1.0870 C.ar      1 RES1    0.0000
     30 C16       10.1585    9.6124   -0.2691 C.ar      1 RES1    0.0000
     31 H15        9.2811    9.8127   -0.5733 H         1 RES1    0.0000
     32 C17       11.2006    9.5346   -1.1738 C.ar      1 RES1    0.0000
     33 H16       11.0356    9.6614   -2.1017 H         1 RES1    0.0000
     34 C18       12.4710    9.2731   -0.7350 C.ar      1 RES1    0.0000
     35 H17       13.1843    9.2141   -1.3613 H         1 RES1    0.0000
     36 C19       12.7241    9.0950    0.6032 C.ar      1 RES1    0.0000
     37 H18       13.6126    8.9370    0.8994 H         1 RES1    0.0000
     38 C20       11.6929    9.1440    1.5189 C.ar      1 RES1    0.0000
     39 H19       11.8705    9.0060    2.4414 H         1 RES1    0.0000
     40 N1         8.0160    3.9952   -1.1404 N.pl3     1 RES1    0.0000
     41 O1         7.9216    3.8406   -2.3494 O.2       1 RES1    0.0000
     42 O2         8.2659    3.0849   -0.3642 O.2       1 RES1    0.0000
     43 O3         5.1169   11.2208    1.9770 O.2       1 RES1    0.0000
     44 O4         5.2940   10.3062    4.0160 O.3       1 RES1    0.0000
     45 O5         9.4202    8.8210    3.1594 O.2       1 RES1    0.0000
@<TRIPOS>BOND
     1    1    2 ar
     2    2    3 1
     3    4    2 ar
     4    5    4 1
     5    6    4 ar
     6    7    6 ar
     7    8    7 1
     8    9    1 ar
     9   10    9 1
    10   11    6 1
    11   12   11 1
    12   13   11 1
    13   14   13 1
    14   15   13 1
    15   16   17 1
    16   18   16 1
    17   19   16 1
    18   20   19 1
    19   21   19 1
    20   22   19 1
    21   23   11 1
    22   24   23 1
    23   25   24 1
    24   26   24 1
    25   27   24 1
    26   28   23 1
    27   29   28 1
    28   30   29 ar
    29   31   30 1
    30   32   30 ar
    31   33   32 1
    32   34   32 ar
    33   35   34 1
    34   36   34 ar
    35   37   36 1
    36   38   29 ar
    37   39   38 1
    38   40    1 1
    39   41   40 2
    40   42   40 2
    41   43   15 2
    42   44   15 1
    43   45   28 2
    44    7    9 ar
    45   13   23 1
    46   16   44 1
    47   36   38 ar
@<TRIPOS>SUBSTRUCTURE
     1 RES1 1

@<TRIPOS>CRYSIN
  12.0869   11.1268   14.3074  90.0000 108.2750  90.0000 231 1

