# MOL2 file generated by ConQuest
# Please check atom types

@<TRIPOS>MOLECULE
VOPWEC
    21    26     1
SMALL
NO_CHARGES
****
Generated from CSD

@<TRIPOS>ATOM
      1 C1         1.6366    2.4830    2.4884 C.3       1 RES1    0.0000
      2 C2         2.1584    3.6560    2.9984 C.2       1 RES1    0.0000
      3 C3         3.1495    3.6570    3.9660 C.2       1 RES1    0.0000
      4 C4         3.6646    2.4830    4.4562 C.2       1 RES1    0.0000
      5 C5         0.6218    2.9498    1.4409 C.3       1 RES1    0.0000
      6 C6         0.0610    3.0392    0.8067 C.3       1 RES1    0.0000
      7 C7         4.7607    2.4830    5.4734 C.3       1 RES1    0.0000
      8 N1        -0.8979    2.4830   -0.2369 N.2       1 RES1    0.0000
      9 O1        -1.2876    3.5467   -0.6771 O.2       1 RES1    0.0000
     10 H1         1.7925    4.4436    2.5766 H         1 RES1    0.0000
     11 H2         3.5782    4.4595    4.1755 H         1 RES1    0.0000
     12 H3         4.3931    2.4830    6.2512 H         1 RES1    0.0000
     13 H4         5.2808    1.8205    5.2783 H         1 RES1    0.0000
     14 C2B        2.1584    1.3100    2.9984 C.2       1 RES1    0.0000
     15 C5B        0.6218    2.0162    1.4409 C.3       1 RES1    0.0000
     16 C3B        3.1495    1.3090    3.9660 C.2       1 RES1    0.0000
     17 C6B        0.0610    1.9268    0.8067 C.3       1 RES1    0.0000
     18 H4B        5.2808    3.1455    5.2783 H         1 RES1    0.0000
     19 O1B       -1.2876    1.4193   -0.6771 O.2       1 RES1    0.0000
     20 H1B        1.7925    0.5224    2.5766 H         1 RES1    0.0000
     21 H2B        3.5782    0.5065    4.1755 H         1 RES1    0.0000
@<TRIPOS>BOND
     1    1    2 1
     2    2    3 1
     3    3    4 1
     4    4    7 1
     5    5    1 1
     6    6    5 1
     7    7   12 1
     8    8    6 1
     9    9    8 1
    10   10    2 1
    11   11    3 1
    12   13    7 1
    13   14    1 1
    14   15    1 1
    15   16    4 1
    16   17    5 1
    17   18    7 1
    18   19    8 1
    19   20   14 1
    20   21   16 1
    21    5   15 1
    22    6   15 1
    23    6   17 1
    24    8   17 1
    25   14   16 1
    26   15   17 1
@<TRIPOS>SUBSTRUCTURE
     1 RES1 1

@<TRIPOS>CRYSIN
  16.9420    9.9320    4.8160  90.0000  90.0000  90.0000  62 1

