# MOL2 file generated by ConQuest
# Please check atom types

@<TRIPOS>MOLECULE
VOPWAY
    22    24     1
SMALL
NO_CHARGES
****
Generated from CSD

@<TRIPOS>ATOM
      1 C1         1.4006    2.5294    5.8201 C.3       1 RES1    0.0000
      2 C2         2.3614    3.7228    5.5929 C.3       1 RES1    0.0000
      3 C3         1.7573    3.9796    4.1607 C.3       1 RES1    0.0000
      4 C4         0.5555    3.1572    4.7104 C.3       1 RES1    0.0000
      5 C5         0.8015    2.2685    7.1711 C.ar      1 RES1    0.0000
      6 C6         0.9573    1.0150    7.7553 C.ar      1 RES1    0.0000
      7 C7         0.3637    0.7327    8.9644 C.ar      1 RES1    0.0000
      8 C8        -0.3891    1.6927    9.5973 C.ar      1 RES1    0.0000
      9 C9        -0.5541    2.9258    9.0171 C.ar      1 RES1    0.0000
     10 C10        0.0451    3.2204    7.8284 C.ar      1 RES1    0.0000
     11 C11        2.5109    3.4670    2.9719 C.ar      1 RES1    0.0000
     12 C12        2.8020    4.3536    1.9698 C.ar      1 RES1    0.0000
     13 C13        3.4653    3.9347    0.8317 C.ar      1 RES1    0.0000
     14 C14        3.8502    2.6150    0.6897 C.ar      1 RES1    0.0000
     15 C15        3.5506    1.7192    1.6756 C.ar      1 RES1    0.0000
     16 C16        2.8767    2.1340    2.8177 C.ar      1 RES1    0.0000
     17 N1         3.8248    3.4079    5.6050 N.pl3     1 RES1    0.0000
     18 N2        -0.1029    2.1982    3.7509 N.pl3     1 RES1    0.0000
     19 O1         4.5769    4.3403    5.3454 O.2       1 RES1    0.0000
     20 O2         4.1935    2.2818    5.8302 O.2       1 RES1    0.0000
     21 O3        -0.4885    2.6670    2.7001 O.2       1 RES1    0.0000
     22 O4        -0.2206    1.0425    4.0998 O.2       1 RES1    0.0000
@<TRIPOS>BOND
     1    1    2 1
     2    2    3 1
     3    3    4 1
     4    4    1 1
     5    5    1 1
     6    6    5 ar
     7    7    6 ar
     8    8    7 ar
     9    9    8 ar
    10   10    5 ar
    11   11    3 1
    12   12   11 ar
    13   13   12 ar
    14   14   13 ar
    15   15   14 ar
    16   16   11 ar
    17   17    2 1
    18   18    4 1
    19   19   17 2
    20   20   17 2
    21   21   18 2
    22   22   18 2
    23    9   10 ar
    24   15   16 ar
@<TRIPOS>SUBSTRUCTURE
     1 RES1 1

@<TRIPOS>CRYSIN
   7.0490   10.1910   20.2860  90.0000  90.0000  90.0000  19 1

