# MOL2 file generated by ConQuest
# Please check atom types

@<TRIPOS>MOLECULE
VOPXAZ01
    44    22     2
SMALL
NO_CHARGES
****
Generated from CSD

@<TRIPOS>ATOM
      1 N1         1.4831    2.1403    5.5210 N.pl3     1 RES1    0.0000
      2 O1         2.5163    1.7909    6.0403 O.2       1 RES1    0.0000
      3 O2         1.2366    1.8761    4.3570 O.2       1 RES1    0.0000
      4 O3        -2.8953    6.0831   10.7248 O.3       1 RES1    0.0000
      5 C1        -0.2769    3.9450    8.3342 C.ar      1 RES1    0.0000
      6 C2         0.0519    4.1850    9.6522 C.ar      1 RES1    0.0000
      7 H1         0.8604    3.8676    9.9855 H         1 RES1    0.0000
      8 C3        -0.8025    4.8933   10.4917 C.ar      1 RES1    0.0000
      9 H2        -0.5677    5.0436   11.3796 H         1 RES1    0.0000
     10 C4        -2.0011    5.3733   10.0005 C.ar      1 RES1    0.0000
     11 C5        -2.3456    5.1411    8.6752 C.ar      1 RES1    0.0000
     12 H3        -3.1517    5.4637    8.3418 H         1 RES1    0.0000
     13 C6        -1.4957    4.4353    7.8577 C.ar      1 RES1    0.0000
     14 H4        -1.7361    4.2809    6.9724 H         1 RES1    0.0000
     15 C7         0.6586    3.2068    7.5006 C.2       1 RES1    0.0000
     16 H5         1.4460    2.9186    7.9027 H         1 RES1    0.0000
     17 C8         0.4929    2.9082    6.2317 C.2       1 RES1    0.0000
     18 H6        -0.2713    3.1971    5.7873 H         1 RES1    0.0000
     19 C9        -2.6063    6.3399   12.1106 C.3       1 RES1    0.0000
     20 H7        -2.5150    5.5067   12.5789 H         1 RES1    0.0000
     21 H8        -3.3225    6.8479   12.4986 H         1 RES1    0.0000
     22 H9        -1.7876    6.8366   12.1803 H         1 RES1    0.0000
     23 N2         1.5953    2.3077    5.5113 Du        2 SUP2    0.0000
     24 O4         2.7841    1.9775    5.5756 Du        2 SUP2    0.0000
     25 O5         0.8225    1.9839    4.6083 Du        2 SUP2    0.0000
     26 O6        -1.7817    5.7219   11.7385 Du        2 SUP2    0.0000
     27 C10       -0.5383    3.9981    8.1681 Du        2 SUP2    0.0000
     28 C11        0.2305    3.9695    9.3242 Du        2 SUP2    0.0000
     29 H10        1.0635    3.5560    9.3180 Du        2 SUP2    0.0000
     30 C12       -0.2435    4.5572   10.4908 Du        2 SUP2    0.0000
     31 H11        0.2701    4.5379   11.2650 Du        2 SUP2    0.0000
     32 C13       -1.4922    5.1738   10.5005 Du        2 SUP2    0.0000
     33 C14       -2.2611    5.2033    9.3444 Du        2 SUP2    0.0000
     34 H12       -3.0946    5.6159    9.3506 Du        2 SUP2    0.0000
     35 C15       -1.7866    4.6112    8.1778 Du        2 SUP2    0.0000
     36 H13       -2.3012    4.6349    7.4036 Du        2 SUP2    0.0000
     37 C16        0.0043    3.3060    7.0041 Du        2 SUP2    0.0000
     38 H14       -0.5755    3.2226    6.2828 Du        2 SUP2    0.0000
     39 C17        1.2033    2.7815    6.8243 Du        2 SUP2    0.0000
     40 H15        1.7927    2.7142    7.5394 Du        2 SUP2    0.0000
     41 C18       -3.0466    6.3685   11.7456 Du        2 SUP2    0.0000
     42 H16       -2.9330    7.2876   11.9987 Du        2 SUP2    0.0000
     43 H17       -3.6253    5.9311   12.3717 Du        2 SUP2    0.0000
     44 H18       -3.4314    6.3242   10.8664 Du        2 SUP2    0.0000
@<TRIPOS>BOND
     1    1    2 2
     2    3    1 2
     3    4   10 1
     4    5    6 ar
     5    6    7 1
     6    8    6 ar
     7    9    8 1
     8   10    8 ar
     9   11   10 ar
    10   12   11 1
    11   13    5 ar
    12   14   13 1
    13   15    5 1
    14   16   15 1
    15   17    1 1
    16   18   17 1
    17   19    4 1
    18   20   19 1
    19   21   19 1
    20   22   19 1
    21   11   13 ar
    22   15   17 2
@<TRIPOS>SUBSTRUCTURE
     1 RES1 1
     2 SUP2 23

@<TRIPOS>CRYSIN
   5.8529    8.6855    9.0724 103.4470  90.6960  95.5720   2 1

