# MOL2 file generated by ConQuest
# Please check atom types

@<TRIPOS>MOLECULE
VOPXAZ02
    22    22     1
SMALL
NO_CHARGES
****
Generated from CSD

@<TRIPOS>ATOM
      1 N1         1.3959    2.0648    5.5478 N.pl3     1 RES1    0.0000
      2 O1         2.4220    1.6687    6.0958 O.2       1 RES1    0.0000
      3 O2         1.1534    1.8482    4.3496 O.2       1 RES1    0.0000
      4 O3        -3.0193    5.7734   10.9127 O.3       1 RES1    0.0000
      5 C1        -0.3767    3.7260    8.4435 C.ar      1 RES1    0.0000
      6 C2        -0.0467    3.9214    9.7861 C.ar      1 RES1    0.0000
      7 C3        -0.8998    4.5959   10.6544 C.ar      1 RES1    0.0000
      8 C4        -2.1108    5.0890   10.1702 C.ar      1 RES1    0.0000
      9 C5        -2.4594    4.8980    8.8251 C.ar      1 RES1    0.0000
     10 C6        -1.6084    4.2243    7.9771 C.ar      1 RES1    0.0000
     11 C7         0.5615    3.0214    7.5896 C.2       1 RES1    0.0000
     12 C8         0.4048    2.8020    6.2811 C.2       1 RES1    0.0000
     13 C9        -2.7157    5.9910   12.2925 C.3       1 RES1    0.0000
     14 H1         0.7956    3.5747   10.1236 H         1 RES1    0.0000
     15 H2        -0.6248    4.6992   11.5575 H         1 RES1    0.0000
     16 H3        -3.3287    5.2535    8.5050 H         1 RES1    0.0000
     17 H4        -1.8893    4.1204    7.0515 H         1 RES1    0.0000
     18 H5         1.3260    2.6881    8.0188 H         1 RES1    0.0000
     19 H6        -0.3311    3.0533    5.7051 H         1 RES1    0.0000
     20 H7        -2.6606    5.1696   12.7602 H         1 RES1    0.0000
     21 H8        -1.9026    6.4867   12.3783 H         1 RES1    0.0000
     22 H9        -3.4529    6.5005   12.6353 H         1 RES1    0.0000
@<TRIPOS>BOND
     1    1    2 2
     2    3    1 2
     3    4    8 1
     4    5    6 ar
     5    6    7 ar
     6    7    8 ar
     7    8    9 ar
     8    9   10 ar
     9   10    5 ar
    10   11    5 1
    11   12    1 1
    12   13    4 1
    13   14    6 1
    14   15    7 1
    15   16    9 1
    16   17   10 1
    17   18   11 1
    18   19   12 1
    19   20   13 1
    20   21   13 1
    21   22   13 1
    22   11   12 2
@<TRIPOS>SUBSTRUCTURE
     1 RES1 1

@<TRIPOS>CRYSIN
   5.7014    8.4321    9.1812 103.4810  90.2710  97.2650   2 1

