# MOL2 file generated by ConQuest
# Please check atom types

@<TRIPOS>MOLECULE
VOPXAZ
    13    13     1
SMALL
NO_CHARGES
****
Generated from CSD

@<TRIPOS>ATOM
      1 C1        -0.6560    2.5600    0.4939 C.ar      1 RES1    0.0000
      2 C2         0.5709    2.0701    0.9366 C.ar      1 RES1    0.0000
      3 C3         1.3864    1.3848    0.1208 C.ar      1 RES1    0.0000
      4 C4         1.0426    1.1478   -1.1800 C.ar      1 RES1    0.0000
      5 C5        -0.1617    1.6266   -1.6845 C.ar      1 RES1    0.0000
      6 C6        -1.0217    2.3376   -0.8211 C.ar      1 RES1    0.0000
      7 C7        -1.6214    3.3031    1.3379 C.2       1 RES1    0.0000
      8 C8        -1.4518    3.6006    2.5699 C.2       1 RES1    0.0000
      9 C9         1.6751    0.1750   -3.2728 C.3       1 RES1    0.0000
     10 N1        -2.4581    4.3488    3.2993 N.pl3     1 RES1    0.0000
     11 O1        -2.1442    4.6094    4.4510 O.2       1 RES1    0.0000
     12 O2        -3.4866    4.7031    2.8142 O.2       1 RES1    0.0000
     13 O3         1.9491    0.4231   -1.9138 O.3       1 RES1    0.0000
@<TRIPOS>BOND
     1    1    2 ar
     2    2    3 ar
     3    3    4 ar
     4    4    5 ar
     5    5    6 ar
     6    6    1 ar
     7    7    1 1
     8    8    7 2
     9    9   13 1
    10   10    8 1
    11   11   10 2
    12   12   10 2
    13   13    4 1
@<TRIPOS>SUBSTRUCTURE
     1 RES1 1

@<TRIPOS>CRYSIN
   5.8460    8.6670    9.0693 103.3400  90.6500  95.6000   2 1

