# MOL2 file generated by ConQuest
# Please check atom types

@<TRIPOS>MOLECULE
VOPXED
    21    22     1
SMALL
NO_CHARGES
****
Generated from CSD

@<TRIPOS>ATOM
      1 C1         1.1627    8.0178    7.4831 C.ar      1 RES1    0.0000
      2 C2         0.9509    9.2693    6.8645 C.ar      1 RES1    0.0000
      3 C3         1.3492   10.3771    7.5463 C.ar      1 RES1    0.0000
      4 C4         1.9779   10.2941    8.7867 C.ar      1 RES1    0.0000
      5 C5         2.2038    9.0992    9.4085 C.ar      1 RES1    0.0000
      6 C6         1.7803    7.9590    8.7374 C.ar      1 RES1    0.0000
      7 C7         0.7600    6.7723    6.8591 C.2       1 RES1    0.0000
      8 C8         0.1609    6.6609    5.6820 C.2       1 RES1    0.0000
      9 C9         1.7025   12.4692    8.3011 C.3       1 RES1    0.0000
     10 N1        -0.2039    5.3810    5.1406 N.pl3     1 RES1    0.0000
     11 O1        -0.7314    5.3850    4.0149 O.2       1 RES1    0.0000
     12 O2         0.0033    4.3481    5.7688 O.2       1 RES1    0.0000
     13 O3         1.2660   11.6976    7.1593 O.3       1 RES1    0.0000
     14 O4         2.3441   11.5517    9.2048 O.3       1 RES1    0.0000
     15 H1         0.5753    9.3645    6.0508 H         1 RES1    0.0000
     16 H2         2.6381    9.0304   10.2351 H         1 RES1    0.0000
     17 H3         1.9229    7.0902    9.0826 H         1 RES1    0.0000
     18 H4         0.8924    5.9298    7.2890 H         1 RES1    0.0000
     19 H5        -0.1063    7.3393    5.1181 H         1 RES1    0.0000
     20 H6         0.9082   12.8479    8.7471 H         1 RES1    0.0000
     21 H7         2.3643   13.1597    7.9998 H         1 RES1    0.0000
@<TRIPOS>BOND
     1    1    2 ar
     2    2    3 ar
     3    3    4 ar
     4    4    5 ar
     5    5    6 ar
     6    6    1 ar
     7    7    1 1
     8    8    7 2
     9    9   13 1
    10   10    8 1
    11   11   10 2
    12   12   10 2
    13   13    3 1
    14   14    4 1
    15   15    2 1
    16   16    5 1
    17   17    6 1
    18   18    7 1
    19   19    8 1
    20   20    9 1
    21   21    9 1
    22    9   14 1
@<TRIPOS>SUBSTRUCTURE
     1 RES1 1

@<TRIPOS>CRYSIN
   3.7460   20.2520   10.7300  90.0000  92.3800  90.0000  14 1

