# MOL2 file generated by ConQuest
# Please check atom types

@<TRIPOS>MOLECULE
VOPXIH
    26    26     1
SMALL
NO_CHARGES
****
Generated from CSD

@<TRIPOS>ATOM
      1 C1         4.3861    5.6053    2.2483 C.ar      1 RES1    0.0000
      2 C2         4.1041    4.2858    2.6452 C.ar      1 RES1    0.0000
      3 C3         3.2100    4.0339    3.6576 C.ar      1 RES1    0.0000
      4 C4         2.5760    5.1083    4.3208 C.ar      1 RES1    0.0000
      5 C5         2.8368    6.3982    3.9264 C.ar      1 RES1    0.0000
      6 C6         3.7402    6.6434    2.8965 C.ar      1 RES1    0.0000
      7 C7         5.3318    5.9097    1.1932 C.2       1 RES1    0.0000
      8 C8         6.0004    5.0415    0.4723 C.2       1 RES1    0.0000
      9 C9         3.4751    1.6792    3.4667 C.3       1 RES1    0.0000
     10 C10        1.0841    5.8000    6.0441 C.3       1 RES1    0.0000
     11 N1         6.9275    5.4555   -0.5426 N.pl3     1 RES1    0.0000
     12 O1         7.4957    4.5825   -1.1958 O.2       1 RES1    0.0000
     13 O2         7.1276    6.6520   -0.7285 O.2       1 RES1    0.0000
     14 O3         2.8681    2.7965    4.1148 O.3       1 RES1    0.0000
     15 O4         1.7460    4.7476    5.3307 O.3       1 RES1    0.0000
     16 H1         4.5618    3.5473    2.2031 H         1 RES1    0.0000
     17 H2         2.4012    7.1080    4.3635 H         1 RES1    0.0000
     18 H3         3.9015    7.5460    2.6302 H         1 RES1    0.0000
     19 H4         5.4685    6.8399    1.0048 H         1 RES1    0.0000
     20 H5         5.9498    4.1427    0.4773 H         1 RES1    0.0000
     21 H6         3.1231    0.8835    3.8837 H         1 RES1    0.0000
     22 H7         4.4208    1.7059    3.5772 H         1 RES1    0.0000
     23 H8         3.3029    1.7202    2.4845 H         1 RES1    0.0000
     24 H9         0.6239    5.3201    6.7048 H         1 RES1    0.0000
     25 H10        0.4922    6.3390    5.3910 H         1 RES1    0.0000
     26 H11        1.6996    6.3553    6.4787 H         1 RES1    0.0000
@<TRIPOS>BOND
     1    1    2 ar
     2    2    3 ar
     3    3    4 ar
     4    4    5 ar
     5    5    6 ar
     6    6    1 ar
     7    7    1 1
     8    8    7 2
     9    9   14 1
    10   10   15 1
    11   11    8 1
    12   12   11 2
    13   13   11 2
    14   14    3 1
    15   15    4 1
    16   16    2 1
    17   17    5 1
    18   18    6 1
    19   19    7 1
    20   20    8 1
    21   21    9 1
    22   22    9 1
    23   23    9 1
    24   24   10 1
    25   25   10 1
    26   26   10 1
@<TRIPOS>SUBSTRUCTURE
     1 RES1 1

@<TRIPOS>CRYSIN
   8.4430    9.5410   25.1210  90.0000  90.0000  90.0000  61 3

