# MOL2 file generated by ConQuest
# Please check atom types

@<TRIPOS>MOLECULE
VOPYEE
    30    32     1
SMALL
NO_CHARGES
****
Generated from CSD

@<TRIPOS>ATOM
      1 O1         6.6088    8.5342    2.7063 O.2       1 RES1    0.0000
      2 O2         7.7331   12.4565    0.3377 O.2       1 RES1    0.0000
      3 N1         7.2541    9.4702    2.1589 N.pl3     1 RES1    0.0000
      4 C1         6.5979   10.6229    1.4668 C.3       1 RES1    0.0000
      5 C2         7.8169   11.4134    0.9843 C.2       1 RES1    0.0000
      6 C3         9.0103   10.7236    1.3972 C.ar      1 RES1    0.0000
      7 C4        10.3459   11.0385    1.1987 C.ar      1 RES1    0.0000
      8 C5        11.2874   10.1345    1.6598 C.ar      1 RES1    0.0000
      9 C6        10.9092    8.9627    2.3120 C.ar      1 RES1    0.0000
     10 C7         9.5949    8.6605    2.5467 C.ar      1 RES1    0.0000
     11 C8         8.6465    9.5581    2.0791 C.ar      1 RES1    0.0000
     12 C9         5.8195   10.0975    0.2626 C.3       1 RES1    0.0000
     13 C10        5.8143   11.4797    2.4409 C.ar      1 RES1    0.0000
     14 C11        4.6515   12.1262    2.0680 C.ar      1 RES1    0.0000
     15 C12        3.9912   12.9652    2.9549 C.ar      1 RES1    0.0000
     16 C13        4.4841   13.1667    4.2176 C.ar      1 RES1    0.0000
     17 C14        5.6547   12.5317    4.6091 C.ar      1 RES1    0.0000
     18 C15        6.3059   11.6939    3.7342 C.ar      1 RES1    0.0000
     19 H1        10.5327   11.8584    0.7886 H         1 RES1    0.0000
     20 H2        12.3006   10.2901    1.5122 H         1 RES1    0.0000
     21 H3        11.6382    8.3264    2.6627 H         1 RES1    0.0000
     22 H4         9.2830    7.8291    3.0616 H         1 RES1    0.0000
     23 H5         5.0632    9.6143    0.5752 H         1 RES1    0.0000
     24 H6         6.4579    9.4485   -0.4360 H         1 RES1    0.0000
     25 H7         5.4600   10.9276   -0.2505 H         1 RES1    0.0000
     26 H8         4.2905   11.9604    1.1597 H         1 RES1    0.0000
     27 H9         3.1437   13.4141    2.6255 H         1 RES1    0.0000
     28 H10        3.9882   13.7328    4.8150 H         1 RES1    0.0000
     29 H11        5.9827   12.6362    5.4923 H         1 RES1    0.0000
     30 H12        7.1021   11.2846    3.9801 H         1 RES1    0.0000
@<TRIPOS>BOND
     1    1    3 1
     2    2    5 2
     3    3    4 1
     4    4    5 1
     5    5    6 1
     6    6    7 ar
     7    7    8 ar
     8    8    9 ar
     9    9   10 ar
    10   10   11 ar
    11   11    3 1
    12   12    4 1
    13   13    4 1
    14   14   13 ar
    15   15   14 ar
    16   16   15 ar
    17   17   16 ar
    18   18   13 ar
    19   19    7 1
    20   20    8 1
    21   21    9 1
    22   22   10 1
    23   23   12 1
    24   24   12 1
    25   25   12 1
    26   26   14 1
    27   27   15 1
    28   28   16 1
    29   29   17 1
    30   30   18 1
    31    6   11 ar
    32   17   18 ar
@<TRIPOS>SUBSTRUCTURE
     1 RES1 1

@<TRIPOS>CRYSIN
  10.1590   12.7510   10.3940  90.0000 116.8000  90.0000  14 1

