# MOL2 file generated by ConQuest
# Please check atom types

@<TRIPOS>MOLECULE
VOPZOP
    48    50     2
SMALL
NO_CHARGES
****
Generated from CSD

@<TRIPOS>ATOM
      1 O1         5.5730    6.4095    7.7884 O.2       1 RES1    0.0000
      2 O2         2.2842   -2.0130    6.6875 O.2       2 RES2    0.0000
      3 O3         4.8109    4.7604    8.8116 O.2       1 RES1    0.0000
      4 O4         2.0383   -3.9492    5.9536 O.2       2 RES2    0.0000
      5 N1         5.1397    5.2845    7.7647 N.pl3     1 RES1    0.0000
      6 N2         2.0718   -3.1881    6.8851 N.pl3     2 RES2    0.0000
      7 N3         1.5847   -4.9474    9.9806 N.pl3     2 RES2    0.0000
      8 N4         4.3350    3.1647    4.9703 N.pl3     1 RES1    0.0000
      9 C1         1.9277   -3.6855    8.1946 C.2       2 RES2    0.0000
     10 C2         4.8941    4.6336    6.5440 C.2       1 RES1    0.0000
     11 C3         2.1812   -2.8910    9.3428 C.2       2 RES2    0.0000
     12 C4         5.0222    5.2712    5.2855 C.2       1 RES1    0.0000
     13 C5         1.9668   -3.6855   10.4045 C.2       2 RES2    0.0000
     14 C6         4.6720    4.3632    4.3599 C.2       1 RES1    0.0000
     15 C7         1.2818   -6.0190   10.7863 C.2       2 RES2    0.0000
     16 C8         3.9425    2.0063    4.3451 C.2       1 RES1    0.0000
     17 C9         0.9320   -7.1807   10.2240 C.2       2 RES2    0.0000
     18 C10        3.6718    0.9280    5.0909 C.2       1 RES1    0.0000
     19 C11        0.8647   -7.2842    8.8316 C.2       2 RES2    0.0000
     20 C12        3.7813    1.0015    6.4841 C.2       1 RES1    0.0000
     21 C13        1.1678   -6.2426    7.9948 C.2       2 RES2    0.0000
     22 C14        4.1752    2.1332    7.1403 C.2       1 RES1    0.0000
     23 C15        1.5558   -4.9941    8.5845 C.2       2 RES2    0.0000
     24 C16        4.4611    3.2949    6.3583 C.2       1 RES1    0.0000
     25 C17        1.0922   -6.4796    6.5196 C.3       2 RES2    0.0000
     26 C18        4.3308    2.0798    8.6429 C.3       1 RES1    0.0000
     27 C19        2.6493   -1.4622    9.4383 C.3       2 RES2    0.0000
     28 C20        5.4491    6.6833    4.9740 C.3       1 RES1    0.0000
     29 H1         4.5625    4.3732    3.4403 H         1 RES1    0.0000
     30 H2         3.8990    2.0030    3.3959 H         1 RES1    0.0000
     31 H3         3.3927    0.1001    4.6759 H         1 RES1    0.0000
     32 H4         3.5953    0.2337    6.9694 H         1 RES1    0.0000
     33 H5         4.1688    1.1016    8.9596 H         1 RES1    0.0000
     34 H6         5.2790    2.2367    8.8856 H         1 RES1    0.0000
     35 H7         3.7579    2.6039    9.0114 H         1 RES1    0.0000
     36 H8         6.3057    6.9437    5.3565 H         1 RES1    0.0000
     37 H9         4.7540    7.4110    5.4379 H         1 RES1    0.0000
     38 H10        5.4966    6.8435    4.0692 H         1 RES1    0.0000
     39 H11        1.9506   -0.8012    8.9818 H         2 RES2    0.0000
     40 H12        3.5206   -1.3019    8.9374 H         2 RES2    0.0000
     41 H13        2.7742   -1.1684   10.3653 H         2 RES2    0.0000
     42 H14        1.9928   -3.4718   11.3123 H         2 RES2    0.0000
     43 H15        1.3084   -5.9088   11.6897 H         2 RES2    0.0000
     44 H16        0.7237   -7.9118   10.8018 H         2 RES2    0.0000
     45 H17        0.5782   -8.1121    8.3973 H         2 RES2    0.0000
     46 H18        0.5887   -5.9422    6.2074 H         2 RES2    0.0000
     47 H19        1.9734   -6.3762    5.9706 H         2 RES2    0.0000
     48 H20        0.6455   -7.4444    6.3109 H         2 RES2    0.0000
@<TRIPOS>BOND
     1    1    5 2
     2    2    6 2
     3    3    5 2
     4    4    6 2
     5    5   10 1
     6    6    9 1
     7    7   13 1
     8    8   14 1
     9    9   11 1
    10   10   12 1
    11   11   13 2
    12   12   14 2
    13   13   42 1
    14   14   29 1
    15   15    7 1
    16   16    8 1
    17   17   15 2
    18   18   16 2
    19   19   17 1
    20   20   18 1
    21   21   19 2
    22   22   20 2
    23   23    7 1
    24   24    8 1
    25   25   21 1
    26   26   22 1
    27   27   11 1
    28   28   12 1
    29   30   16 1
    30   31   18 1
    31   32   20 1
    32   33   26 1
    33   34   26 1
    34   35   26 1
    35   36   28 1
    36   37   28 1
    37   38   28 1
    38   39   27 1
    39   40   27 1
    40   41   27 1
    41   43   15 1
    42   44   17 1
    43   45   19 1
    44   46   25 1
    45   47   25 1
    46   48   25 1
    47    9   23 2
    48   10   24 2
    49   21   23 1
    50   22   24 1
@<TRIPOS>SUBSTRUCTURE
     1 RES1 1
     2 RES2 2

@<TRIPOS>CRYSIN
   7.4450   33.3830    7.7550  90.0000 107.4400  90.0000 231 1

