# MOL2 file generated by ConQuest
# Please check atom types

@<TRIPOS>MOLECULE
VOPZAB
    21    22     1
SMALL
NO_CHARGES
****
Generated from CSD

@<TRIPOS>ATOM
      1 O1        -1.2178   -2.9903    6.2098 O.2       1 RES1    0.0000
      2 O2        -2.0114   -1.6616    4.6762 O.2       1 RES1    0.0000
      3 N1        -1.6468   -1.8825    5.8443 N.pl3     1 RES1    0.0000
      4 N2        -2.1729    0.4130    6.4915 N.pl3     1 RES1    0.0000
      5 C1        -1.4630    0.3618    8.6317 C.2       1 RES1    0.0000
      6 C2        -1.2700   -0.8948    8.1261 C.2       1 RES1    0.0000
      7 C3        -1.7002   -0.8644    6.7890 C.2       1 RES1    0.0000
      8 C4        -2.7065    0.9621    5.3365 C.2       1 RES1    0.0000
      9 C5        -3.1041    2.2555    5.3489 C.2       1 RES1    0.0000
     10 C6        -2.9949    3.0431    6.4942 C.2       1 RES1    0.0000
     11 C7        -2.4604    2.5165    7.6245 C.2       1 RES1    0.0000
     12 C8        -2.0294    1.1750    7.6478 C.2       1 RES1    0.0000
     13 C9        -0.7345   -2.0762    8.8702 C.3       1 RES1    0.0000
     14 H1        -1.3437    0.6243    9.5160 H         1 RES1    0.0000
     15 H2        -2.6292    0.4002    4.5484 H         1 RES1    0.0000
     16 H3        -3.4523    2.6573    4.5210 H         1 RES1    0.0000
     17 H4        -3.3156    3.9700    6.5272 H         1 RES1    0.0000
     18 H5        -2.4443    3.0095    8.4373 H         1 RES1    0.0000
     19 H6         0.0714   -2.5133    8.3961 H         1 RES1    0.0000
     20 H7        -1.4505   -2.7854    8.9801 H         1 RES1    0.0000
     21 H8        -0.5116   -1.8729    9.7702 H         1 RES1    0.0000
@<TRIPOS>BOND
     1    1    3 2
     2    2    3 2
     3    3    7 1
     4    4    7 1
     5    5    6 1
     6    6    7 2
     7    8    4 1
     8    9    8 2
     9   10    9 1
    10   11   10 2
    11   12    4 1
    12   13    6 1
    13   14    5 1
    14   15    8 1
    15   16    9 1
    16   17   10 1
    17   18   11 1
    18   19   13 1
    19   20   13 1
    20   21   13 1
    21    5   12 2
    22   11   12 1
@<TRIPOS>SUBSTRUCTURE
     1 RES1 1

@<TRIPOS>CRYSIN
   7.4860   16.0080    7.8580  90.0000 119.0300  90.0000  14 1

