# MOL2 file generated by ConQuest
# Please check atom types

@<TRIPOS>MOLECULE
VOPZIJ
    21    22     1
SMALL
NO_CHARGES
****
Generated from CSD

@<TRIPOS>ATOM
      1 O1         2.1690   -0.9720    8.4134 O.2       1 RES1    0.0000
      2 O2         0.5013   -2.2109    9.0570 O.2       1 RES1    0.0000
      3 N1         0.9918   -1.3622    8.2983 N.pl3     1 RES1    0.0000
      4 N2        -0.3926    0.2931    5.4555 N.pl3     1 RES1    0.0000
      5 C1         0.2044   -0.8412    7.2600 C.2       1 RES1    0.0000
      6 C2        -1.1503   -1.1849    6.9666 C.2       1 RES1    0.0000
      7 C3        -1.4882   -0.4820    5.8540 C.2       1 RES1    0.0000
      8 C4        -0.3281    1.1596    4.3911 C.2       1 RES1    0.0000
      9 C5         0.8207    1.8489    4.1857 C.2       1 RES1    0.0000
     10 C6         1.9313    1.6623    5.0347 C.2       1 RES1    0.0000
     11 C7         1.8659    0.8014    6.0904 C.2       1 RES1    0.0000
     12 C8         0.6715    0.0910    6.3231 C.2       1 RES1    0.0000
     13 C9        -2.0622   -2.1147    7.7043 C.3       1 RES1    0.0000
     14 H1        -2.3752   -0.4548    5.3095 H         1 RES1    0.0000
     15 H2        -1.2166    1.2004    3.7748 H         1 RES1    0.0000
     16 H3         0.8496    2.4289    3.4282 H         1 RES1    0.0000
     17 H4         2.7991    2.1335    4.8639 H         1 RES1    0.0000
     18 H5         2.6212    0.6518    6.7327 H         1 RES1    0.0000
     19 H6        -2.2007   -1.8756    8.6139 H         1 RES1    0.0000
     20 H7        -1.7577   -3.0291    7.6981 H         1 RES1    0.0000
     21 H8        -3.0554   -2.0772    7.2773 H         1 RES1    0.0000
@<TRIPOS>BOND
     1    1    3 2
     2    2    3 2
     3    3    5 1
     4    4    7 1
     5    5    6 1
     6    6    7 2
     7    7   14 1
     8    8    4 1
     9    9    8 2
    10   10    9 1
    11   11   10 2
    12   12    4 1
    13   13    6 1
    14   15    8 1
    15   16    9 1
    16   17   10 1
    17   18   11 1
    18   19   13 1
    19   20   13 1
    20   21   13 1
    21    5   12 2
    22   11   12 1
@<TRIPOS>SUBSTRUCTURE
     1 RES1 1

@<TRIPOS>CRYSIN
  14.0100    4.6890   14.0950  90.0000 118.5900  90.0000 231 1

