# MOL2 file generated by ConQuest
# Please check atom types

@<TRIPOS>MOLECULE
VOPZEF
    24    25     1
SMALL
NO_CHARGES
****
Generated from CSD

@<TRIPOS>ATOM
      1 O1         3.6440    5.9736    3.5131 O.2       1 RES1    0.0000
      2 O2         3.4770    4.4819    1.9466 O.2       1 RES1    0.0000
      3 N1         3.6007    4.7915    3.1421 N.pl3     1 RES1    0.0000
      4 N2         3.8471    3.9917    5.4343 N.pl3     1 RES1    0.0000
      5 C1         3.8896    1.7732    5.0424 C.2       1 RES1    0.0000
      6 C2         3.7193    2.3810    3.8269 C.2       1 RES1    0.0000
      7 C3         3.6906    3.7662    4.0664 C.2       1 RES1    0.0000
      8 C4         3.8754    5.1556    6.1754 C.2       1 RES1    0.0000
      9 C5         4.0485    5.0618    7.5078 C.2       1 RES1    0.0000
     10 C6         4.1891    3.8208    8.1482 C.2       1 RES1    0.0000
     11 C7         4.1411    2.6597    7.4398 C.2       1 RES1    0.0000
     12 C8         3.9679    2.7466    6.0438 C.2       1 RES1    0.0000
     13 C9         4.2242    1.3096    8.0739 C.3       1 RES1    0.0000
     14 C10        3.6193    1.6807    2.5153 C.3       1 RES1    0.0000
     15 H1         3.9695    0.8264    5.1885 H         1 RES1    0.0000
     16 H2         3.7375    6.0086    5.6692 H         1 RES1    0.0000
     17 H3         4.0338    5.8965    8.0095 H         1 RES1    0.0000
     18 H4         4.3064    3.7816    9.0889 H         1 RES1    0.0000
     19 H5         3.3632    0.9104    8.2453 H         1 RES1    0.0000
     20 H6         4.7319    0.6303    7.5650 H         1 RES1    0.0000
     21 H7         4.6489    1.3166    8.8893 H         1 RES1    0.0000
     22 H8         2.7942    1.7928    2.1044 H         1 RES1    0.0000
     23 H9         3.7265    0.6723    2.6033 H         1 RES1    0.0000
     24 H10        4.3093    1.9748    1.8595 H         1 RES1    0.0000
@<TRIPOS>BOND
     1    1    3 2
     2    2    3 2
     3    3    7 1
     4    4    7 1
     5    5    6 1
     6    6    7 2
     7    8    4 1
     8    9    8 2
     9   10    9 1
    10   11   10 2
    11   12    4 1
    12   13   11 1
    13   14    6 1
    14   15    5 1
    15   16    8 1
    16   17    9 1
    17   18   10 1
    18   19   13 1
    19   20   13 1
    20   21   13 1
    21   22   14 1
    22   23   14 1
    23   24   14 1
    24    5   12 2
    25   11   12 1
@<TRIPOS>SUBSTRUCTURE
     1 RES1 1

@<TRIPOS>CRYSIN
   7.0280   14.0060    9.1490  90.0000  97.5000  90.0000  14 2

