# MOL2 file generated by ConQuest
# Please check atom types

@<TRIPOS>MOLECULE
VOQJER
    22    22     1
SMALL
NO_CHARGES
****
Generated from CSD

@<TRIPOS>ATOM
      1 O1         4.5762    2.7377   -1.6295 O.2       1 RES1    0.0000
      2 O2         2.5353    2.6318   -2.2637 O.2       1 RES1    0.0000
      3 N1         3.4122    2.4254   -1.4446 N.pl3     1 RES1    0.0000
      4 N2         4.5817    1.0288    3.0547 N.pl3     1 RES1    0.0000
      5 H1         5.3739    1.3404    2.9398 H         1 RES1    0.0000
      6 H2         4.3639    0.6738    3.8070 H         1 RES1    0.0000
      7 C1         0.5159   -0.4061    3.7249 C.3       1 RES1    0.0000
      8 H3         0.3909   -0.7706    4.6047 H         1 RES1    0.0000
      9 H4         0.3095   -1.0759    3.0680 H         1 RES1    0.0000
     10 H5        -0.0647    0.3483    3.6058 H         1 RES1    0.0000
     11 C2         1.9581    0.0360    3.5606 C.3       1 RES1    0.0000
     12 H6         2.1547    0.6872    4.2522 H         1 RES1    0.0000
     13 H7         2.5283   -0.7323    3.7162 H         1 RES1    0.0000
     14 C3         2.3315    0.6362    2.2310 C.ar      1 RES1    0.0000
     15 C4         1.4226    0.7718    1.1918 C.ar      1 RES1    0.0000
     16 H8         0.5537    0.4642    1.3141 H         1 RES1    0.0000
     17 C5         1.7582    1.3432   -0.0109 C.ar      1 RES1    0.0000
     18 H9         1.1307    1.4266   -0.6927 H         1 RES1    0.0000
     19 C6         3.0431    1.7868   -0.1793 C.ar      1 RES1    0.0000
     20 C7         3.9956    1.6718    0.8079 C.ar      1 RES1    0.0000
     21 H10        4.8622    1.9742    0.6624 H         1 RES1    0.0000
     22 C8         3.6470    1.0992    2.0216 C.ar      1 RES1    0.0000
@<TRIPOS>BOND
     1    1    3 2
     2    2    3 2
     3    3   19 1
     4    4    5 1
     5    6    4 1
     6    7    8 1
     7    9    7 1
     8   10    7 1
     9   11    7 1
    10   12   11 1
    11   13   11 1
    12   14   11 1
    13   15   14 ar
    14   16   15 1
    15   17   15 ar
    16   18   17 1
    17   19   17 ar
    18   20   19 ar
    19   21   20 1
    20   22    4 1
    21   14   22 ar
    22   20   22 ar
@<TRIPOS>SUBSTRUCTURE
     1 RES1 1

@<TRIPOS>CRYSIN
  23.0370    3.9540   18.3930  90.0000 104.5100  90.0000  15 1

