# MOL2 file generated by ConQuest
# Please check atom types

@<TRIPOS>MOLECULE
VOQKES
    37    38     1
SMALL
NO_CHARGES
****
Generated from CSD

@<TRIPOS>ATOM
      1 O1         0.9708   13.0555   12.7906 O.2       1 RES1    0.0000
      2 O2         0.8529   15.1504   13.3522 O.2       1 RES1    0.0000
      3 O3         3.1986   18.4172   10.9170 O.2       1 RES1    0.0000
      4 O4         4.3788   17.9668    9.1649 O.2       1 RES1    0.0000
      5 N1         4.5491   15.5357    8.2688 N.3       1 RES1    0.0000
      6 N2         4.9797   14.5500    7.4096 N.2       1 RES1    0.0000
      7 N3         1.2430   14.2410   12.6155 N.pl3     1 RES1    0.0000
      8 N4         3.6422   17.6139   10.0995 N.pl3     1 RES1    0.0000
      9 C1         3.3002   16.2188   10.2391 C.ar      1 RES1    0.0000
     10 C2         2.4471   15.8934   11.2913 C.ar      1 RES1    0.0000
     11 H1         2.1144   16.5567   11.8518 H         1 RES1    0.0000
     12 C3         2.1057   14.5806   11.4878 C.ar      1 RES1    0.0000
     13 C4         2.6022   13.5644   10.6637 C.ar      1 RES1    0.0000
     14 H2         2.3785   12.6773   10.8304 H         1 RES1    0.0000
     15 C5         3.4174   13.8808    9.6119 C.ar      1 RES1    0.0000
     16 H3         3.7361   13.2006    9.0631 H         1 RES1    0.0000
     17 C6         3.7879   15.2233    9.3410 C.ar      1 RES1    0.0000
     18 C7         5.5219   14.9811    6.3133 C.2       1 RES1    0.0000
     19 C8         6.0155   13.9288    5.3860 C.ar      1 RES1    0.0000
     20 C9         5.6901   12.5877    5.6090 C.ar      1 RES1    0.0000
     21 H4         5.1626   12.3627    6.3408 H         1 RES1    0.0000
     22 C10        6.1372   11.5906    4.7641 C.ar      1 RES1    0.0000
     23 H5         5.9018   10.7078    4.9352 H         1 RES1    0.0000
     24 C11        6.9389   11.8870    3.6530 C.ar      1 RES1    0.0000
     25 C12        7.2667   13.2189    3.4300 C.ar      1 RES1    0.0000
     26 H6         7.7995   13.4406    2.7010 H         1 RES1    0.0000
     27 C13        6.8148   14.2308    4.2777 C.ar      1 RES1    0.0000
     28 H7         7.0465   15.1149    4.1041 H         1 RES1    0.0000
     29 C14        5.6344   16.4407    5.9644 C.3       1 RES1    0.0000
     30 H8         4.7784   16.8623    6.0742 H         1 RES1    0.0000
     31 H9         5.9213   16.5313    5.0529 H         1 RES1    0.0000
     32 H10        6.2743   16.8593    6.5448 H         1 RES1    0.0000
     33 C15        7.4190   10.7870    2.7383 C.3       1 RES1    0.0000
     34 H11        6.6806   10.2203    2.5033 H         1 RES1    0.0000
     35 H12        8.0898   10.2680    3.1879 H         1 RES1    0.0000
     36 H13        7.7922   11.1730    1.9425 H         1 RES1    0.0000
     37 H14        4.7644   16.3450    8.1381 H         1 RES1    0.0000
@<TRIPOS>BOND
     1    1    7 2
     2    2    7 2
     3    3    8 2
     4    4    8 2
     5    5    6 1
     6    6   18 2
     7    7   12 1
     8    8    9 1
     9    9   10 ar
    10   10   11 1
    11   12   10 ar
    12   13   12 ar
    13   14   13 1
    14   15   13 ar
    15   16   15 1
    16   17    5 1
    17   18   19 1
    18   19   20 ar
    19   20   21 1
    20   22   20 ar
    21   23   22 1
    22   24   22 ar
    23   25   24 ar
    24   26   25 1
    25   27   19 ar
    26   28   27 1
    27   29   18 1
    28   30   29 1
    29   31   29 1
    30   32   29 1
    31   33   24 1
    32   34   33 1
    33   35   33 1
    34   36   33 1
    35   37    5 1
    36    9   17 ar
    37   15   17 ar
    38   25   27 ar
@<TRIPOS>SUBSTRUCTURE
     1 RES1 1

@<TRIPOS>CRYSIN
   7.6948   14.9092   12.5224  90.0000  91.7780  90.0000  14 1

