# MOL2 file generated by ConQuest
# Please check atom types

@<TRIPOS>MOLECULE
VOQQAU
    33    32     1
SMALL
NO_CHARGES
****
Generated from CSD

@<TRIPOS>ATOM
      1 O1        11.9330    3.3617    2.0246 O.3       1 RES1    0.0000
      2 O2        14.2920    5.0910    4.8614 O.2       1 RES1    0.0000
      3 O3        15.1438    6.3417    3.3445 O.2       1 RES1    0.0000
      4 O4        14.0772    5.1053    0.4073 O.2       1 RES1    0.0000
      5 O5        12.8569    6.3585    1.6359 O.2       1 RES1    0.0000
      6 N1        14.4595    5.4187    3.7075 N.pl3     1 RES1    0.0000
      7 N2        13.5764    5.4181    1.4540 N.pl3     1 RES1    0.0000
      8 C1        10.8256    2.5827    2.3573 C.3       1 RES1    0.0000
      9 H1        11.0503    2.0117    3.1088 H         1 RES1    0.0000
     10 C2        12.4974    4.0426    3.1304 C.3       1 RES1    0.0000
     11 H2        12.5924    3.4449    3.8885 H         1 RES1    0.0000
     12 H3        11.9414    4.7924    3.3907 H         1 RES1    0.0000
     13 C3        13.8403    4.5181    2.6599 C.3       1 RES1    0.0000
     14 C4        14.8153    3.4287    2.3657 C.3       1 RES1    0.0000
     15 H4        15.6185    3.8080    2.0008 H         1 RES1    0.0000
     16 H5        14.4317    2.8192    1.7302 H         1 RES1    0.0000
     17 H6        15.0229    2.9576    3.1757 H         1 RES1    0.0000
     18 O1A        9.7182    3.3617    2.6899 O.3       1 RES1    0.0000
     19 O2A        7.3593    5.0910   -0.1469 O.2       1 RES1    0.0000
     20 O3A        6.5074    6.3417    1.3700 O.2       1 RES1    0.0000
     21 O4A        7.5741    5.1053    4.3072 O.2       1 RES1    0.0000
     22 O5A        8.7943    6.3585    3.0786 O.2       1 RES1    0.0000
     23 N1A        7.1917    5.4187    1.0070 N.pl3     1 RES1    0.0000
     24 N2A        8.0748    5.4181    3.2606 N.pl3     1 RES1    0.0000
     25 H1A       10.6009    2.0117    1.6058 H         1 RES1    0.0000
     26 C2A        9.1538    4.0426    1.5841 C.3       1 RES1    0.0000
     27 H2A        9.0589    3.4449    0.8260 H         1 RES1    0.0000
     28 H3A        9.7098    4.7924    1.3238 H         1 RES1    0.0000
     29 C3A        7.8109    4.5181    2.0546 C.3       1 RES1    0.0000
     30 C4A        6.8359    3.4287    2.3488 C.3       1 RES1    0.0000
     31 H4A        6.0327    3.8080    2.7137 H         1 RES1    0.0000
     32 H5A        7.2195    2.8192    2.9843 H         1 RES1    0.0000
     33 H6A        6.6284    2.9576    1.5388 H         1 RES1    0.0000
@<TRIPOS>BOND
     1    1    8 1
     2    2    6 2
     3    3    6 2
     4    4    7 2
     5    5    7 2
     6    6   13 1
     7    7   13 1
     8    8    9 1
     9   10    1 1
    10   11   10 1
    11   12   10 1
    12   13   10 1
    13   14   13 1
    14   15   14 1
    15   16   14 1
    16   17   14 1
    17   18    8 1
    18   19   23 2
    19   20   23 2
    20   21   24 2
    21   22   24 2
    22   23   29 1
    23   24   29 1
    24   25    8 1
    25   26   18 1
    26   27   26 1
    27   28   26 1
    28   29   26 1
    29   30   29 1
    30   31   30 1
    31   32   30 1
    32   33   30 1
@<TRIPOS>SUBSTRUCTURE
     1 RES1 1

@<TRIPOS>CRYSIN
  23.3300    6.2070   10.0090  90.0000 109.6000  90.0000  15 1

