# MOL2 file generated by ConQuest
# Please check atom types

@<TRIPOS>MOLECULE
VOQTAX
    46    38     2
SMALL
NO_CHARGES
****
Generated from CSD

@<TRIPOS>ATOM
      1 O1         2.2966    1.8115   -0.4399 O.3       1 RES1    0.0000
      2 O2         0.5944    7.3700    4.5839 O.3       1 RES1    0.0000
      3 N1         2.4486    2.8235    0.5346 N.2       1 RES1    0.0000
      4 C1         0.6243    0.7719   -1.8274 C.2       1 RES1    0.0000
      5 C2        -0.6840    0.9998   -2.5378 C.3       1 RES1    0.0000
      6 H1        -0.7833    1.9508   -2.7065 H         1 RES1    0.0000
      7 H2        -1.4068    0.7299   -1.9496 H         1 RES1    0.0000
      8 C3         1.0840   -1.3131   -3.1315 C.3       1 RES1    0.0000
      9 H3         1.2353   -2.1966   -2.7601 H         1 RES1    0.0000
     10 H4         1.6716   -1.2021   -3.8949 H         1 RES1    0.0000
     11 C4         1.4002   -0.2732   -2.0988 C.2       1 RES1    0.0000
     12 H5         2.1904   -0.3647   -1.6167 H         1 RES1    0.0000
     13 C5         0.9893    1.7636   -0.8197 C.2       1 RES1    0.0000
     14 C6         0.3003    2.7025   -0.1404 C.2       1 RES1    0.0000
     15 H6        -0.6064    2.8971   -0.2125 H         1 RES1    0.0000
     16 C7         1.2499    3.3311    0.7076 C.2       1 RES1    0.0000
     17 C8         1.0439    4.3979    1.7000 C.ar      1 RES1    0.0000
     18 C9        -0.1139    5.1564    1.7270 C.ar      1 RES1    0.0000
     19 H7        -0.7804    4.9854    1.1019 H         1 RES1    0.0000
     20 C10       -0.3080    6.1617    2.6584 C.ar      1 RES1    0.0000
     21 H8        -1.0925    6.6618    2.6506 H         1 RES1    0.0000
     22 C11        0.6732    6.4185    3.6011 C.ar      1 RES1    0.0000
     23 C12        1.8336    5.6584    3.5970 C.ar      1 RES1    0.0000
     24 H9         2.4927    5.8207    4.2322 H         1 RES1    0.0000
     25 C13        2.0171    4.6736    2.6683 C.ar      1 RES1    0.0000
     26 H10        2.8036    4.1770    2.6791 H         1 RES1    0.0000
     27 C14       -0.5503    8.2155    4.6134 C.3       1 RES1    0.0000
     28 H11       -0.6022    8.7131    3.7941 H         1 RES1    0.0000
     29 H12       -0.4807    8.8231    5.3527 H         1 RES1    0.0000
     30 H13       -1.3408    7.6800    4.7131 H         1 RES1    0.0000
     31 C15       -0.8273    0.2632   -3.8467 C.3       1 RES1    0.0000
     32 H14       -0.2481    0.6567   -4.5170 H         1 RES1    0.0000
     33 H15       -1.7431    0.3162   -4.1610 H         1 RES1    0.0000
     34 C16       -0.4398   -1.1835   -3.6035 C.3       1 RES1    0.0000
     35 H16       -0.5667   -1.6905   -4.4206 H         1 RES1    0.0000
     36 H17       -1.0202   -1.5614   -2.9244 H         1 RES1    0.0000
     37 C17       -1.0893   -0.3287   -3.2651 Du        2 SUP2    0.0000
     38 C18        0.0720   -0.8999   -4.0723 Du        2 SUP2    0.0000
     39 H18       -0.5900    1.7174   -3.1840 Du        2 SUP2    0.0000
     40 H19       -1.3691    1.2523   -1.8992 Du        2 SUP2    0.0000
     41 H20       -1.3742   -0.9815   -2.6068 Du        2 SUP2    0.0000
     42 H21       -1.8375   -0.1561   -3.8587 Du        2 SUP2    0.0000
     43 H22       -0.2255   -1.6576   -4.5992 Du        2 SUP2    0.0000
     44 H23        0.4272   -0.2259   -4.6725 Du        2 SUP2    0.0000
     45 H24        1.8947   -1.5286   -3.6178 Du        2 SUP2    0.0000
     46 H25        0.7847   -2.1191   -2.6835 Du        2 SUP2    0.0000
@<TRIPOS>BOND
     1    1    3 1
     2    2   22 1
     3    3   16 2
     4    4    5 1
     5    5    6 1
     6    7    5 1
     7    8    9 1
     8   10    8 1
     9   11    4 2
    10   12   11 1
    11   13    1 1
    12   14   13 2
    13   15   14 1
    14   16   14 1
    15   17   16 1
    16   18   17 ar
    17   19   18 1
    18   20   18 ar
    19   21   20 1
    20   22   20 ar
    21   23   22 ar
    22   24   23 1
    23   25   17 ar
    24   26   25 1
    25   27    2 1
    26   28   27 1
    27   29   27 1
    28   30   27 1
    29   31    5 1
    30   32   31 1
    31   33   31 1
    32   34    8 1
    33   35   34 1
    34   36   34 1
    35    4   13 1
    36    8   11 1
    37   23   25 ar
    38   31   34 1
@<TRIPOS>SUBSTRUCTURE
     1 RES1 1
     2 SUP2 37

@<TRIPOS>CRYSIN
   5.8690   10.9646   11.4810  77.8890  75.7280  80.2620   2 1

