# MOL2 file generated by ConQuest
# Please check atom types

@<TRIPOS>MOLECULE
VOQVEE
    22    22     1
SMALL
NO_CHARGES
****
Generated from CSD

@<TRIPOS>ATOM
      1 N1         2.4850    5.6835    3.9075 N.3       1 RES1    0.0000
      2 N2         1.9887    6.5223    2.9757 N.2       1 RES1    0.0000
      3 C1         0.9233    5.8559    2.5406 C.2       1 RES1    0.0000
      4 N3         0.6878    4.6550    3.1148 N.2       1 RES1    0.0000
      5 C2         1.6916    4.5941    3.9560 C.2       1 RES1    0.0000
      6 C3         3.6678    6.0863    4.6790 C.3       1 RES1    0.0000
      7 H1         4.3783    5.4231    4.5570 H         1 RES1    0.0000
      8 H2         3.4338    6.1446    5.6288 H         1 RES1    0.0000
      9 H3         3.9792    6.9611    4.3657 H         1 RES1    0.0000
     10 C4        -0.0012    6.3924    1.5043 C.3       1 RES1    0.0000
     11 N4         0.0639    7.9156    1.3587 N.pl3     1 RES1    0.0000
     12 O1        -0.9562    8.5470    1.5323 O.2       1 RES1    0.0000
     13 O2         1.1615    8.3214    1.0362 O.2       1 RES1    0.0000
     14 N5         0.2746    5.8542    0.0908 N.pl3     1 RES1    0.0000
     15 O3        -0.1592    6.5216   -0.8331 O.2       1 RES1    0.0000
     16 O4         0.8857    4.8148    0.0312 O.2       1 RES1    0.0000
     17 N6        -1.4380    5.9888    1.8579 N.pl3     1 RES1    0.0000
     18 O5        -2.0798    5.3916    1.0239 O.2       1 RES1    0.0000
     19 O6        -1.7785    6.2951    2.9859 O.2       1 RES1    0.0000
     20 N7         1.8823    3.4927    4.8880 N.pl3     1 RES1    0.0000
     21 O7         1.0880    2.5730    4.8182 O.2       1 RES1    0.0000
     22 O8         2.8157    3.5829    5.6710 O.2       1 RES1    0.0000
@<TRIPOS>BOND
     1    1    2 1
     2    2    3 2
     3    3    4 1
     4    4    5 2
     5    5    1 1
     6    6    1 1
     7    7    6 1
     8    8    6 1
     9    9    6 1
    10   10    3 1
    11   11   10 1
    12   12   11 2
    13   13   11 2
    14   14   10 1
    15   15   14 2
    16   16   14 2
    17   17   10 1
    18   18   17 2
    19   19   17 2
    20   20    5 1
    21   21   20 2
    22   22   20 2
@<TRIPOS>SUBSTRUCTURE
     1 RES1 1

@<TRIPOS>CRYSIN
  11.7035    6.2042   13.5666  90.0000  90.0000  90.0000  33 1

