# MOL2 file generated by ConQuest
# Please check atom types

@<TRIPOS>MOLECULE
VORDAH
    26    28     1
SMALL
NO_CHARGES
****
Generated from CSD

@<TRIPOS>ATOM
      1 C1         1.3014    3.0513   -0.3904 C.ar      1 RES1    0.0000
      2 C2         2.4547    2.3436   -0.2307 C.ar      1 RES1    0.0000
      3 C3         3.5718    2.9397   -0.7950 C.ar      1 RES1    0.0000
      4 C4         3.5012    4.2434   -1.1783 C.ar      1 RES1    0.0000
      5 C5         2.3249    4.9409   -1.0275 C.ar      1 RES1    0.0000
      6 C6         1.2308    4.3651   -0.4490 C.ar      1 RES1    0.0000
      7 C7         0.0699    2.4159    0.5963 C.3       1 RES1    0.0000
      8 O1        -0.6780    1.6474   -0.3177 O.3       1 RES1    0.0000
      9 C8         0.4745    1.5637    1.7923 C.2       1 RES1    0.0000
     10 O2         0.5751    0.3399    1.7444 O.2       1 RES1    0.0000
     11 N1         0.7094    2.2003    2.9405 N.am      1 RES1    0.0000
     12 C9         1.2646    1.5891    4.1242 C.3       1 RES1    0.0000
     13 C10        1.0127    2.4552    5.3078 C.2       1 RES1    0.0000
     14 C11        0.4883    3.6499    5.1996 C.2       1 RES1    0.0000
     15 C12        0.1459    4.2371    3.8704 C.3       1 RES1    0.0000
     16 O3         0.9129    3.5877    2.8429 O.3       1 RES1    0.0000
     17 N2        -1.2623    4.2079    3.6184 N.am      1 RES1    0.0000
     18 C13       -1.8466    5.1032    2.7489 C.2       1 RES1    0.0000
     19 O4        -1.2208    5.8857    2.0887 O.2       1 RES1    0.0000
     20 C14       -3.3369    4.9282    2.8553 C.3       1 RES1    0.0000
     21 C15       -3.5357    4.1610    4.1224 C.3       1 RES1    0.0000
     22 C16       -2.2312    3.3861    4.3460 C.3       1 RES1    0.0000
     23 C17       -2.3525    1.9695    3.8207 C.2       1 RES1    0.0000
     24 O5        -2.3080    1.0082    4.5004 O.2       1 RES1    0.0000
     25 O6        -2.5714    1.9061    2.5288 O.3       1 RES1    0.0000
     26 C18       -2.8201    0.6062    1.9698 C.3       1 RES1    0.0000
@<TRIPOS>BOND
     1    1    2 ar
     2    2    3 ar
     3    3    4 ar
     4    4    5 ar
     5    5    6 ar
     6    6    1 ar
     7    7    1 1
     8    8    7 1
     9    9    7 1
    10   10    9 2
    11   11    9 1
    12   12   11 1
    13   13   12 1
    14   14   13 2
    15   15   14 1
    16   16   11 1
    17   17   15 1
    18   18   17 1
    19   19   18 2
    20   20   18 1
    21   21   20 1
    22   22   17 1
    23   23   22 1
    24   24   23 2
    25   25   23 1
    26   26   25 1
    27   15   16 1
    28   21   22 1
@<TRIPOS>SUBSTRUCTURE
     1 RES1 1

@<TRIPOS>CRYSIN
   7.6780   12.6820   17.7460  90.0000  90.0000  90.0000  18 2

