# MOL2 file generated by ConQuest
# Please check atom types

@<TRIPOS>MOLECULE
VORDOX
    62    67     1
SMALL
NO_CHARGES
****
Generated from CSD

@<TRIPOS>ATOM
      1 O1         2.2696    6.9165    1.6078 O.3       1 RES1    0.0000
      2 O2         2.1891    7.2407    3.8379 O.3       1 RES1    0.0000
      3 N1         2.6720    4.2392    5.3420 N.am      1 RES1    0.0000
      4 O3         0.5877    4.8036    4.5564 O.2       1 RES1    0.0000
      5 C1         4.0064    5.6677    4.1375 C.ar      1 RES1    0.0000
      6 N2         5.6103    2.0662   -0.8020 N.pl3     1 RES1    0.0000
      7 C2         2.5942    5.8835    3.6659 C.3       1 RES1    0.0000
      8 C3         3.1693    4.7003    1.3996 C.ar      1 RES1    0.0000
      9 C4         3.9906    4.6919    5.1246 C.ar      1 RES1    0.0000
     10 C5         2.2533    5.6130    2.1610 C.3       1 RES1    0.0000
     11 H1         1.3408    5.2598    2.1045 H         1 RES1    0.0000
     12 C6         4.7679    2.9781   -0.0212 C.ar      1 RES1    0.0000
     13 C7         5.1423    4.3129    5.7891 C.ar      1 RES1    0.0000
     14 H2         5.1296    3.6542    6.4458 H         1 RES1    0.0000
     15 O4         5.5881    0.8977   -0.5761 O.2       1 RES1    0.0000
     16 C8         3.0214    3.3302    1.5307 C.ar      1 RES1    0.0000
     17 H3         2.3682    2.9926    2.1006 H         1 RES1    0.0000
     18 C9         4.1312    5.1930    0.5322 C.ar      1 RES1    0.0000
     19 H4         4.2389    6.1119    0.4355 H         1 RES1    0.0000
     20 C10        1.7943    4.9296    4.5700 C.2       1 RES1    0.0000
     21 C11        6.3390    5.9355    4.4677 C.ar      1 RES1    0.0000
     22 H5         7.1424    6.3523    4.2514 H         1 RES1    0.0000
     23 C12        5.1745    6.3064    3.8136 C.ar      1 RES1    0.0000
     24 H6         5.1862    6.9748    3.1670 H         1 RES1    0.0000
     25 C13        3.8283    2.4565    0.8292 C.ar      1 RES1    0.0000
     26 H7         3.7354    1.5364    0.9315 H         1 RES1    0.0000
     27 C14        2.6569    1.8350    5.9063 C.ar      1 RES1    0.0000
     28 C15        4.9281    4.3299   -0.1886 C.ar      1 RES1    0.0000
     29 H8         5.5660    4.6597   -0.7799 H         1 RES1    0.0000
     30 C16        2.2823    3.2300    6.3182 C.3       1 RES1    0.0000
     31 H9         1.3226    3.2730    6.4496 H         1 RES1    0.0000
     32 H10        2.7061    3.4319    7.1665 H         1 RES1    0.0000
     33 C17        2.0342    9.1685    2.4001 C.ar      1 RES1    0.0000
     34 C18        6.3168    4.9559    5.4347 C.ar      1 RES1    0.0000
     35 H11        7.1086    4.7194    5.8599 H         1 RES1    0.0000
     36 C19        1.1682   10.1553    2.8173 C.ar      1 RES1    0.0000
     37 H12        0.3399    9.9219    3.1709 H         1 RES1    0.0000
     38 C20        1.5205   11.4965    2.7151 C.ar      1 RES1    0.0000
     39 H13        0.9368   12.1562    3.0141 H         1 RES1    0.0000
     40 O5         3.1631   13.1419    2.0040 O.3       1 RES1    0.0000
     41 O6         6.2996    2.5238   -1.6638 O.2       1 RES1    0.0000
     42 C21        2.1309    1.2562    4.7673 C.ar      1 RES1    0.0000
     43 H14        1.5456    1.7391    4.2295 H         1 RES1    0.0000
     44 C22        3.2420    9.5424    1.8617 C.ar      1 RES1    0.0000
     45 H15        3.8378    8.8890    1.5739 H         1 RES1    0.0000
     46 C23        2.7234   11.8430    2.1750 C.ar      1 RES1    0.0000
     47 C24        3.5093    1.0815    6.6848 C.ar      1 RES1    0.0000
     48 H16        3.8723    1.4542    7.4556 H         1 RES1    0.0000
     49 C25        2.4708   -0.0415    4.4235 C.ar      1 RES1    0.0000
     50 H17        2.1243   -0.4210    3.6488 H         1 RES1    0.0000
     51 C26        3.5793   10.8641    1.7447 C.ar      1 RES1    0.0000
     52 H18        4.3963   11.0989    1.3683 H         1 RES1    0.0000
     53 C27        3.8313   -0.2061    6.3456 C.ar      1 RES1    0.0000
     54 H19        4.4049   -0.6984    6.8877 H         1 RES1    0.0000
     55 C28        2.4186   14.1550    2.6210 C.3       1 RES1    0.0000
     56 H20        1.5200   14.1432    2.2844 H         1 RES1    0.0000
     57 H21        2.8197   15.0063    2.4321 H         1 RES1    0.0000
     58 H22        2.4073   14.0107    3.5704 H         1 RES1    0.0000
     59 C29        3.3157   -0.7672    5.2201 C.ar      1 RES1    0.0000
     60 H23        3.5375   -1.6409    4.9914 H         1 RES1    0.0000
     61 C30        1.6706    7.7338    2.5894 C.3       1 RES1    0.0000
     62 H24        0.6971    7.6280    2.5657 H         1 RES1    0.0000
@<TRIPOS>BOND
     1    1   10 1
     2    2    7 1
     3    3    9 1
     4    4   20 2
     5    5    7 1
     6    6   12 1
     7    7   10 1
     8    8   10 1
     9    9    5 ar
    10   10   11 1
    11   12   25 ar
    12   13    9 ar
    13   14   13 1
    14   15    6 2
    15   16    8 ar
    16   17   16 1
    17   18    8 ar
    18   19   18 1
    19   20    3 1
    20   21   22 1
    21   23    5 ar
    22   24   23 1
    23   25   16 ar
    24   26   25 1
    25   27   30 1
    26   28   12 ar
    27   29   28 1
    28   30    3 1
    29   31   30 1
    30   32   30 1
    31   33   36 ar
    32   34   13 ar
    33   35   34 1
    34   36   37 1
    35   38   36 ar
    36   39   38 1
    37   40   46 1
    38   41    6 2
    39   42   27 ar
    40   43   42 1
    41   44   33 ar
    42   45   44 1
    43   46   38 ar
    44   47   27 ar
    45   48   47 1
    46   49   42 ar
    47   50   49 1
    48   51   44 ar
    49   52   51 1
    50   53   47 ar
    51   54   53 1
    52   55   40 1
    53   56   55 1
    54   57   55 1
    55   58   55 1
    56   59   49 ar
    57   60   59 1
    58   61    1 1
    59   62   61 1
    60    2   61 1
    61    7   20 1
    62   18   28 ar
    63   21   23 ar
    64   21   34 ar
    65   33   61 1
    66   46   51 ar
    67   53   59 ar
@<TRIPOS>SUBSTRUCTURE
     1 RES1 1

@<TRIPOS>CRYSIN
   8.9360   11.5010   13.1260  82.1980  79.0220  70.0370   2 1

