# MOL2 file generated by ConQuest
# Please check atom types

@<TRIPOS>MOLECULE
VORFUF
    78    82     1
SMALL
NO_CHARGES
****
Generated from CSD

@<TRIPOS>ATOM
      1 N1         3.4676   10.7003    2.3260 N.am      1 RES1    0.0000
      2 C1         3.8693   12.4962    0.7455 C.ar      1 RES1    0.0000
      3 C2         3.3234   11.0561    0.8780 C.3       1 RES1    0.0000
      4 C3         1.8327   10.9742    0.5067 C.ar      1 RES1    0.0000
      5 C4         5.7289   14.0250    1.0397 C.ar      1 RES1    0.0000
      6 H1         6.6438   14.1697    1.2534 H         1 RES1    0.0000
      7 C5         1.4078   10.4794   -0.7282 C.ar      1 RES1    0.0000
      8 H2         2.0474   10.1390   -1.3430 H         1 RES1    0.0000
      9 C6         4.1356   10.0905   -0.0167 C.ar      1 RES1    0.0000
     10 C7         4.1098    8.7149    0.2208 C.ar      1 RES1    0.0000
     11 H3         3.6518    8.3776    0.9848 H         1 RES1    0.0000
     12 C8         3.0635   13.5846    0.4154 C.ar      1 RES1    0.0000
     13 H4         2.1520   13.4435    0.1910 H         1 RES1    0.0000
     14 C9         4.7948   10.5547   -1.1597 C.ar      1 RES1    0.0000
     15 H5         4.8223   11.4856   -1.3430 H         1 RES1    0.0000
     16 C10        5.2203   12.7359    1.0195 C.ar      1 RES1    0.0000
     17 H6         5.7982   12.0032    1.1937 H         1 RES1    0.0000
     18 C11        4.9055   15.1054    0.7515 C.ar      1 RES1    0.0000
     19 H7         5.2463   15.9918    0.7879 H         1 RES1    0.0000
     20 C12        0.8703   11.4662    1.3943 C.ar      1 RES1    0.0000
     21 H8         1.1393   11.7961    2.2442 H         1 RES1    0.0000
     22 C13        0.0570   10.4795   -1.0678 C.ar      1 RES1    0.0000
     23 H9        -0.2195   10.1301   -1.9100 H         1 RES1    0.0000
     24 C14       -0.8829   10.9850   -0.1886 C.ar      1 RES1    0.0000
     25 H10       -1.8028   10.9963   -0.4238 H         1 RES1    0.0000
     26 C15        0.1443   13.2623    5.1814 C.ar      1 RES1    0.0000
     27 C16        3.5836   14.8782    0.4124 C.ar      1 RES1    0.0000
     28 H11        3.0261   15.6093    0.1731 H         1 RES1    0.0000
     29 C17       -0.1877   12.5644    6.3304 C.ar      1 RES1    0.0000
     30 H12        0.4982   12.2822    6.9237 H         1 RES1    0.0000
     31 C18        1.5852   13.5761    4.9069 C.3       1 RES1    0.0000
     32 H13        1.6566   14.4116    4.3810 H         1 RES1    0.0000
     33 H14        2.0745   13.7007    5.7598 H         1 RES1    0.0000
     34 C19       -2.1959   13.3642    4.6138 C.ar      1 RES1    0.0000
     35 H15       -2.8846   13.6465    4.0229 H         1 RES1    0.0000
     36 C20        4.7481    7.8325   -0.6494 C.ar      1 RES1    0.0000
     37 H16        4.7416    6.9009   -0.4656 H         1 RES1    0.0000
     38 C21       -2.5158   12.6663    5.7592 C.ar      1 RES1    0.0000
     39 H17       -3.4216   12.4560    5.9568 H         1 RES1    0.0000
     40 C22       -0.8750   13.6546    4.3207 C.ar      1 RES1    0.0000
     41 H18       -0.6626   14.1261    3.5215 H         1 RES1    0.0000
     42 C23       -0.4702   11.4767    1.0475 C.ar      1 RES1    0.0000
     43 H19       -1.1122   11.8220    1.6533 H         1 RES1    0.0000
     44 C24        5.4163    9.6530   -2.0306 C.ar      1 RES1    0.0000
     45 H20        5.8598    9.9781   -2.8053 H         1 RES1    0.0000
     46 C25        5.3911    8.3024   -1.7775 C.ar      1 RES1    0.0000
     47 H21        5.8127    7.6967   -2.3755 H         1 RES1    0.0000
     48 C26       -1.5100   12.2749    6.6205 C.ar      1 RES1    0.0000
     49 H22       -1.7267   11.8042    7.4191 H         1 RES1    0.0000
     50 O1         3.6547   11.2898    6.3995 O.2       1 RES1    0.0000
     51 O2         2.3189    8.6887    2.7424 O.2       1 RES1    0.0000
     52 N2         2.1473    9.6539    6.1854 N.am      1 RES1    0.0000
     53 C27        2.9784    9.6546    3.0602 C.2       1 RES1    0.0000
     54 C28        3.5245   12.6965    3.9077 C.3       1 RES1    0.0000
     55 H23        3.9819   13.0319    4.7212 H         1 RES1    0.0000
     56 H24        3.6336   13.3683    3.1873 H         1 RES1    0.0000
     57 C29        3.1511   10.4148    5.7037 C.2       1 RES1    0.0000
     58 C30        4.9620    9.1896    4.6180 C.3       1 RES1    0.0000
     59 H25        5.5321    9.6190    5.3062 H         1 RES1    0.0000
     60 H26        4.6272    8.3380    4.9958 H         1 RES1    0.0000
     61 C31        4.1299   11.3753    3.4798 C.3       1 RES1    0.0000
     62 H27        5.1188   11.4459    3.3484 H         1 RES1    0.0000
     63 C32        5.8057    8.8815    3.4165 C.2       1 RES1    0.0000
     64 H28        5.4541    8.2887    2.7635 H         1 RES1    0.0000
     65 C33        3.7448   10.1190    4.3273 C.3       1 RES1    0.0000
     66 O3         2.1458   12.4913    4.1764 O.3       1 RES1    0.0000
     67 O4         1.8123    8.4993    5.4787 O.3       1 RES1    0.0000
     68 C34        1.7706    9.6465    7.5874 C.3       1 RES1    0.0000
     69 H29        2.0358   10.4941    8.0040 H         1 RES1    0.0000
     70 H30        2.2225    8.9057    8.0458 H         1 RES1    0.0000
     71 H31        0.8008    9.5341    7.6638 H         1 RES1    0.0000
     72 C35        0.4749    8.6397    4.9791 C.3       1 RES1    0.0000
     73 H32        0.2241    7.8317    4.4825 H         1 RES1    0.0000
     74 H33        0.4282    9.4160    4.3810 H         1 RES1    0.0000
     75 H34       -0.1424    8.7674    5.7300 H         1 RES1    0.0000
     76 C36        7.0066    9.3877    3.2171 C.2       1 RES1    0.0000
     77 H35        7.4287    9.9878    3.8677 H         1 RES1    0.0000
     78 H36        7.5361    9.1872    2.3815 H         1 RES1    0.0000
@<TRIPOS>BOND
     1    1    3 1
     2    2    3 1
     3    3    4 1
     4    4    7 ar
     5    5    6 1
     6    7    8 1
     7    9    3 1
     8   10    9 ar
     9   11   10 1
    10   12    2 ar
    11   13   12 1
    12   14    9 ar
    13   15   14 1
    14   16    2 ar
    15   17   16 1
    16   18    5 ar
    17   19   18 1
    18   20    4 ar
    19   21   20 1
    20   22    7 ar
    21   23   22 1
    22   24   22 ar
    23   25   24 1
    24   26   29 ar
    25   27   12 ar
    26   28   27 1
    27   29   30 1
    28   31   26 1
    29   32   31 1
    30   33   31 1
    31   34   35 1
    32   36   10 ar
    33   37   36 1
    34   38   34 ar
    35   39   38 1
    36   40   26 ar
    37   41   40 1
    38   42   20 ar
    39   43   42 1
    40   44   14 ar
    41   45   44 1
    42   46   36 ar
    43   47   46 1
    44   48   29 ar
    45   49   48 1
    46   50   57 2
    47   51   53 2
    48   52   57 1
    49   53    1 1
    50   54   55 1
    51   56   54 1
    52   57   65 1
    53   58   59 1
    54   60   58 1
    55   61    1 1
    56   62   61 1
    57   63   58 1
    58   64   63 1
    59   65   53 1
    60   66   31 1
    61   67   52 1
    62   68   52 1
    63   69   68 1
    64   70   68 1
    65   71   68 1
    66   72   67 1
    67   73   72 1
    68   74   72 1
    69   75   72 1
    70   76   63 2
    71   77   76 1
    72   78   76 1
    73    5   16 ar
    74   18   27 ar
    75   24   42 ar
    76   34   40 ar
    77   38   48 ar
    78   44   46 ar
    79   54   61 1
    80   54   66 1
    81   58   65 1
    82   61   65 1
@<TRIPOS>SUBSTRUCTURE
     1 RES1 1

@<TRIPOS>CRYSIN
   9.3384    9.3384   59.6870  90.0000  90.0000 120.0000 170 1

