# MOL2 file generated by ConQuest
# Please check atom types

@<TRIPOS>MOLECULE
VORHUG
    45    46     1
SMALL
NO_CHARGES
****
Generated from CSD

@<TRIPOS>ATOM
      1 O1         1.8247    7.5989    0.0248 O.2       1 RES1    0.0000
      2 O2         1.4282    5.2828    1.5156 O.2       1 RES1    0.0000
      3 O3         3.1982    3.8841    1.3845 O.3       1 RES1    0.0000
      4 O4         6.2995    4.3796   -1.2599 O.3       1 RES1    0.0000
      5 O5         6.5594    7.0537    1.9989 O.2       1 RES1    0.0000
      6 O6         8.4810    6.0759    1.8936 O.2       1 RES1    0.0000
      7 N1         3.3287    5.8517    0.3819 N.am      1 RES1    0.0000
      8 N2         7.5638    6.7098    1.3910 N.pl3     1 RES1    0.0000
      9 C1         2.9395    7.1318   -0.0272 C.2       1 RES1    0.0000
     10 C2         4.1539    7.7770   -0.5242 C.2       1 RES1    0.0000
     11 C3         5.1941    6.9520   -0.4118 C.2       1 RES1    0.0000
     12 C4         4.7392    5.5947    0.0602 C.3       1 RES1    0.0000
     13 C5         2.5302    5.0060    1.1471 C.2       1 RES1    0.0000
     14 C6         2.6279    2.8103    2.2263 C.3       1 RES1    0.0000
     15 C7         2.4193    3.3383    3.6230 C.3       1 RES1    0.0000
     16 C8         1.3538    2.2819    1.6227 C.3       1 RES1    0.0000
     17 C9         3.7207    1.7698    2.1824 C.3       1 RES1    0.0000
     18 C10        4.9075    4.5220   -1.0402 C.3       1 RES1    0.0000
     19 C11        4.2272    4.8736   -2.3393 C.3       1 RES1    0.0000
     20 C12        6.5725    7.2906   -0.8087 C.ar      1 RES1    0.0000
     21 C13        6.7971    7.8340   -2.0711 C.ar      1 RES1    0.0000
     22 C14        8.0714    8.1792   -2.4914 C.ar      1 RES1    0.0000
     23 C15        9.1622    7.9746   -1.6692 C.ar      1 RES1    0.0000
     24 C16        8.9763    7.4486   -0.4077 C.ar      1 RES1    0.0000
     25 C17        7.6986    7.1305   -0.0010 C.ar      1 RES1    0.0000
     26 H1         4.1949    8.6590   -0.8760 H         1 RES1    0.0000
     27 H2         5.2399    5.3277    0.8841 H         1 RES1    0.0000
     28 H3         6.5488    3.6274   -0.9471 H         1 RES1    0.0000
     29 H4         1.7090    4.0132    3.6137 H         1 RES1    0.0000
     30 H5         3.2501    3.7426    3.9470 H         1 RES1    0.0000
     31 H6         2.1608    2.6017    4.2153 H         1 RES1    0.0000
     32 H7         1.5105    2.0422    0.6849 H         1 RES1    0.0000
     33 H8         0.6597    2.9710    1.6707 H         1 RES1    0.0000
     34 H9         1.0619    1.4883    2.1178 H         1 RES1    0.0000
     35 H10        3.8782    1.4992    1.2540 H         1 RES1    0.0000
     36 H11        4.5443    2.1446    2.5568 H         1 RES1    0.0000
     37 H12        3.4486    0.9891    2.7072 H         1 RES1    0.0000
     38 H13        4.5411    3.6530   -0.7053 H         1 RES1    0.0000
     39 H14        4.6583    5.6623   -2.7316 H         1 RES1    0.0000
     40 H15        4.2994    4.1192   -2.9613 H         1 RES1    0.0000
     41 H16        3.2808    5.0681   -2.1706 H         1 RES1    0.0000
     42 H17        6.0612    7.9715   -2.6564 H         1 RES1    0.0000
     43 H18        8.1956    8.5602   -3.3535 H         1 RES1    0.0000
     44 H19       10.0365    8.1946   -1.9715 H         1 RES1    0.0000
     45 H20        9.7167    7.3078    0.1707 H         1 RES1    0.0000
@<TRIPOS>BOND
     1    1    9 2
     2    2   13 2
     3    3   13 1
     4    4   18 1
     5    5    8 2
     6    6    8 2
     7    7    9 1
     8    8   25 1
     9    9   10 1
    10   10   11 2
    11   11   12 1
    12   12    7 1
    13   13    7 1
    14   14    3 1
    15   15   14 1
    16   16   14 1
    17   17   14 1
    18   18   12 1
    19   19   18 1
    20   20   11 1
    21   21   20 ar
    22   22   21 ar
    23   23   22 ar
    24   24   23 ar
    25   25   20 ar
    26   26   10 1
    27   27   12 1
    28   28    4 1
    29   29   15 1
    30   30   15 1
    31   31   15 1
    32   32   16 1
    33   33   16 1
    34   34   16 1
    35   35   17 1
    36   36   17 1
    37   37   17 1
    38   38   18 1
    39   39   19 1
    40   40   19 1
    41   41   19 1
    42   42   21 1
    43   43   22 1
    44   44   23 1
    45   45   24 1
    46   24   25 ar
@<TRIPOS>SUBSTRUCTURE
     1 RES1 1

@<TRIPOS>CRYSIN
  21.1117   21.1117   20.3244  90.0000  90.0000 120.0000 233 1

