# MOL2 file generated by ConQuest
# Please check atom types

@<TRIPOS>MOLECULE
VORJAO
    54    55     1
SMALL
NO_CHARGES
****
Generated from CSD

@<TRIPOS>ATOM
      1 O1         7.5289   21.7295   22.4064 O.2       1 RES1    0.0000
      2 O2         9.0147   22.7886   20.3261 O.2       1 RES1    0.0000
      3 O3         8.7653   21.6093   18.3989 O.3       1 RES1    0.0000
      4 O4         8.6173   17.8674   20.0769 O.3       1 RES1    0.0000
      5 O5        10.0135   15.1789   18.4091 O.2       1 RES1    0.0000
      6 O6         7.7882   15.0787   18.5335 O.3       1 RES1    0.0000
      7 O7         4.2793   20.2227   18.8836 O.2       1 RES1    0.0000
      8 O8         2.8602   19.0003   17.8071 O.2       1 RES1    0.0000
      9 N1         7.7686   20.8687   20.2384 N.am      1 RES1    0.0000
     10 N2         3.7447   19.1416   18.6512 N.pl3     1 RES1    0.0000
     11 C1         7.2209   20.9259   21.5375 C.2       1 RES1    0.0000
     12 C2         6.2361   19.8619   21.5999 C.2       1 RES1    0.0000
     13 C3         6.1685   19.2114   20.4380 C.2       1 RES1    0.0000
     14 C4         7.1789   19.7602   19.4604 C.3       1 RES1    0.0000
     15 C5         8.5797   21.8546   19.7015 C.2       1 RES1    0.0000
     16 C6         9.6806   22.4523   17.5784 C.3       1 RES1    0.0000
     17 C7         9.0214   23.7780   17.3251 C.3       1 RES1    0.0000
     18 C8        11.0349   22.5701   18.2423 C.3       1 RES1    0.0000
     19 C9         9.7876   21.6166   16.3069 C.3       1 RES1    0.0000
     20 C10        8.2304   18.7212   19.0078 C.3       1 RES1    0.0000
     21 C11        7.6790   17.8662   17.8741 C.3       1 RES1    0.0000
     22 C12        8.7004   16.8718   17.3227 C.3       1 RES1    0.0000
     23 C13        8.9354   15.6476   18.1568 C.2       1 RES1    0.0000
     24 C14        7.9131   13.8799   19.3259 C.3       1 RES1    0.0000
     25 C15        5.3153   18.0290   20.2216 C.ar      1 RES1    0.0000
     26 C16        5.6464   16.8667   20.9082 C.ar      1 RES1    0.0000
     27 C17        4.8783   15.7186   20.8168 C.ar      1 RES1    0.0000
     28 C18        3.7499   15.7070   20.0220 C.ar      1 RES1    0.0000
     29 C19        3.3933   16.8348   19.3181 C.ar      1 RES1    0.0000
     30 C20        4.1705   17.9695   19.4142 C.ar      1 RES1    0.0000
     31 H1         5.7104   19.6571   22.3647 H         1 RES1    0.0000
     32 H2         6.7052   20.1272   18.6607 H         1 RES1    0.0000
     33 H3         9.1604   18.2715   20.5743 H         1 RES1    0.0000
     34 H4         8.1445   23.6337   16.9112 H         1 RES1    0.0000
     35 H5         9.5819   24.3109   16.7233 H         1 RES1    0.0000
     36 H6         8.9080   24.2550   18.1747 H         1 RES1    0.0000
     37 H7        10.9516   23.1014   19.0602 H         1 RES1    0.0000
     38 H8        11.6621   23.0082   17.6304 H         1 RES1    0.0000
     39 H9        11.3677   21.6764   18.4663 H         1 RES1    0.0000
     40 H10       10.2046   20.7548   16.5160 H         1 RES1    0.0000
     41 H11       10.3344   22.0927   15.6478 H         1 RES1    0.0000
     42 H12        8.8915   21.4652   15.9393 H         1 RES1    0.0000
     43 H13        9.0397   19.2077   18.6780 H         1 RES1    0.0000
     44 H14        7.3791   18.4600   17.1402 H         1 RES1    0.0000
     45 H15        6.8890   17.3685   18.2028 H         1 RES1    0.0000
     46 H16        8.4014   16.5835   16.4231 H         1 RES1    0.0000
     47 H17        9.5645   17.3416   17.2093 H         1 RES1    0.0000
     48 H18        8.3758   13.1910   18.8054 H         1 RES1    0.0000
     49 H19        7.0216   13.5576   19.5743 H         1 RES1    0.0000
     50 H20        8.4279   14.0754   20.1358 H         1 RES1    0.0000
     51 H21        6.4227   16.8590   21.4555 H         1 RES1    0.0000
     52 H22        5.1279   14.9391   21.2999 H         1 RES1    0.0000
     53 H23        3.2196   14.9204   19.9609 H         1 RES1    0.0000
     54 H24        2.6170   16.8321   18.7708 H         1 RES1    0.0000
@<TRIPOS>BOND
     1    1   11 2
     2    2   15 2
     3    3   15 1
     4    4   20 1
     5    5   23 2
     6    6   23 1
     7    7   10 2
     8    8   10 2
     9    9   11 1
    10   10   30 1
    11   11   12 1
    12   12   13 2
    13   13   14 1
    14   14    9 1
    15   15    9 1
    16   16    3 1
    17   17   16 1
    18   18   16 1
    19   19   16 1
    20   20   14 1
    21   21   20 1
    22   22   21 1
    23   23   22 1
    24   24    6 1
    25   25   13 1
    26   26   25 ar
    27   27   26 ar
    28   28   27 ar
    29   29   28 ar
    30   30   25 ar
    31   31   12 1
    32   32   14 1
    33   33    4 1
    34   34   17 1
    35   35   17 1
    36   36   17 1
    37   37   18 1
    38   38   18 1
    39   39   18 1
    40   40   19 1
    41   41   19 1
    42   42   19 1
    43   43   20 1
    44   44   21 1
    45   45   21 1
    46   46   22 1
    47   47   22 1
    48   48   24 1
    49   49   24 1
    50   50   24 1
    51   51   26 1
    52   52   27 1
    53   53   28 1
    54   54   29 1
    55   29   30 ar
@<TRIPOS>SUBSTRUCTURE
     1 RES1 1

@<TRIPOS>CRYSIN
   9.1439   20.7113   21.5980  90.0000  90.0000  90.0000  61 1

