# MOL2 file generated by ConQuest
# Please check atom types

@<TRIPOS>MOLECULE
VORLIY
    34    37     1
SMALL
NO_CHARGES
****
Generated from CSD

@<TRIPOS>ATOM
      1 N1         1.5518   -0.0008   11.8277 N.ar      1 RES1    0.0000
      2 N2         4.7681   -1.2780   11.2620 N.2       1 RES1    0.0000
      3 O1        -1.0626    1.4355    9.8232 O.3       1 RES1    0.0000
      4 O2        -0.3277    1.4805    7.7273 O.2       1 RES1    0.0000
      5 O3         3.6766   -0.9005   12.1018 O.3       1 RES1    0.0000
      6 O4         3.8922    0.5648    3.6305 O.3       1 RES1    0.0000
      7 C1         0.7554    0.4529   10.8736 C.ar      1 RES1    0.0000
      8 C2        -0.6061    0.9994   11.1246 C.3       1 RES1    0.0000
      9 H1        -1.1924    0.3159   11.4853 H         1 RES1    0.0000
     10 H2        -0.5710    1.7438   11.7451 H         1 RES1    0.0000
     11 C3        -0.1236    1.1768    8.8706 C.2       1 RES1    0.0000
     12 C4         1.0327    0.5389    9.5130 C.ar      1 RES1    0.0000
     13 C5         2.2749    0.1446    8.9917 C.ar      1 RES1    0.0000
     14 C6         3.1392   -0.3524    9.9869 C.ar      1 RES1    0.0000
     15 C7         2.7151   -0.3753   11.3150 C.ar      1 RES1    0.0000
     16 C8         4.4481   -0.9667   10.0399 C.2       1 RES1    0.0000
     17 C9         5.3902   -1.3237    8.9413 C.3       1 RES1    0.0000
     18 H3         5.8531   -0.5351    8.6487 H         1 RES1    0.0000
     19 H4         4.8990   -1.6989    8.2072 H         1 RES1    0.0000
     20 H5         6.0270   -1.9668    9.2629 H         1 RES1    0.0000
     21 C10        2.6564    0.2527    7.5803 C.ar      1 RES1    0.0000
     22 C11        1.8774   -0.2953    6.5712 C.ar      1 RES1    0.0000
     23 H6         1.0844   -0.7269    6.7920 H         1 RES1    0.0000
     24 C12        2.2542   -0.2139    5.2521 C.ar      1 RES1    0.0000
     25 H7         1.7207   -0.5967    4.5936 H         1 RES1    0.0000
     26 C13        3.4215    0.4339    4.9014 C.ar      1 RES1    0.0000
     27 C14        4.2073    1.0101    5.8978 C.ar      1 RES1    0.0000
     28 H8         4.9878    1.4622    5.6733 H         1 RES1    0.0000
     29 C15        3.8269    0.9088    7.2083 C.ar      1 RES1    0.0000
     30 H9         4.3631    1.2871    7.8667 H         1 RES1    0.0000
     31 C16        3.1164    0.0137    2.5617 C.3       1 RES1    0.0000
     32 H10        2.9971   -0.9279    2.7055 H         1 RES1    0.0000
     33 H11        3.5747    0.1545    1.7292 H         1 RES1    0.0000
     34 H12        2.2591    0.4445    2.5327 H         1 RES1    0.0000
@<TRIPOS>BOND
     1    1    7 ar
     2    2    5 1
     3    3    8 1
     4    4   11 2
     5    5   15 1
     6    6   26 1
     7    7    8 1
     8    8    9 1
     9   10    8 1
    10   11    3 1
    11   12    7 ar
    12   13   12 ar
    13   14   13 ar
    14   15    1 ar
    15   16    2 2
    16   17   16 1
    17   18   17 1
    18   19   17 1
    19   20   17 1
    20   21   13 1
    21   22   21 ar
    22   23   22 1
    23   24   22 ar
    24   25   24 1
    25   26   24 ar
    26   27   26 ar
    27   28   27 1
    28   29   21 ar
    29   30   29 1
    30   31    6 1
    31   32   31 1
    32   33   31 1
    33   34   31 1
    34   11   12 1
    35   14   15 ar
    36   14   16 1
    37   27   29 ar
@<TRIPOS>SUBSTRUCTURE
     1 RES1 1

@<TRIPOS>CRYSIN
  13.8513    7.6116   12.6732  90.0000  95.5920  90.0000  14 1

