# MOL2 file generated by ConQuest
# Please check atom types

@<TRIPOS>MOLECULE
VOSDOW
    32    32     2
SMALL
NO_CHARGES
****
Generated from CSD

@<TRIPOS>ATOM
      1 O1         9.6265    0.2451    2.8261 O.2       1 RES1    0.0000
      2 O2        12.1814   -1.4238   -4.0166 O.3       1 RES1    0.0000
      3 O3        12.7355    0.7180   -5.4487 O.2       1 RES1    0.0000
      4 O4        13.2952   -0.4973   -7.1555 O.2       1 RES1    0.0000
      5 N1         9.8280   -1.8286    1.9560 N.am      1 RES1    0.0000
      6 N2        10.2785   -1.3597    0.7255 N.2       1 RES1    0.0000
      7 N3        12.8978   -0.3661   -5.9964 N.pl3     1 RES1    0.0000
      8 C1         9.5034   -0.9661    2.9392 C.2       1 RES1    0.0000
      9 C2         8.9409   -1.5825    4.1802 C.ar      1 RES1    0.0000
     10 C3         9.0528   -2.9290    4.4978 C.ar      1 RES1    0.0000
     11 C4         8.6219   -3.4202    5.6579 C.ar      1 RES1    0.0000
     12 C5         7.7935   -2.5822    6.5070 C.ar      1 RES1    0.0000
     13 C6         7.6900   -1.2519    6.2075 C.ar      1 RES1    0.0000
     14 C7         8.2525   -0.7353    5.0531 C.ar      1 RES1    0.0000
     15 C8        10.6283   -0.2441   -0.0808 C.2       1 RES1    0.0000
     16 C9        11.1208   -1.9577   -1.3997 C.2       1 RES1    0.0000
     17 C10       11.5938   -2.9025   -2.2042 C.2       1 RES1    0.0000
     18 C11       12.6404   -1.5499   -5.2870 C.2       1 RES1    0.0000
     19 C12       12.8503   -2.8293   -5.6360 C.2       1 RES1    0.0000
     20 C13       12.0947   -2.7083   -3.5450 C.2       1 RES1    0.0000
     21 C14       12.5088   -3.5768   -4.5082 C.2       1 RES1    0.0000
     22 H1         9.7104   -2.7968    2.0349 H         1 RES1    0.0000
     23 H2         9.5705   -3.5290    3.9938 H         1 RES1    0.0000
     24 H3         8.6471   -4.4036    5.8671 H         1 RES1    0.0000
     25 H4         7.4437   -3.0001    7.3124 H         1 RES1    0.0000
     26 H5         7.1919   -0.7119    6.7324 H         1 RES1    0.0000
     27 H6         8.1433    0.2746    4.7925 H         1 RES1    0.0000
     28 H7        10.6059   -3.2442    0.1807 Du        2 SUP2    0.0000
     29 H8        13.2084   -3.1527   -6.5042 H         1 RES1    0.0000
     30 H9        12.5368   -4.5155   -4.3932 H         1 RES1    0.0000
     31 H10       11.0817   -0.9967   -1.6546 H         1 RES1    0.0000
     32 H11       11.6413   -3.8544   -1.9398 H         1 RES1    0.0000
@<TRIPOS>BOND
     1    1    8 2
     2    2   18 1
     3    3    7 2
     4    4    7 2
     5    5    6 1
     6    6   15 2
     7    7   18 1
     8    8    5 1
     9    9    8 1
    10   10    9 ar
    11   11   10 ar
    12   12   11 ar
    13   13   12 ar
    14   14    9 ar
    15   15   16 1
    16   16   17 2
    17   17   20 1
    18   18   19 2
    19   19   21 1
    20   20    2 1
    21   21   20 2
    22   22    5 1
    23   23   10 1
    24   24   11 1
    25   25   12 1
    26   26   13 1
    27   27   14 1
    28   29   19 1
    29   30   21 1
    30   31   16 1
    31   32   17 1
    32   13   14 ar
@<TRIPOS>SUBSTRUCTURE
     1 RES1 1
     2 SUP2 28

@<TRIPOS>CRYSIN
  27.9840   10.1700    9.5090  90.0000  90.0000  90.0000  61 3

