# MOL2 file generated by ConQuest
# Please check atom types

@<TRIPOS>MOLECULE
VOSQUP01
   106   110     2
SMALL
USER_CHARGES
****
Generated from CSD

@<TRIPOS>ATOM
      1 N1         6.4410    7.9660   -3.7174 N.pl3     1 RES1    0.0000
      2 O1         6.9734    7.0787   -4.4797 O.2       1 RES1    0.0000
      3 N2         6.0458    9.3257   -2.0536 N.pl3     1 RES1    1.0000
      4 O2         6.0875    9.9289   -0.9175 O.2       1 RES1   -1.0000
      5 O3        10.5115    5.4954    0.7344 O.3       1 RES1    0.0000
      6 H1        10.8783    4.8864    0.2872 H         1 RES1    0.0000
      7 N3        11.0649    4.0067   -1.3834 N.3       1 RES1    0.0000
      8 C1         5.2099    8.6988   -4.1689 C.3       1 RES1    0.0000
      9 C2         5.1880    9.8726   -3.1513 C.3       1 RES1    0.0000
     10 C3         6.7964    8.2761   -2.4405 C.2       1 RES1    0.0000
     11 C4         7.7998    7.5837   -1.6336 C.ar      1 RES1    0.0000
     12 C5         8.2927    6.3330   -2.0357 C.ar      1 RES1    0.0000
     13 H2         7.9946    5.9630   -2.8584 H         1 RES1    0.0000
     14 C6         9.1995    5.6231   -1.2705 C.ar      1 RES1    0.0000
     15 C7         9.6404    6.1700   -0.0509 C.ar      1 RES1    0.0000
     16 C8         9.1687    7.4146    0.3585 C.ar      1 RES1    0.0000
     17 H3         9.4750    7.7895    1.1760 H         1 RES1    0.0000
     18 C9         8.2581    8.1089   -0.4157 C.ar      1 RES1    0.0000
     19 H4         7.9382    8.9528   -0.1194 H         1 RES1    0.0000
     20 C10        9.6380    4.2388   -1.6776 C.3       1 RES1    0.0000
     21 H5         9.0921    3.5684   -1.1954 H         1 RES1    0.0000
     22 H6         9.4810    4.1187   -2.6477 H         1 RES1    0.0000
     23 C11       11.9236    4.7625   -2.3062 C.3       1 RES1    0.0000
     24 H7        11.6730    5.7199   -2.2820 H         1 RES1    0.0000
     25 H8        11.7878    4.4324   -3.2297 H         1 RES1    0.0000
     26 C12       13.3858    4.6102   -1.9226 C.3       1 RES1    0.0000
     27 H9        13.9508    5.0949   -2.5758 H         1 RES1    0.0000
     28 H10       13.5360    5.0113   -1.0302 H         1 RES1    0.0000
     29 C13       13.7883    3.1473   -1.8939 C.3       1 RES1    0.0000
     30 H11       14.7125    3.0624   -1.5486 H         1 RES1    0.0000
     31 H12       13.7658    2.7767   -2.8119 H         1 RES1    0.0000
     32 C14       12.8347    2.3678   -1.0036 C.3       1 RES1    0.0000
     33 H13       13.0535    1.4031   -1.0508 H         1 RES1    0.0000
     34 H14       12.9453    2.6621   -0.0647 H         1 RES1    0.0000
     35 C15       11.3948    2.5805   -1.4338 C.3       1 RES1    0.0000
     36 H15       11.2685    2.2414   -2.3553 H         1 RES1    0.0000
     37 H16       10.7896    2.0769   -0.8336 H         1 RES1    0.0000
     38 C16        4.0440    7.7223   -4.0201 C.3       1 RES1    0.0000
     39 H17        3.2137    8.1589   -4.3040 H         1 RES1    0.0000
     40 H18        3.9654    7.4481   -3.0823 H         1 RES1    0.0000
     41 H19        4.2058    6.9330   -4.5786 H         1 RES1    0.0000
     42 C17        5.3804    9.1031   -5.6221 C.3       1 RES1    0.0000
     43 H20        4.6340    9.6798   -5.8899 H         1 RES1    0.0000
     44 H21        5.3909    8.3009   -6.1850 H         1 RES1    0.0000
     45 H22        6.2243    9.5891   -5.7288 H         1 RES1    0.0000
     46 C18        3.8188   10.2118   -2.5853 C.3       1 RES1    0.0000
     47 H23        3.2207   10.4781   -3.3146 H         1 RES1    0.0000
     48 H24        3.9031   10.9501   -1.9460 H         1 RES1    0.0000
     49 H25        3.4498    9.4258   -2.1296 H         1 RES1    0.0000
     50 C19        5.8715   11.1401   -3.6536 C.3       1 RES1    0.0000
     51 H26        5.3108   11.5652   -4.3348 H         1 RES1    0.0000
     52 H27        6.7408   10.9100   -4.0434 H         1 RES1    0.0000
     53 H28        6.0023   11.7595   -2.9057 H         1 RES1    0.0000
     54 N4         7.6998   10.7991    3.1355 N.pl3     2 RES2    0.0000
     55 O4         7.8544    9.6192    2.6617 O.2       2 RES2    0.0000
     56 N5         7.0147   12.4988    4.3344 N.pl3     2 RES2    1.0000
     57 O5         6.4130   13.2215    5.2076 O.2       2 RES2   -1.0000
     58 O6         3.5654    7.8082    7.1897 O.3       2 RES2    0.0000
     59 H29        3.9282    7.0600    7.3064 H         2 RES2    0.0000
     60 N6         5.5106    5.9252    6.9788 N.3       2 RES2    0.0000
     61 C20        8.2626   11.9920    2.4138 C.3       2 RES2    0.0000
     62 C21        8.1361   13.0702    3.5186 C.3       2 RES2    0.0000
     63 C22        6.8876   11.1642    4.1665 C.2       2 RES2    0.0000
     64 C23        6.0159   10.2850    4.9311 C.ar      2 RES2    0.0000
     65 C24        6.2655    8.9056    4.9861 C.ar      2 RES2    0.0000
     66 H30        7.0114    8.5499    4.5175 H         2 RES2    0.0000
     67 C25        5.4496    8.0503    5.7082 C.ar      2 RES2    0.0000
     68 C26        4.3737    8.5898    6.4361 C.ar      2 RES2    0.0000
     69 C27        4.1107    9.9517    6.3813 C.ar      2 RES2    0.0000
     70 H31        3.3682   10.3082    6.8548 H         2 RES2    0.0000
     71 C28        4.9193   10.7906    5.6448 C.ar      2 RES2    0.0000
     72 H32        4.7318   11.7216    5.6204 H         2 RES2    0.0000
     73 C29        5.6402    6.5551    5.6497 C.3       2 RES2    0.0000
     74 H33        4.9665    6.1650    5.0378 H         2 RES2    0.0000
     75 H34        6.5371    6.3556    5.2813 H         2 RES2    0.0000
     76 C30        6.7091    6.1960    7.7896 C.3       2 RES2    0.0000
     77 H35        6.8425    7.1741    7.8643 H         2 RES2    0.0000
     78 H36        7.5038    5.8114    7.3418 H         2 RES2    0.0000
     79 C31        6.5720    5.5966    9.1793 C.3       2 RES2    0.0000
     80 H37        5.8102    6.0199    9.6503 H         2 RES2    0.0000
     81 H38        7.3944    5.7737    9.7009 H         2 RES2    0.0000
     82 C32        6.3408    4.0934    9.0818 C.3       2 RES2    0.0000
     83 H39        7.1504    3.6551    8.7164 H         2 RES2    0.0000
     84 H40        6.1700    3.7232    9.9839 H         2 RES2    0.0000
     85 C33        5.1549    3.8089    8.1798 C.3       2 RES2    0.0000
     86 H41        4.3284    4.1420    8.6109 H         2 RES2    0.0000
     87 H42        5.0623    2.8307    8.0579 H         2 RES2    0.0000
     88 C34        5.3156    4.4717    6.8222 C.3       2 RES2    0.0000
     89 H43        6.0952    4.0814    6.3531 H         2 RES2    0.0000
     90 H44        4.5096    4.3026    6.2729 H         2 RES2    0.0000
     91 C35        7.3473   12.2285    1.2182 C.3       2 RES2    0.0000
     92 H45        7.6785   12.9915    0.6991 H         2 RES2    0.0000
     93 H46        6.4387   12.4174    1.5343 H         2 RES2    0.0000
     94 H47        7.3358   11.4281    0.6529 H         2 RES2    0.0000
     95 C36        9.6773   11.6919    1.9479 C.3       2 RES2    0.0000
     96 H48       10.0655   12.4961    1.5439 H         2 RES2    0.0000
     97 H49        9.6572   10.9709    1.2847 H         2 RES2    0.0000
     98 H50       10.2218   11.4154    2.7138 H         2 RES2    0.0000
     99 C37        7.7602   14.4611    3.0352 C.3       2 RES2    0.0000
    100 H51        8.4585   14.7978    2.4350 H         2 RES2    0.0000
    101 H52        7.6723   15.0614    3.8046 H         2 RES2    0.0000
    102 H53        6.9072   14.4204    2.5541 H         2 RES2    0.0000
    103 C38        9.3396   13.1432    4.4610 C.3       2 RES2    0.0000
    104 H54       10.0832   13.5914    4.0070 H         2 RES2    0.0000
    105 H55        9.6105   12.2366    4.7159 H         2 RES2    0.0000
    106 H56        9.0950   13.6483    5.2651 H         2 RES2    0.0000
@<TRIPOS>BOND
     1    1    2 1
     2    3    4 1
     3    5    6 1
     4    7   20 1
     5    8    1 1
     6    9    3 1
     7   10    1 1
     8   11   10 1
     9   12   11 ar
    10   13   12 1
    11   14   12 ar
    12   15    5 1
    13   16   15 ar
    14   17   16 1
    15   18   11 ar
    16   19   18 1
    17   20   14 1
    18   21   20 1
    19   22   20 1
    20   23    7 1
    21   24   23 1
    22   25   23 1
    23   26   23 1
    24   27   26 1
    25   28   26 1
    26   29   26 1
    27   30   29 1
    28   31   29 1
    29   32   29 1
    30   33   32 1
    31   34   32 1
    32   35    7 1
    33   36   35 1
    34   37   35 1
    35   38    8 1
    36   39   38 1
    37   40   38 1
    38   41   38 1
    39   42    8 1
    40   43   42 1
    41   44   42 1
    42   45   42 1
    43   46    9 1
    44   47   46 1
    45   48   46 1
    46   49   46 1
    47   50    9 1
    48   51   50 1
    49   52   50 1
    50   53   50 1
    51   54   55 1
    52   56   57 1
    53   58   59 1
    54   60   73 1
    55   61   54 1
    56   62   56 1
    57   63   54 1
    58   64   63 1
    59   65   64 ar
    60   66   65 1
    61   67   65 ar
    62   68   58 1
    63   69   68 ar
    64   70   69 1
    65   71   64 ar
    66   72   71 1
    67   73   67 1
    68   74   73 1
    69   75   73 1
    70   76   60 1
    71   77   76 1
    72   78   76 1
    73   79   76 1
    74   80   79 1
    75   81   79 1
    76   82   79 1
    77   83   82 1
    78   84   82 1
    79   85   82 1
    80   86   85 1
    81   87   85 1
    82   88   60 1
    83   89   88 1
    84   90   88 1
    85   91   61 1
    86   92   91 1
    87   93   91 1
    88   94   91 1
    89   95   61 1
    90   96   95 1
    91   97   95 1
    92   98   95 1
    93   99   62 1
    94  100   99 1
    95  101   99 1
    96  102   99 1
    97  103   62 1
    98  104  103 1
    99  105  103 1
   100  106  103 1
   101    3   10 2
   102    8    9 1
   103   14   15 ar
   104   16   18 ar
   105   32   35 1
   106   56   63 2
   107   61   62 1
   108   67   68 ar
   109   69   71 ar
   110   85   88 1
@<TRIPOS>SUBSTRUCTURE
     1 RES1 1
     2 RES2 54

@<TRIPOS>CRYSIN
  11.3931   12.1913   14.2060  81.4700  83.3500  71.8200   2 1

