# MOL2 file generated by ConQuest
# Please check atom types

@<TRIPOS>MOLECULE
VOSRUQ
    57    59     1
SMALL
USER_CHARGES
****
Generated from CSD

@<TRIPOS>ATOM
      1 O1         8.0337   10.5520    8.6503 O.2       1 RES1    0.0000
      2 N1         6.7707   10.6381    8.8490 N.pl3     1 RES1    0.0000
      3 C1         6.1997   11.7059    9.7349 C.3       1 RES1    0.0000
      4 C2         4.7706   11.1396    9.9742 C.3       1 RES1    0.0000
      5 N2         4.6142   10.2551    8.7721 N.pl3     1 RES1    1.0000
      6 O2         3.4644    9.7754    8.4619 O.2       1 RES1   -1.0000
      7 C3         5.7967    9.9431    8.2056 C.2       1 RES1    0.0000
      8 C4         5.9970    9.0640    7.0610 C.ar      1 RES1    0.0000
      9 C5         7.0867    9.2513    6.2164 C.ar      1 RES1    0.0000
     10 H1         7.7075    9.9456    6.4029 H         1 RES1    0.0000
     11 C6         7.2827    8.4399    5.1039 C.ar      1 RES1    0.0000
     12 O3         6.5180    6.5910    3.7568 O.3       1 RES1    0.0000
     13 H2         7.2907    6.6774    3.4388 H         1 RES1    0.0000
     14 C7         6.3787    7.4072    4.8404 C.ar      1 RES1    0.0000
     15 C8         5.2903    7.1901    5.7047 C.ar      1 RES1    0.0000
     16 C9         5.0943    8.0150    6.8003 C.ar      1 RES1    0.0000
     17 H3         4.3514    7.8732    7.3753 H         1 RES1    0.0000
     18 C10        8.4258    8.7088    4.1577 C.3       1 RES1    0.0000
     19 H4         8.1040    9.2718    3.4099 H         1 RES1    0.0000
     20 H5         9.1313    9.2126    4.6355 H         1 RES1    0.0000
     21 N3         9.0050    7.4598    3.6118 N.3       1 RES1    0.0000
     22 C11        9.7505    6.7270    4.6448 C.3       1 RES1    0.0000
     23 H6         9.1558    6.5466    5.4151 H         1 RES1    0.0000
     24 H7        10.5050    7.2831    4.9637 H         1 RES1    0.0000
     25 C12       10.2854    5.4120    4.0991 C.3       1 RES1    0.0000
     26 H8        10.7984    4.9448    4.8065 H         1 RES1    0.0000
     27 H9         9.5285    4.8316    3.8340 H         1 RES1    0.0000
     28 C13       11.1834    5.6547    2.8988 C.3       1 RES1    0.0000
     29 H10       11.4608    4.7883    2.5084 H         1 RES1    0.0000
     30 H11       11.9974    6.1406    3.1834 H         1 RES1    0.0000
     31 C14       10.4318    6.4764    1.8511 C.3       1 RES1    0.0000
     32 H12       11.0451    6.7019    1.1072 H         1 RES1    0.0000
     33 H13        9.6870    5.9384    1.4822 H         1 RES1    0.0000
     34 C15        9.8810    7.7550    2.4575 C.3       1 RES1    0.0000
     35 H14       10.6314    8.3301    2.7519 H         1 RES1    0.0000
     36 H15        9.3667    8.2498    1.7715 H         1 RES1    0.0000
     37 C16        6.2370   12.9919    8.9085 C.3       1 RES1    0.0000
     38 H16        5.8695   13.7304    9.4368 H         1 RES1    0.0000
     39 H17        5.7025   12.8742    8.0966 H         1 RES1    0.0000
     40 H18        7.1633   13.1955    8.6620 H         1 RES1    0.0000
     41 C17        7.0490   11.8548   10.9847 C.3       1 RES1    0.0000
     42 H19        6.6382   12.5141   11.5823 H         1 RES1    0.0000
     43 H20        7.9479   12.1549   10.7351 H         1 RES1    0.0000
     44 H21        7.1091   10.9912   11.4434 H         1 RES1    0.0000
     45 C18        3.6567   12.1785    9.9779 C.3       1 RES1    0.0000
     46 H22        3.8128   12.8221   10.7008 H         1 RES1    0.0000
     47 H23        2.7950   11.7332   10.1178 H         1 RES1    0.0000
     48 H24        3.6460   12.6487    9.1179 H         1 RES1    0.0000
     49 C19        4.6502   10.2311   11.1938 C.3       1 RES1    0.0000
     50 H25        4.7144   10.7694   12.0100 H         1 RES1    0.0000
     51 H26        5.3742    9.5700   11.1812 H         1 RES1    0.0000
     52 H27        3.7864    9.7697   11.1734 H         1 RES1    0.0000
     53 O4         4.4760    6.1353    5.3731 O.3       1 RES1    0.0000
     54 C20        3.4081    5.8401    6.2739 C.3       1 RES1    0.0000
     55 H28        2.9411    5.0337    5.9726 H         1 RES1    0.0000
     56 H29        2.7817    6.5932    6.2945 H         1 RES1    0.0000
     57 H30        3.7712    5.6928    7.1720 H         1 RES1    0.0000
@<TRIPOS>BOND
     1    1    2 1
     2    2    3 1
     3    3    4 1
     4    4    5 1
     5    5    6 1
     6    7    2 1
     7    8    7 1
     8    9    8 ar
     9   10    9 1
    10   11    9 ar
    11   12   13 1
    12   14   11 ar
    13   15   14 ar
    14   16    8 ar
    15   17   16 1
    16   18   11 1
    17   19   18 1
    18   20   18 1
    19   21   18 1
    20   22   21 1
    21   23   22 1
    22   24   22 1
    23   25   22 1
    24   26   25 1
    25   27   25 1
    26   28   25 1
    27   29   28 1
    28   30   28 1
    29   31   28 1
    30   32   31 1
    31   33   31 1
    32   34   21 1
    33   35   34 1
    34   36   34 1
    35   37    3 1
    36   38   37 1
    37   39   37 1
    38   40   37 1
    39   41    3 1
    40   42   41 1
    41   43   41 1
    42   44   41 1
    43   45    4 1
    44   46   45 1
    45   47   45 1
    46   48   45 1
    47   49    4 1
    48   50   49 1
    49   51   49 1
    50   52   49 1
    51   53   15 1
    52   54   53 1
    53   55   54 1
    54   56   54 1
    55   57   54 1
    56    5    7 2
    57   12   14 1
    58   15   16 ar
    59   31   34 1
@<TRIPOS>SUBSTRUCTURE
     1 RES1 1

@<TRIPOS>CRYSIN
  10.0751   10.6168   10.7895  88.0190  65.6730  72.9430   2 1

