# MOL2 file generated by ConQuest
# Please check atom types

@<TRIPOS>MOLECULE
VOSVUW
    32    33     1
SMALL
USER_CHARGES
****
Generated from CSD

@<TRIPOS>ATOM
      1 N1        -2.3096    2.3866    9.6677 N.pl3     1 RES1    0.0000
      2 C1        -3.5786    3.8216    8.1210 C.ar      1 RES1    0.0000
      3 C2        -3.4784    3.2620    9.5255 C.3       1 RES1    0.0000
      4 C3        -3.4599    4.3710   10.5668 C.3       1 RES1    0.0000
      5 H1        -3.3533    3.9879   11.4406 H         1 RES1    0.0000
      6 H2        -4.2861    4.8583   10.5301 H         1 RES1    0.0000
      7 H3        -2.7285    4.9663   10.3876 H         1 RES1    0.0000
      8 C4        -2.4927    3.9106    7.2648 C.ar      1 RES1    0.0000
      9 H4        -1.6633    3.5852    7.5309 H         1 RES1    0.0000
     10 C5        -4.8046    4.3111    7.6833 C.ar      1 RES1    0.0000
     11 H5        -5.5499    4.2462    8.2367 H         1 RES1    0.0000
     12 C6        -3.8478    4.9736    5.5955 C.ar      1 RES1    0.0000
     13 H6        -3.9360    5.3559    4.7524 H         1 RES1    0.0000
     14 C7        -2.6426    4.4892    6.0039 C.ar      1 RES1    0.0000
     15 H7        -1.9096    4.5439    5.4341 H         1 RES1    0.0000
     16 C8        -4.9302    4.8963    6.4307 C.ar      1 RES1    0.0000
     17 H8        -5.7513    5.2363    6.1571 H         1 RES1    0.0000
     18 C9        -0.9736    0.6420    9.4321 C.2       1 RES1    0.0000
     19 N2        -0.3373    1.6329   10.1692 N.pl3     1 RES1    1.0000
     20 C10       -1.1437    2.6812   10.2995 C.2       1 RES1    0.0000
     21 C11       -3.3401    0.4706    8.4118 C.3       1 RES1    0.0000
     22 H9        -3.0954   -0.4283    8.1792 H         1 RES1    0.0000
     23 H10       -3.5428    0.9638    7.6137 H         1 RES1    0.0000
     24 H11       -4.1118    0.4553    8.9828 H         1 RES1    0.0000
     25 C12       -2.2118    1.1221    9.1222 C.2       1 RES1    0.0000
     26 C13       -0.3133   -0.6530    9.1498 C.3       1 RES1    0.0000
     27 H12       -0.2510   -1.1637    9.9599 H         1 RES1    0.0000
     28 H13        0.5677   -0.4939    8.8035 H         1 RES1    0.0000
     29 H14       -0.8287   -1.1403    8.5034 H         1 RES1    0.0000
     30 O1         0.8861    1.5135   10.6807 O.2       1 RES1   -1.0000
     31 H15       -0.9791    3.4291   10.7888 H         1 RES1    0.0000
     32 H16       -4.2536    2.7214    9.7024 H         1 RES1    0.0000
@<TRIPOS>BOND
     1    1    3 1
     2    2    3 1
     3    3    4 1
     4    4    5 1
     5    6    4 1
     6    7    4 1
     7    8    2 ar
     8    9    8 1
     9   10    2 ar
    10   11   10 1
    11   12   13 1
    12   14    8 ar
    13   15   14 1
    14   16   10 ar
    15   17   16 1
    16   18   19 1
    17   19   20 2
    18   20    1 1
    19   21   22 1
    20   23   21 1
    21   24   21 1
    22   25    1 1
    23   26   18 1
    24   27   26 1
    25   28   26 1
    26   29   26 1
    27   30   19 1
    28   31   20 1
    29   32    3 1
    30   12   14 ar
    31   12   16 ar
    32   18   25 2
    33   21   25 1
@<TRIPOS>SUBSTRUCTURE
     1 RES1 1

@<TRIPOS>CRYSIN
   6.8435    7.2959   11.9794  90.0000 106.3360  90.0000   4 1

