# MOL2 file generated by ConQuest
# Please check atom types

@<TRIPOS>MOLECULE
VOTBIR
    28    28     1
SMALL
NO_CHARGES
****
Generated from CSD

@<TRIPOS>ATOM
      1 O1         0.9159    0.3238    6.0512 O.3       1 RES1    0.0000
      2 O2        -0.7742   -0.3346    9.0119 O.2       1 RES1    0.0000
      3 O3         2.4586    1.9308    7.4632 O.2       1 RES1    0.0000
      4 N1         0.7513    0.3990    7.4419 N.am      1 RES1    0.0000
      5 N2         1.4393    1.3347    9.4200 N.am      1 RES1    0.0000
      6 H1         0.7768    0.8785    9.7759 H         1 RES1    0.0000
      7 C1         1.6386    1.3017    8.1036 C.2       1 RES1    0.0000
      8 C2        -0.1430   -0.4306    5.6154 C.2       1 RES1    0.0000
      9 C3        -0.3217    0.5414    3.2920 C.3       1 RES1    0.0000
     10 H2         0.3845    1.1998    3.5528 H         1 RES1    0.0000
     11 C4        -0.4115   -0.2543    7.8412 C.2       1 RES1    0.0000
     12 C5        -0.1466   -0.7138    4.1580 C.3       1 RES1    0.0000
     13 H3        -0.8803   -1.3468    3.9554 H         1 RES1    0.0000
     14 H4         0.7063   -1.1539    3.9158 H         1 RES1    0.0000
     15 C6        -0.9597   -0.7739    6.6168 C.2       1 RES1    0.0000
     16 H5        -1.7631   -1.2738    6.5340 H         1 RES1    0.0000
     17 C7         2.3187    2.1254   10.2672 C.3       1 RES1    0.0000
     18 H6         2.2055    3.0758   10.0575 H         1 RES1    0.0000
     19 H7         3.2495    1.8638   10.1055 H         1 RES1    0.0000
     20 H8         2.0934    1.9687   11.2070 H         1 RES1    0.0000
     21 C8        -0.1249    0.1912    1.8212 C.3       1 RES1    0.0000
     22 H9         0.7654   -0.1976    1.6940 H         1 RES1    0.0000
     23 H10       -0.2078    1.0031    1.2788 H         1 RES1    0.0000
     24 H11       -0.8066   -0.4571    1.5459 H         1 RES1    0.0000
     25 C9        -1.6849    1.1858    3.5338 C.3       1 RES1    0.0000
     26 H12       -2.3930    0.5573    3.2816 H         1 RES1    0.0000
     27 H13       -1.7622    1.9996    2.9937 H         1 RES1    0.0000
     28 H14       -1.7744    1.4143    4.4832 H         1 RES1    0.0000
@<TRIPOS>BOND
     1    1    4 1
     2    2   11 2
     3    3    7 2
     4    4    7 1
     5    5    6 1
     6    7    5 1
     7    8    1 1
     8    9   10 1
     9   11    4 1
    10   12    8 1
    11   13   12 1
    12   14   12 1
    13   15    8 2
    14   16   15 1
    15   17    5 1
    16   18   17 1
    17   19   17 1
    18   20   17 1
    19   21    9 1
    20   22   21 1
    21   23   21 1
    22   24   21 1
    23   25    9 1
    24   26   25 1
    25   27   25 1
    26   28   25 1
    27    9   12 1
    28   11   15 1
@<TRIPOS>SUBSTRUCTURE
     1 RES1 1

@<TRIPOS>CRYSIN
   5.1175    9.3660   20.8721  90.0000  91.7870  90.0000  14 1

