# MOL2 file generated by ConQuest
# Please check atom types

@<TRIPOS>MOLECULE
VOTXEH
    38    39     1
SMALL
NO_CHARGES
****
Generated from CSD

@<TRIPOS>ATOM
      1 O1         3.8386    1.2415    4.1412 O.3       1 RES1    0.0000
      2 C1         4.5984    2.0488    4.9357 C.2       1 RES1    0.0000
      3 C2         5.2330    3.1344    4.4403 C.2       1 RES1    0.0000
      4 C3         5.1800    3.5049    3.0373 C.2       1 RES1    0.0000
      5 O2         5.7573    4.4937    2.5881 O.2       1 RES1    0.0000
      6 C4         4.3881    2.5893    2.2109 C.ar      1 RES1    0.0000
      7 C5         4.2383    2.7923    0.8305 C.ar      1 RES1    0.0000
      8 C6         3.4633    1.9358    0.0802 C.ar      1 RES1    0.0000
      9 C7         2.8159    0.8621    0.7020 C.ar      1 RES1    0.0000
     10 C8         2.9431    0.6433    2.0536 C.ar      1 RES1    0.0000
     11 C9         3.7390    1.5074    2.7978 C.ar      1 RES1    0.0000
     12 O3         6.0890    3.8765    5.2420 O.3       1 RES1    0.0000
     13 C10        5.5641    4.9793    5.8710 C.2       1 RES1    0.0000
     14 C11        6.6200    5.6772    6.6502 C.3       1 RES1    0.0000
     15 O4         4.4156    5.2970    5.7559 O.2       1 RES1    0.0000
     16 N1         4.8692    2.4271    7.1929 N.2       1 RES1    0.0000
     17 O5         4.9521    1.8491    8.4931 O.3       1 RES1    0.0000
     18 C12        5.4955    2.7384    9.3852 C.2       1 RES1    0.0000
     19 C13        5.5021    2.1651   10.7564 C.3       1 RES1    0.0000
     20 O6         5.9150    3.7970    9.0656 O.2       1 RES1    0.0000
     21 C14        4.6725    1.5165    6.3130 C.2       1 RES1    0.0000
     22 C15        4.5462    0.0319    6.5587 C.3       1 RES1    0.0000
     23 C16        3.1800   -0.3733    7.1075 C.3       1 RES1    0.0000
     24 H1         4.7245    3.5618    0.3988 H         1 RES1    0.0000
     25 H2         3.3964    2.0403   -0.9148 H         1 RES1    0.0000
     26 H3         2.3069    0.2940    0.1778 H         1 RES1    0.0000
     27 H4         2.4823   -0.0664    2.5192 H         1 RES1    0.0000
     28 H5         6.2508    6.4625    7.0613 H         1 RES1    0.0000
     29 H6         7.3510    5.8740    6.1177 H         1 RES1    0.0000
     30 H7         6.8665    5.1762    7.3933 H         1 RES1    0.0000
     31 H8         5.6269    2.8804   11.4296 H         1 RES1    0.0000
     32 H9         6.2465    1.5312   10.8479 H         1 RES1    0.0000
     33 H10        4.7168    1.7366   10.9990 H         1 RES1    0.0000
     34 H11        5.2473   -0.2026    7.2000 H         1 RES1    0.0000
     35 H12        4.6755   -0.4162    5.7189 H         1 RES1    0.0000
     36 H13        3.1923   -1.3084    7.2669 H         1 RES1    0.0000
     37 H14        2.5094   -0.2025    6.4579 H         1 RES1    0.0000
     38 H15        2.9558    0.0833    7.9792 H         1 RES1    0.0000
@<TRIPOS>BOND
     1    1    2 1
     2    2    3 2
     3    3    4 1
     4    4    5 2
     5    6    4 1
     6    7    6 ar
     7    8    7 ar
     8    9    8 ar
     9   10    9 ar
    10   11    1 1
    11   12    3 1
    12   13   12 1
    13   14   13 1
    14   15   13 2
    15   16   17 1
    16   17   18 1
    17   18   19 1
    18   19   31 1
    19   20   18 2
    20   21    2 1
    21   22   21 1
    22   23   22 1
    23   24    7 1
    24   25    8 1
    25   26    9 1
    26   27   10 1
    27   28   14 1
    28   29   14 1
    29   30   14 1
    30   32   19 1
    31   33   19 1
    32   34   22 1
    33   35   22 1
    34   36   23 1
    35   37   23 1
    36   38   23 1
    37    6   11 ar
    38   10   11 ar
    39   16   21 2
@<TRIPOS>SUBSTRUCTURE
     1 RES1 1

@<TRIPOS>CRYSIN
   8.3940    8.7320   11.2440 109.1300 101.5300  96.5300   2 1

