# MOL2 file generated by ConQuest
# Please check atom types

@<TRIPOS>MOLECULE
VOTXOR
    34    37     1
SMALL
NO_CHARGES
****
Generated from CSD

@<TRIPOS>ATOM
      1 O1         4.4687    8.9062    2.2624 O.3       1 RES1    0.0000
      2 C1         3.9092    7.6797    2.3794 C.2       1 RES1    0.0000
      3 C2         2.7846    7.2768    1.7621 C.2       1 RES1    0.0000
      4 C3         2.0689    8.1976    0.8851 C.2       1 RES1    0.0000
      5 O2         1.0541    7.8686    0.2560 O.2       1 RES1    0.0000
      6 C4         2.6549    9.5349    0.7953 C.ar      1 RES1    0.0000
      7 C5         2.0741   10.5316   -0.0096 C.ar      1 RES1    0.0000
      8 C6         2.6919   11.7561   -0.1442 C.ar      1 RES1    0.0000
      9 C7         3.8944   12.0131    0.5158 C.ar      1 RES1    0.0000
     10 C8         4.4780   11.0611    1.3221 C.ar      1 RES1    0.0000
     11 C9         3.8411    9.8289    1.4546 C.ar      1 RES1    0.0000
     12 O3         2.4553    3.6111    1.8637 O.3       1 RES1    0.0000
     13 N1         1.1633    4.0180    2.2669 N.3       1 RES1    0.0000
     14 C10        1.1541    5.3768    2.3699 C.2       1 RES1    0.0000
     15 C11        2.3399    5.8849    1.9277 C.2       1 RES1    0.0000
     16 C12        3.1901    4.7714    1.5944 C.2       1 RES1    0.0000
     17 O4         4.3090    4.6721    1.1367 O.2       1 RES1    0.0000
     18 C13       -0.0670    6.0211    2.8724 C.ar      1 RES1    0.0000
     19 C14       -1.2721    5.3164    2.9077 C.ar      1 RES1    0.0000
     20 C15       -2.4108    5.9043    3.4352 C.ar      1 RES1    0.0000
     21 C16       -2.3579    7.1989    3.9282 C.ar      1 RES1    0.0000
     22 C17       -0.0262    7.3254    3.3727 C.ar      1 RES1    0.0000
     23 C18       -1.1664    7.9075    3.8951 C.ar      1 RES1    0.0000
     24 H1         4.4411    7.1152    2.9783 H         1 RES1    0.0000
     25 H2         1.2612   10.3311   -0.4885 H         1 RES1    0.0000
     26 H3         2.2866   12.4706   -0.7071 H         1 RES1    0.0000
     27 H4         4.3107   12.8307    0.3885 H         1 RES1    0.0000
     28 H5         5.3211   11.2169    1.7643 H         1 RES1    0.0000
     29 H6         0.8781    3.4573    2.9607 H         1 RES1    0.0000
     30 H7        -1.2781    4.4326    2.5670 H         1 RES1    0.0000
     31 H8        -3.2570    5.4040    3.4676 H         1 RES1    0.0000
     32 H9        -3.1602    7.6019    4.3292 H         1 RES1    0.0000
     33 H10        0.8186    7.7985    3.4308 H         1 RES1    0.0000
     34 H11       -1.0968    8.7952    4.2777 H         1 RES1    0.0000
@<TRIPOS>BOND
     1    1    2 1
     2    2    3 2
     3    3    4 1
     4    4    5 2
     5    6    4 1
     6    7    6 ar
     7    8    7 ar
     8    9    8 ar
     9   10    9 ar
    10   11    1 1
    11   12   13 1
    12   13   14 1
    13   14   15 2
    14   15    3 1
    15   16   12 1
    16   17   16 2
    17   18   14 1
    18   19   18 ar
    19   20   19 ar
    20   21   20 ar
    21   22   18 ar
    22   23   21 ar
    23   24    2 1
    24   25    7 1
    25   26    8 1
    26   27    9 1
    27   28   10 1
    28   29   13 1
    29   30   19 1
    30   31   20 1
    31   32   21 1
    32   33   22 1
    33   34   23 1
    34    6   11 ar
    35   10   11 ar
    36   15   16 1
    37   22   23 ar
@<TRIPOS>SUBSTRUCTURE
     1 RES1 1

@<TRIPOS>CRYSIN
   9.6160   19.4670    7.3870  90.0000  95.1200  90.0000  14 1

