# MOL2 file generated by ConQuest
# Please check atom types

@<TRIPOS>MOLECULE
VOWXEK
    35    37     1
SMALL
NO_CHARGES
****
Generated from CSD

@<TRIPOS>ATOM
      1 C1         7.0941    1.7007    7.1215 C.ar      1 RES1    0.0000
      2 C2         8.0612    1.9529    8.0626 C.ar      1 RES1    0.0000
      3 C3         9.0476    1.0160    8.3234 C.ar      1 RES1    0.0000
      4 C4         9.0643   -0.1847    7.6250 C.ar      1 RES1    0.0000
      5 C5         8.0944   -0.4485    6.6768 C.ar      1 RES1    0.0000
      6 C6         7.0916    0.4878    6.4153 C.ar      1 RES1    0.0000
      7 C7         6.0794    0.2459    5.4045 C.2       1 RES1    0.0000
      8 C8         5.2051    1.0212    4.7309 C.2       1 RES1    0.0000
      9 C9         4.5134    0.1501    3.8572 C.2       1 RES1    0.0000
     10 C10        3.4669    0.4341    2.8837 C.2       1 RES1    0.0000
     11 C11        2.9469    1.6406    2.6667 C.2       1 RES1    0.0000
     12 C12        1.8474    1.9223    1.6884 C.3       1 RES1    0.0000
     13 C13        2.2494    2.8385    0.5515 C.ar      1 RES1    0.0000
     14 C14        1.5061    3.9769    0.2551 C.ar      1 RES1    0.0000
     15 C15        1.8803    4.8261   -0.7787 C.ar      1 RES1    0.0000
     16 C16        2.9837    4.5507   -1.5284 C.ar      1 RES1    0.0000
     17 C17        3.7218    3.4077   -1.2738 C.ar      1 RES1    0.0000
     18 C18        3.3565    2.5539   -0.2326 C.ar      1 RES1    0.0000
     19 N1         4.9323   -1.0991    3.9891 N.2       1 RES1    0.0000
     20 O1         5.9392   -1.0576    4.9794 O.3       1 RES1    0.0000
     21 H1         6.4072    2.4073    6.9267 H         1 RES1    0.0000
     22 H2         8.0460    2.7883    8.6288 H         1 RES1    0.0000
     23 H3         9.7408    1.2123    9.0070 H         1 RES1    0.0000
     24 H4         9.7838   -0.8717    7.8014 H         1 RES1    0.0000
     25 H5         8.1056   -1.3220    6.1938 H         1 RES1    0.0000
     26 H6         5.1128    2.0205    4.8463 H         1 RES1    0.0000
     27 H7         3.0956   -0.3233    2.3404 H         1 RES1    0.0000
     28 H8         3.3395    2.4188    3.1442 H         1 RES1    0.0000
     29 H9         1.5022    1.0333    1.3475 H         1 RES1    0.0000
     30 H10        1.0479    2.2803    2.1749 H         1 RES1    0.0000
     31 H11        0.6994    4.2199    0.8038 H         1 RES1    0.0000
     32 H12        1.3256    5.6169   -0.9929 H         1 RES1    0.0000
     33 H13        3.2619    5.1609   -2.2458 H         1 RES1    0.0000
     34 H14        4.5427    3.2097   -1.8676 H         1 RES1    0.0000
     35 H15        3.8864    1.7087   -0.0236 H         1 RES1    0.0000
@<TRIPOS>BOND
     1    1    2 ar
     2    2    3 ar
     3    3    4 ar
     4    4    5 ar
     5    5    6 ar
     6    6    1 ar
     7    7    6 1
     8    8    7 2
     9    9    8 1
    10   10    9 1
    11   11   10 2
    12   12   11 1
    13   13   12 1
    14   14   13 ar
    15   15   14 ar
    16   16   15 ar
    17   17   16 ar
    18   18   13 ar
    19   19    9 2
    20   20    7 1
    21   21    1 1
    22   22    2 1
    23   23    3 1
    24   24    4 1
    25   25    5 1
    26   26    8 1
    27   27   10 1
    28   28   11 1
    29   29   12 1
    30   30   12 1
    31   31   14 1
    32   32   15 1
    33   33   16 1
    34   34   17 1
    35   35   18 1
    36   17   18 ar
    37   19   20 1
@<TRIPOS>SUBSTRUCTURE
     1 RES1 1

@<TRIPOS>CRYSIN
  10.3511    5.7728   24.1030  90.0000 101.2420  90.0000  14 1

