# MOL2 file generated by ConQuest
# Please check atom types

@<TRIPOS>MOLECULE
VOXFOD
    48    50     1
SMALL
NO_CHARGES
****
Generated from CSD

@<TRIPOS>ATOM
      1 N1         2.0799    5.0538    7.1477 N.am      1 RES1    0.0000
      2 C1         3.5228    5.0569    7.2451 C.2       1 RES1    0.0000
      3 O1         4.0593    4.0760    7.7299 O.2       1 RES1    0.0000
      4 N2         4.1433    6.1466    6.8087 N.am      1 RES1    0.0000
      5 N3         1.5680    5.4255    5.9607 N.2       1 RES1    0.0000
      6 O2         0.3542    5.2707    5.8602 O.2       1 RES1    0.0000
      7 C2         1.2939    4.4203    8.1773 C.ar      1 RES1    0.0000
      8 C3         0.8678    3.1013    8.0331 C.ar      1 RES1    0.0000
      9 C4         0.1120    2.5676    9.0642 C.ar      1 RES1    0.0000
     10 C5        -0.1936    3.3050   10.1764 C.ar      1 RES1    0.0000
     11 C6         0.2271    4.5924   10.3026 C.ar      1 RES1    0.0000
     12 C7         0.9681    5.1821    9.2793 C.ar      1 RES1    0.0000
     13 C8         1.1728    2.2916    6.8118 C.3       1 RES1    0.0000
     14 C9         3.5043    7.4585    6.5335 C.3       1 RES1    0.0000
     15 C10        2.7204    7.9922    7.7026 C.ar      1 RES1    0.0000
     16 C11        3.2713    8.0329    8.9637 C.ar      1 RES1    0.0000
     17 C12        2.5177    8.5381   10.0182 C.ar      1 RES1    0.0000
     18 C13        1.2312    8.9954    9.7984 C.ar      1 RES1    0.0000
     19 C14        0.7027    8.9567    8.5607 C.ar      1 RES1    0.0000
     20 C15        1.4412    8.4637    7.5156 C.ar      1 RES1    0.0000
     21 C16        5.6127    6.1141    6.7190 C.3       1 RES1    0.0000
     22 C17        6.1017    6.1629    5.2936 C.ar      1 RES1    0.0000
     23 C18        5.4996    5.4174    4.2874 C.ar      1 RES1    0.0000
     24 C19        6.0495    5.3848    3.0162 C.ar      1 RES1    0.0000
     25 C20        7.1895    6.0886    2.7356 C.ar      1 RES1    0.0000
     26 C21        7.7828    6.8464    3.7200 C.ar      1 RES1    0.0000
     27 C22        7.2308    6.8871    4.9982 C.ar      1 RES1    0.0000
     28 H1        -0.2116    1.5074    9.0330 H         1 RES1    0.0000
     29 H2        -0.7546    2.8416   10.9035 H         1 RES1    0.0000
     30 H3        -0.0044    5.1740   11.0750 H         1 RES1    0.0000
     31 H4         1.3491    6.1721    9.3993 H         1 RES1    0.0000
     32 H5         1.5277    2.8111    5.8454 H         1 RES1    0.0000
     33 H6         1.7555    1.9352    7.0924 H         1 RES1    0.0000
     34 H7         0.7974    1.2120    6.9677 H         1 RES1    0.0000
     35 H8         2.9242    7.3230    5.6895 H         1 RES1    0.0000
     36 H9         4.1987    8.0665    6.2273 H         1 RES1    0.0000
     37 H10        4.2920    7.7712    9.1032 H         1 RES1    0.0000
     38 H11        2.9701    8.3721   10.9347 H         1 RES1    0.0000
     39 H12        0.7045    9.3396   10.5450 H         1 RES1    0.0000
     40 H13       -0.2604    9.2582    8.3939 H         1 RES1    0.0000
     41 H14        1.0305    8.4739    6.6091 H         1 RES1    0.0000
     42 H15        5.9823    6.9054    7.2560 H         1 RES1    0.0000
     43 H16        5.9510    5.2656    7.2015 H         1 RES1    0.0000
     44 H17        4.4507    5.0314    4.5672 H         1 RES1    0.0000
     45 H18        5.6370    4.8888    2.2914 H         1 RES1    0.0000
     46 H19        7.4732    6.0703    1.6367 H         1 RES1    0.0000
     47 H20        8.7638    7.4656    3.4994 H         1 RES1    0.0000
     48 H21        7.7470    7.3536    5.8376 H         1 RES1    0.0000
@<TRIPOS>BOND
     1    1    2 1
     2    2    3 2
     3    4    2 1
     4    5    1 1
     5    6    5 2
     6    7    1 1
     7    8    7 ar
     8    9    8 ar
     9   10    9 ar
    10   11   10 ar
    11   12    7 ar
    12   13    8 1
    13   14    4 1
    14   15   14 1
    15   16   15 ar
    16   17   16 ar
    17   18   17 ar
    18   19   18 ar
    19   20   15 ar
    20   21    4 1
    21   22   21 1
    22   23   22 ar
    23   24   23 ar
    24   25   24 ar
    25   26   25 ar
    26   27   22 ar
    27   28    9 1
    28   29   10 1
    29   30   11 1
    30   31   12 1
    31   32   13 1
    32   33   13 1
    33   34   13 1
    34   35   14 1
    35   36   14 1
    36   37   16 1
    37   38   17 1
    38   39   18 1
    39   40   19 1
    40   41   20 1
    41   42   21 1
    42   43   21 1
    43   44   23 1
    44   45   24 1
    45   46   25 1
    46   47   26 1
    47   48   27 1
    48   11   12 ar
    49   19   20 ar
    50   26   27 ar
@<TRIPOS>SUBSTRUCTURE
     1 RES1 1

@<TRIPOS>CRYSIN
  12.6390   10.1850    7.8510  90.0000  96.9200  90.0000   4 1

