# MOL2 file generated by ConQuest
# Please check atom types

@<TRIPOS>MOLECULE
VOXJEX
    57    61     1
SMALL
NO_CHARGES
****
Generated from CSD

@<TRIPOS>ATOM
      1 C1        -1.3007   -0.4498   -9.8941 C.3       1 RES1    0.0000
      2 C2        -1.3162    0.2386   -8.5190 C.3       1 RES1    0.0000
      3 C3         0.0529    0.7615   -8.1822 C.2       1 RES1    0.0000
      4 C4         1.1162    0.7696   -9.1065 C.2       1 RES1    0.0000
      5 C5         1.0265    0.2193  -10.4867 C.3       1 RES1    0.0000
      6 C6         2.0118    0.8214  -11.4743 C.3       1 RES1    0.0000
      7 C7         1.9272    0.0812  -12.8038 C.3       1 RES1    0.0000
      8 C8         0.4963    0.0599  -13.3483 C.3       1 RES1    0.0000
      9 C9        -0.5088   -0.4863  -12.3049 C.3       1 RES1    0.0000
     10 C10       -0.4463    0.2731  -10.9628 C.3       1 RES1    0.0000
     11 C11       -1.9044   -0.5645  -12.9355 C.3       1 RES1    0.0000
     12 C12       -1.9434   -1.3940  -14.2169 C.3       1 RES1    0.0000
     13 C13       -0.9647   -0.8691  -15.2628 C.3       1 RES1    0.0000
     14 C14        0.4140   -0.8082  -14.5892 C.3       1 RES1    0.0000
     15 C15        1.3772   -0.5503  -15.7591 C.3       1 RES1    0.0000
     16 C16        0.7618   -1.3605  -16.9215 C.3       1 RES1    0.0000
     17 C17       -0.6353   -1.8265  -16.4277 C.3       1 RES1    0.0000
     18 C18       -1.6096   -1.9534  -17.5951 C.3       1 RES1    0.0000
     19 C19       -1.1838   -2.9972  -18.5878 C.3       1 RES1    0.0000
     20 C20       -1.4456    0.4863  -15.8072 C.3       1 RES1    0.0000
     21 C21       -0.9272    1.7351  -11.1122 C.3       1 RES1    0.0000
     22 N1         2.1743    1.3229   -8.5519 N.2       1 RES1    0.0000
     23 N2         0.4324    1.2986   -7.0654 N.2       1 RES1    0.0000
     24 O1        -2.9000   -2.2733  -17.0684 O.3       1 RES1    0.0000
     25 O2         1.7735    1.6661   -7.2781 O.3       1 RES1    0.0000
     26 H1        -2.3169   -0.4975  -10.2562 H         1 RES1    0.0000
     27 H2        -0.9140   -1.4509   -9.7725 H         1 RES1    0.0000
     28 H3        -1.6118   -0.4813   -7.7694 H         1 RES1    0.0000
     29 H4        -2.0221    1.0559   -8.5291 H         1 RES1    0.0000
     30 H5         1.3368   -0.8143  -10.4436 H         1 RES1    0.0000
     31 H6         3.0125    0.7259  -11.0793 H         1 RES1    0.0000
     32 H7         1.7824    1.8651  -11.6237 H         1 RES1    0.0000
     33 H8         2.5610    0.5838  -13.5180 H         1 RES1    0.0000
     34 H9         2.2721   -0.9331  -12.6671 H         1 RES1    0.0000
     35 H10        0.2316    1.0803  -13.5838 H         1 RES1    0.0000
     36 H11       -0.2265   -1.4925  -12.0314 H         1 RES1    0.0000
     37 H12       -2.2258    0.4396  -13.1685 H         1 RES1    0.0000
     38 H13       -2.5838   -1.0021  -12.2188 H         1 RES1    0.0000
     39 H14       -2.9427   -1.3605  -14.6246 H         1 RES1    0.0000
     40 H15       -1.6860   -2.4337  -13.9788 H         1 RES1    0.0000
     41 H16        0.7022   -1.7179  -14.0852 H         1 RES1    0.0000
     42 H17        1.4162    0.4995  -16.0073 H         1 RES1    0.0000
     43 H18        2.3713   -0.9026  -15.5261 H         1 RES1    0.0000
     44 H19        1.3787   -2.2174  -17.1469 H         1 RES1    0.0000
     45 H20        0.6603   -0.7473  -17.8053 H         1 RES1    0.0000
     46 H21       -0.6949   -2.8266  -16.0225 H         1 RES1    0.0000
     47 H22       -1.6397   -1.0214  -18.1396 H         1 RES1    0.0000
     48 H23       -0.1809   -2.7647  -18.9145 H         1 RES1    0.0000
     49 H24       -1.8522   -2.9322  -19.4260 H         1 RES1    0.0000
     50 H25       -1.1941   -3.9983  -18.1826 H         1 RES1    0.0000
     51 H26       -0.7162    0.7564  -16.5543 H         1 RES1    0.0000
     52 H27       -1.4963    1.2620  -15.0577 H         1 RES1    0.0000
     53 H28       -2.4133    0.3706  -16.2707 H         1 RES1    0.0000
     54 H29       -0.3574    2.1900  -11.9099 H         1 RES1    0.0000
     55 H30       -0.6919    2.2235  -10.1777 H         1 RES1    0.0000
     56 H31       -1.9816    1.8397  -11.3173 H         1 RES1    0.0000
     57 H32       -3.5589   -2.2134  -17.7344 H         1 RES1    0.0000
@<TRIPOS>BOND
     1    1    2 1
     2    2    3 1
     3    3    4 1
     4    4    5 1
     5    5    6 1
     6    6    7 1
     7    7    8 1
     8    8    9 1
     9    9   10 1
    10   10    1 1
    11   11    9 1
    12   12   11 1
    13   13   12 1
    14   14    8 1
    15   15   14 1
    16   16   15 1
    17   17   13 1
    18   18   17 1
    19   19   18 1
    20   20   13 1
    21   21   10 1
    22   22    4 2
    23   23    3 2
    24   24   18 1
    25   25   22 1
    26   26    1 1
    27   27    1 1
    28   28    2 1
    29   29    2 1
    30   30    5 1
    31   31    6 1
    32   32    6 1
    33   33    7 1
    34   34    7 1
    35   35    8 1
    36   36    9 1
    37   37   11 1
    38   38   11 1
    39   39   12 1
    40   40   12 1
    41   41   14 1
    42   42   15 1
    43   43   15 1
    44   44   16 1
    45   45   16 1
    46   46   17 1
    47   47   18 1
    48   48   19 1
    49   49   19 1
    50   50   19 1
    51   51   20 1
    52   52   20 1
    53   53   20 1
    54   54   21 1
    55   55   21 1
    56   56   21 1
    57   57   24 1
    58    5   10 1
    59   13   14 1
    60   16   17 1
    61   23   25 1
@<TRIPOS>SUBSTRUCTURE
     1 RES1 1

@<TRIPOS>CRYSIN
   7.3530   10.1530   25.3240  90.0000  90.0000  90.0000  19 1

