# MOL2 file generated by ConQuest
# Please check atom types

@<TRIPOS>MOLECULE
VOXPIH
    28    29     1
SMALL
NO_CHARGES
****
Generated from CSD

@<TRIPOS>ATOM
      1 C1        12.4124    1.0339    3.0622 C.ar      1 RES1    0.0000
      2 C2        11.9924    0.4139    4.2529 C.ar      1 RES1    0.0000
      3 C3        10.6821    0.0043    4.3949 C.ar      1 RES1    0.0000
      4 C4         9.7439    0.2608    3.3978 C.ar      1 RES1    0.0000
      5 C5        10.1346    0.9013    2.2372 C.ar      1 RES1    0.0000
      6 C6        11.4662    1.2659    2.0673 C.ar      1 RES1    0.0000
      7 O1        12.8616    0.1645    5.2608 O.3       1 RES1    0.0000
      8 C7        13.7865    1.4288    2.8331 C.2       1 RES1    0.0000
      9 N1        14.7115    1.2690    3.7054 N.2       1 RES1    0.0000
     10 C8        16.0617    1.6624    3.4301 C.ar      1 RES1    0.0000
     11 C9        17.0265    1.2781    4.3669 C.ar      1 RES1    0.0000
     12 C10       18.3342    1.5966    4.1185 C.ar      1 RES1    0.0000
     13 C11       18.7595    2.2761    2.9859 C.ar      1 RES1    0.0000
     14 C12       17.7973    2.6734    2.0824 C.ar      1 RES1    0.0000
     15 C13       16.4790    2.3648    2.2749 C.ar      1 RES1    0.0000
     16 N2        19.3655    1.1376    5.1005 N.pl3     1 RES1    0.0000
     17 O2        20.5376    1.4178    4.8628 O.2       1 RES1    0.0000
     18 O3        18.9721    0.5252    6.0793 O.2       1 RES1    0.0000
     19 H1        10.4110   -0.4605    5.1898 H         1 RES1    0.0000
     20 H2         8.8295   -0.0099    3.5172 H         1 RES1    0.0000
     21 H3         9.4860    1.0942    1.5553 H         1 RES1    0.0000
     22 H4        11.7399    1.6869    1.2488 H         1 RES1    0.0000
     23 H5        13.8742    0.3670    5.0618 H         1 RES1    0.0000
     24 H6        14.0178    1.8246    1.9899 H         1 RES1    0.0000
     25 H7        16.7740    0.8046    5.1629 H         1 RES1    0.0000
     26 H8        19.6897    2.4627    2.8353 H         1 RES1    0.0000
     27 H9        18.0525    3.1750    1.3047 H         1 RES1    0.0000
     28 H10       15.8305    2.6276    1.6188 H         1 RES1    0.0000
@<TRIPOS>BOND
     1    1    2 ar
     2    2    3 ar
     3    3    4 ar
     4    4    5 ar
     5    5    6 ar
     6    6    1 ar
     7    7    2 1
     8    8    1 1
     9    9    8 2
    10   10    9 1
    11   11   10 ar
    12   12   11 ar
    13   13   12 ar
    14   14   13 ar
    15   15   10 ar
    16   16   12 1
    17   17   16 2
    18   18   16 2
    19   19    3 1
    20   20    4 1
    21   21    5 1
    22   22    6 1
    23   23    7 1
    24   24    8 1
    25   25   11 1
    26   26   13 1
    27   27   14 1
    28   28   15 1
    29   14   15 ar
@<TRIPOS>SUBSTRUCTURE
     1 RES1 1

@<TRIPOS>CRYSIN
  26.5790    3.9460   10.7560  90.0000  90.0000  90.0000  29 1

