# MOL2 file generated by ConQuest
# Please check atom types

@<TRIPOS>MOLECULE
VOZHAT
    28    28     1
SMALL
NO_CHARGES
****
Generated from CSD

@<TRIPOS>ATOM
      1 N1        -1.5947    0.3986   11.9197 N.pl3     1 RES1    0.0000
      2 N2        -2.3241   -2.1356   13.4421 N.pl3     1 RES1    0.0000
      3 C1        -2.9913   -1.0245   14.1248 C.ar      1 RES1    0.0000
      4 C2        -1.0679    0.9840   10.6265 C.3       1 RES1    0.0000
      5 N3        -0.5281   -0.2659    9.8957 N.pl3     1 RES1    0.0000
      6 C3        -3.2618    0.1657   13.4630 C.ar      1 RES1    0.0000
      7 O1        -0.7296   -0.1545   12.6409 O.2       1 RES1    0.0000
      8 N4        -2.8238    0.5711   12.1569 N.2       1 RES1    0.0000
      9 C4        -4.0372    1.1142   14.1072 C.ar      1 RES1    0.0000
     10 O2        -1.5930   -2.8674   14.0912 O.2       1 RES1    0.0000
     11 C5        -4.1540   -0.2753   16.0543 C.ar      1 RES1    0.0000
     12 C6        -3.4263   -1.2574   15.4181 C.ar      1 RES1    0.0000
     13 O3        -2.5753   -2.2888   12.2483 O.2       1 RES1    0.0000
     14 C7        -4.4760    0.8918   15.4117 C.ar      1 RES1    0.0000
     15 O4         0.6140   -0.2348    9.5063 O.2       1 RES1    0.0000
     16 O5        -1.3022   -1.1684    9.6954 O.2       1 RES1    0.0000
     17 C8         0.0393    1.9406   10.9630 C.3       1 RES1    0.0000
     18 C9        -2.1538    1.5657    9.7595 C.3       1 RES1    0.0000
     19 H1        -4.2981    2.0067   13.6136 H         1 RES1    0.0000
     20 H2        -5.0509    1.6180   15.9037 H         1 RES1    0.0000
     21 H3        -4.4709   -0.4216   17.0447 H         1 RES1    0.0000
     22 H4        -3.2043   -2.1630   15.9053 H         1 RES1    0.0000
     23 H5        -1.6411    1.8516    8.9294 H         1 RES1    0.0000
     24 H6        -2.5812    2.3972   10.1794 H         1 RES1    0.0000
     25 H7         0.3908    2.2919   10.2066 H         1 RES1    0.0000
     26 H8         0.7470    1.4648   11.3556 H         1 RES1    0.0000
     27 H9        -2.9414    0.8925    9.5992 H         1 RES1    0.0000
     28 H10       -0.3570    2.6861   11.5848 H         1 RES1    0.0000
@<TRIPOS>BOND
     1    1    4 1
     2    2    3 1
     3    3    6 ar
     4    4    5 1
     5    5   15 2
     6    6    8 1
     7    7    1 2
     8    8    1 2
     9    9    6 ar
    10   10    2 2
    11   11   12 ar
    12   12    3 ar
    13   13    2 2
    14   14    9 ar
    15   16    5 2
    16   17    4 1
    17   18    4 1
    18   19    9 1
    19   20   14 1
    20   21   11 1
    21   22   12 1
    22   23   18 1
    23   24   18 1
    24   25   17 1
    25   26   17 1
    26   27   18 1
    27   28   17 1
    28   11   14 ar
@<TRIPOS>SUBSTRUCTURE
     1 RES1 1

@<TRIPOS>CRYSIN
  11.3580    6.2280   16.1790  90.0000  97.9000  90.0000 231 1

