# MOL2 file generated by ConQuest
# Please check atom types

@<TRIPOS>MOLECULE
VUCBAW
    40    40     2
SMALL
NO_CHARGES
****
Generated from CSD

@<TRIPOS>ATOM
      1 C1        -0.2330   -0.0645    1.0632 C.3       1 RES1    0.0000
      2 N1         0.5610   -0.6373    2.1594 N.pl3     1 RES1    0.0000
      3 O1         1.3514    0.0741    2.7132 O.2       1 RES1    0.0000
      4 O2         0.3691   -1.8102    2.4146 O.2       1 RES1    0.0000
      5 N2        -1.5093    0.4774    1.6595 N.pl3     1 RES1    0.0000
      6 O3        -2.3129    0.9351    0.8645 O.2       1 RES1    0.0000
      7 O4        -1.6467    0.4480    2.8781 O.2       1 RES1    0.0000
      8 C2         0.4845    0.9696    0.1623 C.3       1 RES1    0.0000
      9 C3        -3.3235   -3.7742    3.3312 C.3       2 RES2    0.0000
     10 N3        -2.5256   -3.3370    2.0987 N.pl3     2 RES2    0.0000
     11 O5        -1.7509   -4.1366    1.6708 O.2       2 RES2    0.0000
     12 O6        -2.7260   -2.2318    1.6691 O.2       2 RES2    0.0000
     13 N4        -4.5938   -4.3694    2.7592 N.pl3     2 RES2    0.0000
     14 O7        -5.3628   -4.7564    3.6167 O.2       2 RES2    0.0000
     15 O8        -4.7518   -4.4414    1.5823 O.2       2 RES2    0.0000
     16 C4        -2.5810   -4.6204    4.3293 C.3       2 RES2    0.0000
     17 H1         0.1818    1.7065   -0.0295 H         1 RES1    0.0000
     18 H2         1.4858    1.1383    0.3619 H         1 RES1    0.0000
     19 H3        -2.8580   -5.5023    4.4465 H         2 RES2    0.0000
     20 H4        -1.5963   -4.7271    4.1314 H         2 RES2    0.0000
     21 C2A       -0.4845   -0.9696   -0.1623 C.3       1 RES1    0.0000
     22 C1A        0.2330    0.0645   -1.0632 C.3       1 RES1    0.0000
     23 H1A       -0.1818   -1.7065    0.0295 H         1 RES1    0.0000
     24 H2A       -1.4858   -1.1383   -0.3619 H         1 RES1    0.0000
     25 N1A       -0.5610    0.6373   -2.1594 N.pl3     1 RES1    0.0000
     26 N2A        1.5093   -0.4774   -1.6595 N.pl3     1 RES1    0.0000
     27 O1A       -1.3514   -0.0741   -2.7132 O.2       1 RES1    0.0000
     28 O2A       -0.3691    1.8102   -2.4146 O.2       1 RES1    0.0000
     29 O3A        2.3129   -0.9351   -0.8645 O.2       1 RES1    0.0000
     30 O4A        1.6467   -0.4480   -2.8781 O.2       1 RES1    0.0000
     31 C4A       -3.5680   -2.6491    4.3501 C.3       2 RES2    0.0000
     32 C3A       -2.8255   -3.4953    5.3483 C.3       2 RES2    0.0000
     33 H3A       -3.2910   -1.7672    4.2330 H         2 RES2    0.0000
     34 H4A       -4.5527   -2.5424    4.5480 H         2 RES2    0.0000
     35 N3A       -3.6234   -3.9325    6.5808 N.pl3     2 RES2    0.0000
     36 N4A       -1.5552   -2.9001    5.9203 N.pl3     2 RES2    0.0000
     37 O5A       -4.3982   -3.1329    7.0087 O.2       2 RES2    0.0000
     38 O6A       -3.4230   -5.0377    7.0104 O.2       2 RES2    0.0000
     39 O7A       -0.7862   -2.5131    5.0627 O.2       2 RES2    0.0000
     40 O8A       -1.3972   -2.8281    7.0972 O.2       2 RES2    0.0000
@<TRIPOS>BOND
     1    1    2 1
     2    2    3 2
     3    4    2 2
     4    5    1 1
     5    6    5 2
     6    7    5 2
     7    8    1 1
     8    9   10 1
     9   10   11 2
    10   12   10 2
    11   13    9 1
    12   14   13 2
    13   15   13 2
    14   16    9 1
    15   17    8 1
    16   18    8 1
    17   19   16 1
    18   20   16 1
    19   21    1 1
    20   22    8 1
    21   23   21 1
    22   24   21 1
    23   25   22 1
    24   26   22 1
    25   27   25 2
    26   28   25 2
    27   29   26 2
    28   30   26 2
    29   31    9 1
    30   32   16 1
    31   33   31 1
    32   34   31 1
    33   35   32 1
    34   36   32 1
    35   37   35 2
    36   38   35 2
    37   39   36 2
    38   40   36 2
    39   21   22 1
    40   31   32 1
@<TRIPOS>SUBSTRUCTURE
     1 RES1 1
     2 RES2 9

@<TRIPOS>CRYSIN
   6.3010    7.8580    8.7360  85.8800  84.6200  85.1300   2 1

