# MOL2 file generated by ConQuest
# Please check atom types

@<TRIPOS>MOLECULE
VUCJAE
    68    72     2
SMALL
NO_CHARGES
****
Generated from CSD

@<TRIPOS>ATOM
      1 O1        12.4565    0.9948   -0.7962 O.3       1 RES1    0.0000
      2 O2        10.1515    0.7498    2.8615 O.3       1 RES1    0.0000
      3 N1        12.3887    0.8796    0.5787 N.2       1 RES1    0.0000
      4 C1        10.5381    2.6059    0.5519 C.ar      1 RES1    0.0000
      5 C2        11.5191    1.6309    1.1596 C.2       1 RES1    0.0000
      6 C3        11.2426    1.5868    2.6276 C.3       1 RES1    0.0000
      7 C4        10.6316    3.0242    2.8615 C.3       1 RES1    0.0000
      8 C5         9.9645    3.2978    1.5760 C.ar      1 RES1    0.0000
      9 C6         8.9415    4.3033    1.3138 C.ar      1 RES1    0.0000
     10 C7         8.5573    4.3744   -0.0469 C.ar      1 RES1    0.0000
     11 C8         9.1092    3.6978   -1.0598 C.ar      1 RES1    0.0000
     12 C9        10.1520    2.6954   -0.8073 C.ar      1 RES1    0.0000
     13 C10       12.4409    1.2751    3.5124 C.3       1 RES1    0.0000
     14 C11       13.4054    2.3739    3.7306 C.3       1 RES1    0.0000
     15 C12       12.7159    3.6880    4.2304 C.3       1 RES1    0.0000
     16 C13       11.6635    4.0692    3.1646 C.3       1 RES1    0.0000
     17 C14       10.3787   -0.6681    2.6544 C.3       1 RES1    0.0000
     18 O3        -5.5864   -5.9455   -2.6693 O.3       2 RES2    0.0000
     19 O4        -3.5895   -2.3951   -4.2200 O.3       2 RES2    0.0000
     20 N2        -5.6695   -4.5942   -3.1147 N.2       2 RES2    0.0000
     21 C15       -3.6573   -4.0396   -1.6534 C.ar      2 RES2    0.0000
     22 C16       -4.7728   -3.8619   -2.6120 C.2       2 RES2    0.0000
     23 C17       -4.6949   -2.3172   -3.0112 C.3       2 RES2    0.0000
     24 C18       -3.8287   -1.7033   -2.0288 C.3       2 RES2    0.0000
     25 C19       -3.1172   -2.8568   -1.3808 C.ar      2 RES2    0.0000
     26 C20       -2.0006   -2.7238   -0.4960 C.ar      2 RES2    0.0000
     27 C21       -1.4592   -4.0199   -0.0693 C.ar      2 RES2    0.0000
     28 C22       -2.0269   -5.1531   -0.3515 C.ar      2 RES2    0.0000
     29 C23       -3.1278   -5.3167   -1.1663 C.ar      2 RES2    0.0000
     30 C24       -5.7026   -1.7982   -3.7895 C.3       2 RES2    0.0000
     31 C25       -6.6660   -1.2110   -2.4019 C.3       2 RES2    0.0000
     32 C26       -5.8610   -0.1142   -1.7033 C.3       2 RES2    0.0000
     33 C27       -4.6287   -0.8928   -0.9295 C.3       2 RES2    0.0000
     34 C28       -3.9367   -2.9440   -5.4526 C.3       2 RES2    0.0000
     35 H1        13.1031    0.4520   -1.2214 H         1 RES1    0.0000
     36 H2        -6.2559   -6.4955   -3.0350 H         2 RES2    0.0000
     37 H3         9.8998    2.9891    3.6562 H         1 RES1    0.0000
     38 H4         8.5170    4.9309    2.0832 H         1 RES1    0.0000
     39 H5         7.7421    5.0392   -0.2905 H         1 RES1    0.0000
     40 H6         8.7841    3.8890   -2.0720 H         1 RES1    0.0000
     41 H7        10.5849    2.0847   -1.5857 H         1 RES1    0.0000
     42 H8        12.9759    0.4521    3.0611 H         1 RES1    0.0000
     43 H9        12.0647    0.9719    4.4784 H         1 RES1    0.0000
     44 H10       13.9102    2.5813    2.7982 H         1 RES1    0.0000
     45 H11       14.1274    2.0598    4.4687 H         1 RES1    0.0000
     46 H12       13.4467    4.4777    4.3309 H         1 RES1    0.0000
     47 H13       12.2370    3.5190    5.1830 H         1 RES1    0.0000
     48 H14       11.1495    4.9542    3.5094 H         1 RES1    0.0000
     49 H15       12.1882    4.2924    2.2470 H         1 RES1    0.0000
     50 H16        9.5342   -1.3165    2.8361 H         1 RES1    0.0000
     51 H17       11.1773   -0.9750    3.3143 H         1 RES1    0.0000
     52 H18       10.6864   -0.8061    1.6288 H         1 RES1    0.0000
     53 H19       -3.1149   -1.0570   -2.5174 H         2 RES2    0.0000
     54 H20       -1.5998   -1.7734   -0.1773 H         2 RES2    0.0000
     55 H21       -0.5448   -4.0326    0.5057 H         2 RES2    0.0000
     56 H22       -1.6025   -6.0427    0.0901 H         2 RES2    0.0000
     57 H23       -3.5520   -6.2784   -1.4181 H         2 RES2    0.0000
     58 H24       -6.2152   -2.5479   -4.3726 H         2 RES2    0.0000
     59 H25       -5.3687   -1.0026   -4.4389 H         2 RES2    0.0000
     60 H26       -6.8541   -2.0230   -1.7152 H         2 RES2    0.0000
     61 H27       -7.6073   -0.8101   -2.7505 H         2 RES2    0.0000
     62 H28       -6.4786    0.4125   -0.9921 H         2 RES2    0.0000
     63 H29       -5.4681    0.5840   -2.4273 H         2 RES2    0.0000
     64 H30       -3.9786   -0.1741   -0.4521 H         2 RES2    0.0000
     65 H31       -5.0261   -1.5687   -0.1862 H         2 RES2    0.0000
     66 H32       -3.2091   -2.9949   -6.2488 H         2 RES2    0.0000
     67 H33       -4.7672   -2.3635   -5.8280 H         2 RES2    0.0000
     68 H34       -4.2612   -3.9562   -5.2619 H         2 RES2    0.0000
@<TRIPOS>BOND
     1    1    3 1
     2    2    6 1
     3    3    5 2
     4    4    5 1
     5    5    6 1
     6    6    7 1
     7    7    8 1
     8    8    4 ar
     9    9    8 ar
    10   10    9 ar
    11   11   10 ar
    12   12    4 ar
    13   13    6 1
    14   14   13 1
    15   15   14 1
    16   16    7 1
    17   17    2 1
    18   18   20 1
    19   19   23 1
    20   20   22 2
    21   21   22 1
    22   22   23 1
    23   23   24 1
    24   24   25 1
    25   25   21 ar
    26   26   25 ar
    27   27   26 ar
    28   28   27 ar
    29   29   21 ar
    30   30   23 1
    31   31   30 1
    32   32   31 1
    33   33   24 1
    34   34   19 1
    35   35    1 1
    36   36   18 1
    37   37    7 1
    38   38    9 1
    39   39   10 1
    40   40   11 1
    41   41   12 1
    42   42   13 1
    43   43   13 1
    44   44   14 1
    45   45   14 1
    46   46   15 1
    47   47   15 1
    48   48   16 1
    49   49   16 1
    50   50   17 1
    51   51   17 1
    52   52   17 1
    53   53   24 1
    54   54   26 1
    55   55   27 1
    56   56   28 1
    57   57   29 1
    58   58   30 1
    59   59   30 1
    60   60   31 1
    61   61   31 1
    62   62   32 1
    63   63   32 1
    64   64   33 1
    65   65   33 1
    66   66   34 1
    67   67   34 1
    68   68   34 1
    69   11   12 ar
    70   15   16 1
    71   28   29 ar
    72   32   33 1
@<TRIPOS>SUBSTRUCTURE
     1 RES1 1
     2 RES2 18

@<TRIPOS>CRYSIN
  13.4740   12.5400    7.6320 101.7800  95.0200  87.1400   2 1

