# MOL2 file generated by ConQuest
# Please check atom types

@<TRIPOS>MOLECULE
VUCZEA
   134   138     2
SMALL
NO_CHARGES
****
Generated from CSD

@<TRIPOS>ATOM
      1 O1        -0.2378   -0.3369    5.3721 O.2       1 RES1    0.0000
      2 N1         0.6546    2.9962    5.9427 N.pl3     1 RES1    0.0000
      3 N2        -1.2394    2.2348    5.1431 N.pl3     1 RES1    0.0000
      4 N3         0.5396    0.6247    5.7986 N.2       1 RES1    0.0000
      5 C1        -0.0143    1.8436    5.6248 C.2       1 RES1    0.0000
      6 C2        -0.1605    4.0877    5.6880 C.2       1 RES1    0.0000
      7 H1         0.0603    4.9989    5.8381 H         1 RES1    0.0000
      8 C3        -1.3265    3.6222    5.1846 C.2       1 RES1    0.0000
      9 H2        -2.0695    4.1461    4.9101 H         1 RES1    0.0000
     10 C4         1.9173    3.0413    6.6475 C.ar      1 RES1    0.0000
     11 C5         3.0946    3.3012    5.9151 C.ar      1 RES1    0.0000
     12 C6         1.8930    2.8715    8.0256 C.ar      1 RES1    0.0000
     13 C7         4.2934    3.3635    6.6456 C.ar      1 RES1    0.0000
     14 H3         5.1131    3.5134    6.1915 H         1 RES1    0.0000
     15 C8         3.1081    2.9710    8.7067 C.ar      1 RES1    0.0000
     16 H4         3.1279    2.8728    9.6524 H         1 RES1    0.0000
     17 C9         4.2908    3.2110    8.0138 C.ar      1 RES1    0.0000
     18 H5         5.1089    3.2720    8.4915 H         1 RES1    0.0000
     19 C10        3.0642    3.4670    4.4047 C.3       1 RES1    0.0000
     20 H6         2.2470    3.9935    4.1737 H         1 RES1    0.0000
     21 C11        2.9489    2.0929    3.7157 C.3       1 RES1    0.0000
     22 H7         2.1699    1.6141    4.0691 H         1 RES1    0.0000
     23 H8         3.7600    1.5704    3.8874 H         1 RES1    0.0000
     24 H9         2.8426    2.2203    2.7482 H         1 RES1    0.0000
     25 C12        4.2732    4.2190    3.8578 C.3       1 RES1    0.0000
     26 H10        4.3407    5.0931    4.2961 H         1 RES1    0.0000
     27 H11        4.1683    4.3464    2.8924 H         1 RES1    0.0000
     28 H12        5.0871    3.7018    4.0335 H         1 RES1    0.0000
     29 C13        0.6037    2.5625    8.7916 C.3       1 RES1    0.0000
     30 H13       -0.1469    2.5518    8.1302 H         1 RES1    0.0000
     31 C14        0.6885    1.1605    9.4195 C.3       1 RES1    0.0000
     32 H14       -0.1416    0.9695    9.9071 H         1 RES1    0.0000
     33 H15        1.4463    1.1234   10.0374 H         1 RES1    0.0000
     34 H16        0.8114    0.4921    8.7127 H         1 RES1    0.0000
     35 C15        0.2879    3.6235    9.8222 C.3       1 RES1    0.0000
     36 H17       -0.5405    3.3901   10.2882 H         1 RES1    0.0000
     37 H18        0.1803    4.4896    9.3760 H         1 RES1    0.0000
     38 H19        1.0234    3.6792   10.4678 H         1 RES1    0.0000
     39 C16       -2.3303    1.4298    4.6456 C.ar      1 RES1    0.0000
     40 C17       -2.4852    1.3330    3.2635 C.ar      1 RES1    0.0000
     41 C18       -3.2509    0.9059    5.5597 C.ar      1 RES1    0.0000
     42 C19       -3.6251    0.6976    2.7779 C.ar      1 RES1    0.0000
     43 H20       -3.7527    0.6088    1.8420 H         1 RES1    0.0000
     44 C20       -4.3850    0.2812    5.0207 C.ar      1 RES1    0.0000
     45 H21       -5.0355   -0.0849    5.6090 H         1 RES1    0.0000
     46 C21       -4.5793    0.1870    3.6584 C.ar      1 RES1    0.0000
     47 H22       -5.3652   -0.2255    3.3188 H         1 RES1    0.0000
     48 C22       -1.4324    1.8688    2.2961 C.3       1 RES1    0.0000
     49 H23       -0.6729    2.2282    2.8391 H         1 RES1    0.0000
     50 C23       -0.8919    0.7653    1.4077 C.3       1 RES1    0.0000
     51 H24       -0.5306    0.0451    1.9644 H         1 RES1    0.0000
     52 H25       -0.1807    1.1247    0.8371 H         1 RES1    0.0000
     53 H26       -1.6144    0.4138    0.8470 H         1 RES1    0.0000
     54 C24       -1.9983    3.0267    1.4491 C.3       1 RES1    0.0000
     55 H27       -2.3356    3.7309    2.0414 H         1 RES1    0.0000
     56 H28       -2.7303    2.6924    0.8884 H         1 RES1    0.0000
     57 H29       -1.2890    3.3914    0.8786 H         1 RES1    0.0000
     58 C25       -3.0063    0.9205    7.0641 C.3       1 RES1    0.0000
     59 H30       -2.1976    1.4828    7.2378 H         1 RES1    0.0000
     60 C26       -2.7193   -0.4934    7.5893 C.3       1 RES1    0.0000
     61 H31       -1.9629   -0.8780    7.0977 H         1 RES1    0.0000
     62 H32       -3.5112   -1.0571    7.4629 H         1 RES1    0.0000
     63 H33       -2.4989   -0.4496    8.5448 H         1 RES1    0.0000
     64 C27       -4.1884    1.5399    7.8380 C.3       1 RES1    0.0000
     65 H34       -4.3617    2.4431    7.5004 H         1 RES1    0.0000
     66 H35       -3.9675    1.5823    8.7916 H         1 RES1    0.0000
     67 H36       -4.9860    0.9855    7.7117 H         1 RES1    0.0000
     68 O2         7.2034   15.5325    4.8331 O.2       2 RES2    0.0000
     69 N4         6.3222   12.1769    4.4383 N.pl3     2 RES2    0.0000
     70 N5         8.2675   13.0032    4.9891 N.pl3     2 RES2    0.0000
     71 N6         6.3871   14.5458    4.5528 N.2       2 RES2    0.0000
     72 C28        6.9871   13.3348    4.6653 C.2       2 RES2    0.0000
     73 C29        7.1978   11.1013    4.5745 C.2       2 RES2    0.0000
     74 H37        6.9888   10.1835    4.4462 H         2 RES2    0.0000
     75 C30        8.3946   11.6093    4.9259 C.2       2 RES2    0.0000
     76 H38        9.1841   11.1106    5.0997 H         2 RES2    0.0000
     77 C31        4.9734   12.0828    3.9151 C.ar      2 RES2    0.0000
     78 C32        4.8133   12.2340    2.5311 C.ar      2 RES2    0.0000
     79 C33        3.9061   11.8613    4.7956 C.ar      2 RES2    0.0000
     80 C34        3.5099   12.1624    2.0178 C.ar      2 RES2    0.0000
     81 H39        3.3601   12.2605    1.0859 H         2 RES2    0.0000
     82 C35        2.6291   11.7950    4.2310 C.ar      2 RES2    0.0000
     83 H40        1.8797   11.6398    4.7936 H         2 RES2    0.0000
     84 C36        2.4371   11.9501    2.8746 C.ar      2 RES2    0.0000
     85 H41        1.5574   11.9104    2.5192 H         2 RES2    0.0000
     86 C37        5.9707   12.4807    1.5893 C.3       2 RES2    0.0000
     87 H42        6.8126   12.4197    2.1244 H         2 RES2    0.0000
     88 C38        5.9150   13.8826    0.9753 C.3       2 RES2    0.0000
     89 H43        5.8720   14.5511    1.6920 H         2 RES2    0.0000
     90 H44        5.1193   13.9595    0.4087 H         2 RES2    0.0000
     91 H45        6.7178   14.0364    0.4363 H         2 RES2    0.0000
     92 C39        6.0449   11.4077    0.4837 C.3       2 RES2    0.0000
     93 H46        6.0854   10.5190    0.8924 H         2 RES2    0.0000
     94 H47        6.8473   11.5549   -0.0612 H         2 RES2    0.0000
     95 H48        5.2502   11.4700   -0.0869 H         2 RES2    0.0000
     96 C40        4.1259   11.7247    6.2921 C.3       2 RES2    0.0000
     97 H49        4.9948   11.2485    6.4323 H         2 RES2    0.0000
     98 C41        4.2319   13.1040    6.9496 C.3       2 RES2    0.0000
     99 H50        4.9370   13.6240    6.5093 H         2 RES2    0.0000
    100 H51        4.4481   12.9979    7.8992 H         2 RES2    0.0000
    101 H52        3.3769   13.5749    6.8608 H         2 RES2    0.0000
    102 C42        3.0157   10.8944    6.9634 C.3       2 RES2    0.0000
    103 H53        2.9625   10.0137    6.5370 H         2 RES2    0.0000
    104 H54        2.1580   11.3560    6.8627 H         2 RES2    0.0000
    105 H55        3.2199   10.7856    7.9150 H         2 RES2    0.0000
    106 C43        9.4031   13.8269    5.2793 C.ar      2 RES2    0.0000
    107 C44       10.1757   14.2924    4.2152 C.ar      2 RES2    0.0000
    108 C45        9.7600   14.0258    6.6199 C.ar      2 RES2    0.0000
    109 C46       11.3821   14.9264    4.5133 C.ar      2 RES2    0.0000
    110 H56       11.9375   15.2407    3.8085 H         2 RES2    0.0000
    111 C47       10.9736   14.6744    6.8667 C.ar      2 RES2    0.0000
    112 H57       11.2468   14.8230    7.7650 H         2 RES2    0.0000
    113 C48       11.7784   15.1015    5.8420 C.ar      2 RES2    0.0000
    114 H58       12.6108   15.5179    6.0355 H         2 RES2    0.0000
    115 C49        9.7168   14.1518    2.7779 C.3       2 RES2    0.0000
    116 H59        8.7706   13.8295    2.7996 H         2 RES2    0.0000
    117 C50        9.7261   15.4821    2.0276 C.3       2 RES2    0.0000
    118 H60        9.1868   16.1373    2.5173 H         2 RES2    0.0000
    119 H61        9.3509   15.3535    1.1313 H         2 RES2    0.0000
    120 H62       10.6479   15.8071    1.9506 H         2 RES2    0.0000
    121 C51       10.5345   13.1054    2.0355 C.3       2 RES2    0.0000
    122 H63       10.5043   12.2578    2.5271 H         2 RES2    0.0000
    123 H64       11.4630   13.4078    1.9625 H         2 RES2    0.0000
    124 H65       10.1613   12.9754    1.1392 H         2 RES2    0.0000
    125 C52        8.8377   13.5656    7.7610 C.3       2 RES2    0.0000
    126 H66        8.0433   13.1200    7.3484 H         2 RES2    0.0000
    127 C53        8.3430   14.7354    8.5666 C.3       2 RES2    0.0000
    128 H67        7.9049   15.3800    7.9723 H         2 RES2    0.0000
    129 H68        9.0991   15.1651    9.0167 H         2 RES2    0.0000
    130 H69        7.7008   14.4211    9.2359 H         2 RES2    0.0000
    131 C54        9.5242   12.5483    8.6613 C.3       2 RES2    0.0000
    132 H70        8.9098   12.2738    9.3721 H         2 RES2    0.0000
    133 H71       10.3239   12.9515    9.0601 H         2 RES2    0.0000
    134 H72        9.7842   11.7645    8.1322 H         2 RES2    0.0000
@<TRIPOS>BOND
     1    1    4 2
     2    2    5 1
     3    3    5 1
     4    4    5 1
     5    6    2 1
     6    7    6 1
     7    8    3 1
     8    9    8 1
     9   10    2 1
    10   11   10 ar
    11   12   10 ar
    12   13   11 ar
    13   14   13 1
    14   15   12 ar
    15   16   15 1
    16   17   13 ar
    17   18   17 1
    18   19   11 1
    19   20   19 1
    20   21   19 1
    21   22   21 1
    22   23   21 1
    23   24   21 1
    24   25   19 1
    25   26   25 1
    26   27   25 1
    27   28   25 1
    28   29   12 1
    29   30   29 1
    30   31   29 1
    31   32   31 1
    32   33   31 1
    33   34   31 1
    34   35   29 1
    35   36   35 1
    36   37   35 1
    37   38   35 1
    38   39    3 1
    39   40   39 ar
    40   41   39 ar
    41   42   40 ar
    42   43   42 1
    43   44   41 ar
    44   45   44 1
    45   46   42 ar
    46   47   46 1
    47   48   40 1
    48   49   48 1
    49   50   48 1
    50   51   50 1
    51   52   50 1
    52   53   50 1
    53   54   48 1
    54   55   54 1
    55   56   54 1
    56   57   54 1
    57   58   41 1
    58   59   58 1
    59   60   58 1
    60   61   60 1
    61   62   60 1
    62   63   60 1
    63   64   58 1
    64   65   64 1
    65   66   64 1
    66   67   64 1
    67   68   71 2
    68   69   72 1
    69   70   72 1
    70   71   72 1
    71   73   69 1
    72   74   73 1
    73   75   70 1
    74   76   75 1
    75   77   69 1
    76   78   77 ar
    77   79   77 ar
    78   80   78 ar
    79   81   80 1
    80   82   79 ar
    81   83   82 1
    82   84   80 ar
    83   85   84 1
    84   86   78 1
    85   87   86 1
    86   88   86 1
    87   89   88 1
    88   90   88 1
    89   91   88 1
    90   92   86 1
    91   93   92 1
    92   94   92 1
    93   95   92 1
    94   96   79 1
    95   97   96 1
    96   98   96 1
    97   99   98 1
    98  100   98 1
    99  101   98 1
   100  102   96 1
   101  103  102 1
   102  104  102 1
   103  105  102 1
   104  106   70 1
   105  107  106 ar
   106  108  106 ar
   107  109  107 ar
   108  110  109 1
   109  111  108 ar
   110  112  111 1
   111  113  109 ar
   112  114  113 1
   113  115  107 1
   114  116  115 1
   115  117  115 1
   116  118  117 1
   117  119  117 1
   118  120  117 1
   119  121  115 1
   120  122  121 1
   121  123  121 1
   122  124  121 1
   123  125  108 1
   124  126  125 1
   125  127  125 1
   126  128  127 1
   127  129  127 1
   128  130  127 1
   129  131  125 1
   130  132  131 1
   131  133  131 1
   132  134  131 1
   133    6    8 2
   134   15   17 ar
   135   44   46 ar
   136   73   75 2
   137   82   84 ar
   138  111  113 ar
@<TRIPOS>SUBSTRUCTURE
     1 RES1 1
     2 RES2 68

@<TRIPOS>CRYSIN
  19.1583   13.2632   20.3630  90.0000 104.1730  90.0000  14 1

