# MOL2 file generated by ConQuest
# Please check atom types

@<TRIPOS>MOLECULE
VUFJIR
   192   200     4
SMALL
NO_CHARGES
****
Generated from CSD

@<TRIPOS>ATOM
      1 O1         8.7767   11.1547    9.5138 O.2       1 RES1    0.0000
      2 O2         7.4930   11.2517    7.7758 O.2       1 RES1    0.0000
      3 O3         6.3883    7.4723    5.1842 O.2       1 RES1    0.0000
      4 O4         7.5140    5.6375    5.4351 O.2       1 RES1    0.0000
      5 N1        10.2052    7.9850   11.2988 N.2       1 RES1    0.0000
      6 N2         9.6082    8.8490   10.3968 N.pl3     1 RES1    0.0000
      7 H1         9.6045    9.7154   10.5534 H         1 RES1    0.0000
      8 N3         8.1880   10.6125    8.5590 N.pl3     1 RES1    0.0000
      9 N4         7.2088    6.7719    5.7795 N.pl3     1 RES1    0.0000
     10 C1        10.6670    8.5480   12.3525 C.2       1 RES1    0.0000
     11 C2        11.3084    7.7325   13.4743 C.3       1 RES1    0.0000
     12 C3        11.0937    8.6910   14.6595 C.3       1 RES1    0.0000
     13 H2        10.1805    8.5927   15.0282 H         1 RES1    0.0000
     14 H3        11.7495    8.5110   15.3795 H         1 RES1    0.0000
     15 C4        11.2974   10.0907   14.0820 C.3       1 RES1    0.0000
     16 H4        12.2600   10.3000   13.9883 H         1 RES1    0.0000
     17 H5        10.8726   10.7756   14.6547 H         1 RES1    0.0000
     18 C5        10.6139   10.0179   12.7155 C.3       1 RES1    0.0000
     19 H6         9.6778   10.3343   12.7703 H         1 RES1    0.0000
     20 H7        11.1005   10.5642   12.0487 H         1 RES1    0.0000
     21 C6        10.6944    6.3621   13.6411 C.2       1 RES1    0.0000
     22 H8        10.6141    5.8283   12.8601 H         1 RES1    0.0000
     23 C7        10.2558    5.8336   14.7778 C.2       1 RES1    0.0000
     24 H9        10.3195    6.3583   15.5670 H         1 RES1    0.0000
     25 C8         9.6678    4.4614   14.8911 C.3       1 RES1    0.0000
     26 H10        9.6220    4.0524   14.0009 H         1 RES1    0.0000
     27 H11        8.7658    4.5223   15.2692 H         1 RES1    0.0000
     28 H12       10.2309    3.9123   15.4740 H         1 RES1    0.0000
     29 C9        12.7926    7.4976   13.1228 C.ar      1 RES1    0.0000
     30 C10       13.1135    6.9466   11.8837 C.ar      1 RES1    0.0000
     31 H13       12.4273    6.8195   11.2388 H         1 RES1    0.0000
     32 C11       14.4014    6.5827   11.5746 C.ar      1 RES1    0.0000
     33 H14       14.5967    6.2151   10.7204 H         1 RES1    0.0000
     34 C12       15.4134    6.7490   12.4985 C.ar      1 RES1    0.0000
     35 H15       16.3006    6.4794   12.2929 H         1 RES1    0.0000
     36 C13       15.1217    7.3096   13.7234 C.ar      1 RES1    0.0000
     37 H16       15.8181    7.4443   14.3569 H         1 RES1    0.0000
     38 C14       13.8241    7.6804   14.0413 C.ar      1 RES1    0.0000
     39 H17       13.6362    8.0617   14.8911 H         1 RES1    0.0000
     40 C15        9.0338    8.3642    9.2806 C.ar      1 RES1    0.0000
     41 C16        8.3320    9.1878    8.3573 C.ar      1 RES1    0.0000
     42 C17        7.7353    8.6667    7.2149 C.ar      1 RES1    0.0000
     43 H18        7.2606    9.2309    6.6160 H         1 RES1    0.0000
     44 C18        7.8468    7.3194    6.9691 C.ar      1 RES1    0.0000
     45 C19        8.5467    6.4707    7.8320 C.ar      1 RES1    0.0000
     46 H19        8.6254    5.5460    7.6291 H         1 RES1    0.0000
     47 C20        9.1174    6.9748    8.9695 C.ar      1 RES1    0.0000
     48 H20        9.5771    6.3901    9.5608 H         1 RES1    0.0000
     49 O5         9.6594   13.5643    7.3751 O.2       2 RES2    0.0000
     50 O6         8.7892   13.4224    5.4061 O.2       2 RES2    0.0000
     51 O7         4.2380   14.5641    4.5417 O.2       2 RES2    0.0000
     52 O8         3.1882   15.7839    5.9848 O.2       2 RES2    0.0000
     53 N5         8.0133   14.7194   10.7069 N.2       2 RES2    0.0000
     54 N6         8.2447   14.3666    9.3906 N.pl3     2 RES2    0.0000
     55 H21        9.0289   14.0476    9.1480 H         2 RES2    0.0000
     56 N7         8.7011   13.7107    6.5974 N.pl3     2 RES2    0.0000
     57 N8         4.1357   15.0776    5.6475 N.pl3     2 RES2    0.0000
     58 C21        8.9862   14.4797   11.4996 C.2       2 RES2    0.0000
     59 C22        8.8896   14.8348   12.9819 C.3       2 RES2    0.0000
     60 C23       10.3795   15.1254   13.2775 C.3       2 RES2    0.0000
     61 H22       10.6377   16.0230   12.9483 H         2 RES2    0.0000
     62 H23       10.5656   15.0727   14.2482 H         2 RES2    0.0000
     63 C24       11.1258   14.0224   12.5122 C.3       2 RES2    0.0000
     64 H24       12.0658   14.2822   12.3433 H         2 RES2    0.0000
     65 H25       11.1127   13.1701   13.0161 H         2 RES2    0.0000
     66 C25       10.3443   13.8951   11.1960 C.3       2 RES2    0.0000
     67 H26       10.7909   14.4008   10.4715 H         2 RES2    0.0000
     68 H27       10.2662   12.9466   10.9237 H         2 RES2    0.0000
     69 C26        7.9376   15.9912   13.2124 C.2       2 RES2    0.0000
     70 H28        7.0359   15.8587   12.9420 H         2 RES2    0.0000
     71 C27        8.2260   17.1621   13.7483 C.2       2 RES2    0.0000
     72 H29        9.1152   17.2961   14.0576 H         2 RES2    0.0000
     73 C28        7.2648   18.2938   13.9068 C.3       2 RES2    0.0000
     74 H30        7.6130   19.0848   13.4462 H         2 RES2    0.0000
     75 H31        7.1505   18.4938   14.8596 H         2 RES2    0.0000
     76 H32        6.3998   18.0441   13.5187 H         2 RES2    0.0000
     77 C29        8.3982   13.5932   13.7511 C.ar      2 RES2    0.0000
     78 C30        7.6879   12.5713   13.1278 C.ar      2 RES2    0.0000
     79 H33        7.5018   12.6343   12.1984 H         2 RES2    0.0000
     80 C31        7.2442   11.4563   13.8387 C.ar      2 RES2    0.0000
     81 H34        6.7779   10.7617   13.3895 H         2 RES2    0.0000
     82 C32        7.4810   11.3619   15.1904 C.ar      2 RES2    0.0000
     83 H35        7.1737   10.6070   15.6789 H         2 RES2    0.0000
     84 C33        8.1698   12.3747   15.8303 C.ar      2 RES2    0.0000
     85 H36        8.3310   12.3165   16.7645 H         2 RES2    0.0000
     86 C34        8.6304   13.4802   15.1187 C.ar      2 RES2    0.0000
     87 H37        9.1073   14.1650   15.5717 H         2 RES2    0.0000
     88 C35        7.2621   14.5147    8.4818 C.ar      2 RES2    0.0000
     89 C36        7.4451   14.2161    7.1003 C.ar      2 RES2    0.0000
     90 C37        6.4230   14.3903    6.1734 C.ar      2 RES2    0.0000
     91 H38        6.5604   14.1881    5.2562 H         2 RES2    0.0000
     92 C38        5.2098   14.8612    6.6141 C.ar      2 RES2    0.0000
     93 C39        4.9787   15.1601    7.9587 C.ar      2 RES2    0.0000
     94 H39        4.1301   15.4834    8.2373 H         2 RES2    0.0000
     95 C40        5.9818   14.9856    8.8719 C.ar      2 RES2    0.0000
     96 H40        5.8178   15.1829    9.7861 H         2 RES2    0.0000
     97 O9         3.9188    6.5444    6.6788 O.2       3 RES3    0.0000
     98 O10        5.1073    6.4786    8.4779 O.2       3 RES3    0.0000
     99 O11        6.2217   10.3100   10.9418 O.2       3 RES3    0.0000
    100 O12        5.1480   12.1694   10.6398 O.2       3 RES3    0.0000
    101 N9         2.1470    9.5943    5.0322 N.2       3 RES3    0.0000
    102 N10        2.9693    8.8058    5.8187 N.pl3     3 RES3    0.0000
    103 H41        3.1421    7.9768    5.5824 H         3 RES3    0.0000
    104 N11        4.4433    7.0976    7.6562 N.pl3     3 RES3    0.0000
    105 N12        5.4113   11.0051   10.3445 N.pl3     3 RES3    0.0000
    106 C41        1.8570    9.0839    3.9040 C.2       3 RES3    0.0000
    107 C42        0.8834    9.7931    2.9491 C.3       3 RES3    0.0000
    108 C43        0.3540    8.5848    2.1743 C.3       3 RES3    0.0000
    109 H42       -0.3465    8.1137    2.6911 H         3 RES3    0.0000
    110 H43       -0.0229    8.8633    1.3030 H         3 RES3    0.0000
    111 C44        1.5657    7.7007    1.9796 C.3       3 RES3    0.0000
    112 H44        2.1463    8.0484    1.2573 H         3 RES3    0.0000
    113 H45        1.2968    6.7734    1.7600 H         3 RES3    0.0000
    114 C45        2.2836    7.7600    3.3434 C.3       3 RES3    0.0000
    115 H46        1.9961    7.0163    3.9296 H         3 RES3    0.0000
    116 H47        3.2667    7.7217    3.2300 H         3 RES3    0.0000
    117 C46       -0.1506   10.6022    3.7389 C.2       3 RES3    0.0000
    118 H48        0.1845   11.2969    4.2951 H         3 RES3    0.0000
    119 C47       -1.4401   10.4361    3.7262 C.2       3 RES3    0.0000
    120 H49       -1.7998    9.7528    3.1717 H         3 RES3    0.0000
    121 C48       -2.3840   11.2551    4.5340 C.3       3 RES3    0.0000
    122 H50       -2.8294   11.9083    3.9532 H         3 RES3    0.0000
    123 H51       -1.8894   11.7264    5.2357 H         3 RES3    0.0000
    124 H52       -3.0564   10.6718    4.9443 H         3 RES3    0.0000
    125 C49        1.6738   10.7777    2.0705 C.ar      3 RES3    0.0000
    126 C50        2.4459   11.7599    2.6982 C.ar      3 RES3    0.0000
    127 H53        2.5088   11.7692    3.6460 H         3 RES3    0.0000
    128 C51        3.1218   12.7222    1.9591 C.ar      3 RES3    0.0000
    129 H54        3.6354   13.3880    2.4028 H         3 RES3    0.0000
    130 C52        3.0488   12.7121    0.5748 C.ar      3 RES3    0.0000
    131 H55        3.5134   13.3655    0.0662 H         3 RES3    0.0000
    132 C53        2.2925   11.7421   -0.0583 C.ar      3 RES3    0.0000
    133 H56        2.2380   11.7307   -1.0068 H         3 RES3    0.0000
    134 C54        1.6153   10.7878    0.6815 C.ar      3 RES3    0.0000
    135 H57        1.1006   10.1275    0.2316 H         3 RES3    0.0000
    136 C55        3.5038    9.3085    6.9450 C.ar      3 RES3    0.0000
    137 C56        4.2655    8.5221    7.8456 C.ar      3 RES3    0.0000
    138 C57        4.8852    9.0808    8.9583 C.ar      3 RES3    0.0000
    139 H58        5.4077    8.5438    9.5419 H         3 RES3    0.0000
    140 C58        4.7275   10.4222    9.1987 C.ar      3 RES3    0.0000
    141 C59        3.9446   11.2292    8.3715 C.ar      3 RES3    0.0000
    142 H59        3.8258   12.1493    8.5760 H         3 RES3    0.0000
    143 C60        3.3486   10.6863    7.2650 C.ar      3 RES3    0.0000
    144 H60        2.8218   11.2394    6.7011 H         3 RES3    0.0000
    145 O13        2.7413    4.1328    8.5677 O.2       4 RES4    0.0000
    146 O14        3.5825    4.2986   10.5457 O.2       4 RES4    0.0000
    147 O15        8.2106    3.4764   11.4156 O.2       4 RES4    0.0000
    148 O16        9.2101    2.0489   10.1220 O.2       4 RES4    0.0000
    149 N13        4.4368    2.9180    5.2734 N.2       4 RES4    0.0000
    150 N14        4.1856    3.2912    6.5794 N.pl3     4 RES4    0.0000
    151 H61        3.3957    3.6057    6.8051 H         4 RES4    0.0000
    152 N15        3.6899    4.0062    9.3687 N.pl3     4 RES4    0.0000
    153 N16        8.2786    2.8187   10.3809 N.pl3     4 RES4    0.0000
    154 C61        3.5054    3.1883    4.4426 C.2       4 RES4    0.0000
    155 C62        3.6155    2.8520    2.9606 C.3       4 RES4    0.0000
    156 C63        2.1224    2.7881    2.5727 C.3       4 RES4    0.0000
    157 H62        2.0042    2.9228    1.5992 H         4 RES4    0.0000
    158 H63        1.7279    1.9170    2.8266 H         4 RES4    0.0000
    159 C64        1.4793    3.9314    3.3642 C.3       4 RES4    0.0000
    160 H64        0.5034    3.7929    3.4585 H         4 RES4    0.0000
    161 H65        1.6413    4.8028    2.9243 H         4 RES4    0.0000
    162 C65        2.1802    3.8634    4.7273 C.3       4 RES4    0.0000
    163 H66        2.3201    4.7718    5.0971 H         4 RES4    0.0000
    164 H67        1.6467    3.3342    5.3712 H         4 RES4    0.0000
    165 C66        4.2730    4.0230    2.2254 C.2       4 RES4    0.0000
    166 H68        4.1397    4.0628    1.2857 H         4 RES4    0.0000
    167 C67        5.0040    4.9814    2.7564 C.2       4 RES4    0.0000
    168 H69        5.0971    5.0008    3.7011 H         4 RES4    0.0000
    169 C68        5.6944    6.0395    1.9588 C.3       4 RES4    0.0000
    170 H70        5.4506    5.9474    1.0147 H         4 RES4    0.0000
    171 H71        6.6645    5.9405    2.0562 H         4 RES4    0.0000
    172 H72        5.4219    6.9231    2.2831 H         4 RES4    0.0000
    173 C69        4.4195    1.5902    2.6267 C.ar      4 RES4    0.0000
    174 C70        5.7578    1.4803    3.0093 C.ar      4 RES4    0.0000
    175 H73        6.1694    2.1937    3.4837 H         4 RES4    0.0000
    176 C71        6.4947    0.3468    2.7066 C.ar      4 RES4    0.0000
    177 H74        7.3996    0.2818    2.9874 H         4 RES4    0.0000
    178 C72        5.9166   -0.6925    1.9949 C.ar      4 RES4    0.0000
    179 H75        6.4177   -1.4733    1.7930 H         4 RES4    0.0000
    180 C73        4.6067   -0.5804    1.5844 C.ar      4 RES4    0.0000
    181 H76        4.2102   -1.2831    1.0824 H         4 RES4    0.0000
    182 C74        3.8572    0.5497    1.8959 C.ar      4 RES4    0.0000
    183 H77        2.9544    0.6100    1.6071 H         4 RES4    0.0000
    184 C75        5.1592    3.1716    7.5081 C.ar      4 RES4    0.0000
    185 C76        4.9643    3.5078    8.8760 C.ar      4 RES4    0.0000
    186 C77        5.9827    3.4058    9.8123 C.ar      4 RES4    0.0000
    187 H78        5.8336    3.6485   10.7189 H         4 RES4    0.0000
    188 C78        7.2131    2.9465    9.4042 C.ar      4 RES4    0.0000
    189 C79        7.4476    2.5759    8.0769 C.ar      4 RES4    0.0000
    190 H79        8.2970    2.2382    7.8197 H         4 RES4    0.0000
    191 C80        6.4506    2.7004    7.1522 C.ar      4 RES4    0.0000
    192 H80        6.6251    2.4652    6.2489 H         4 RES4    0.0000
@<TRIPOS>BOND
     1    1    8 2
     2    2    8 2
     3    3    9 2
     4    4    9 2
     5    5    6 1
     6    6    7 1
     7    8   41 1
     8    9   44 1
     9   10    5 2
    10   11   10 1
    11   12   11 1
    12   13   12 1
    13   14   12 1
    14   15   12 1
    15   16   15 1
    16   17   15 1
    17   18   10 1
    18   19   18 1
    19   20   18 1
    20   21   11 1
    21   22   21 1
    22   23   21 2
    23   24   23 1
    24   25   23 1
    25   26   25 1
    26   27   25 1
    27   28   25 1
    28   29   11 1
    29   30   29 ar
    30   31   30 1
    31   32   30 ar
    32   33   32 1
    33   34   32 ar
    34   35   34 1
    35   36   34 ar
    36   37   36 1
    37   38   29 ar
    38   39   38 1
    39   40    6 1
    40   41   40 ar
    41   42   41 ar
    42   43   42 1
    43   44   42 ar
    44   45   44 ar
    45   46   45 1
    46   47   40 ar
    47   48   47 1
    48   49   56 2
    49   50   56 2
    50   51   57 2
    51   52   57 2
    52   53   54 1
    53   54   55 1
    54   56   89 1
    55   57   92 1
    56   58   53 2
    57   59   58 1
    58   60   59 1
    59   61   60 1
    60   62   60 1
    61   63   60 1
    62   64   63 1
    63   65   63 1
    64   66   58 1
    65   67   66 1
    66   68   66 1
    67   69   59 1
    68   70   69 1
    69   71   69 2
    70   72   71 1
    71   73   71 1
    72   74   73 1
    73   75   73 1
    74   76   73 1
    75   77   59 1
    76   78   77 ar
    77   79   78 1
    78   80   78 ar
    79   81   80 1
    80   82   80 ar
    81   83   82 1
    82   84   82 ar
    83   85   84 1
    84   86   77 ar
    85   87   86 1
    86   88   54 1
    87   89   88 ar
    88   90   89 ar
    89   91   90 1
    90   92   90 ar
    91   93   92 ar
    92   94   93 1
    93   95   88 ar
    94   96   95 1
    95   97  104 2
    96   98  104 2
    97   99  105 2
    98  100  105 2
    99  101  102 1
   100  102  103 1
   101  104  137 1
   102  105  140 1
   103  106  101 2
   104  107  106 1
   105  108  107 1
   106  109  108 1
   107  110  108 1
   108  111  108 1
   109  112  111 1
   110  113  111 1
   111  114  106 1
   112  115  114 1
   113  116  114 1
   114  117  107 1
   115  118  117 1
   116  119  117 2
   117  120  119 1
   118  121  119 1
   119  122  121 1
   120  123  121 1
   121  124  121 1
   122  125  107 1
   123  126  125 ar
   124  127  126 1
   125  128  126 ar
   126  129  128 1
   127  130  128 ar
   128  131  130 1
   129  132  130 ar
   130  133  132 1
   131  134  125 ar
   132  135  134 1
   133  136  102 1
   134  137  136 ar
   135  138  137 ar
   136  139  138 1
   137  140  138 ar
   138  141  140 ar
   139  142  141 1
   140  143  136 ar
   141  144  143 1
   142  145  152 2
   143  146  152 2
   144  147  153 2
   145  148  153 2
   146  149  150 1
   147  150  151 1
   148  152  185 1
   149  153  188 1
   150  154  149 2
   151  155  154 1
   152  156  155 1
   153  157  156 1
   154  158  156 1
   155  159  156 1
   156  160  159 1
   157  161  159 1
   158  162  154 1
   159  163  162 1
   160  164  162 1
   161  165  155 1
   162  166  165 1
   163  167  165 2
   164  168  167 1
   165  169  167 1
   166  170  169 1
   167  171  169 1
   168  172  169 1
   169  173  155 1
   170  174  173 ar
   171  175  174 1
   172  176  174 ar
   173  177  176 1
   174  178  176 ar
   175  179  178 1
   176  180  178 ar
   177  181  180 1
   178  182  173 ar
   179  183  182 1
   180  184  150 1
   181  185  184 ar
   182  186  185 ar
   183  187  186 1
   184  188  186 ar
   185  189  188 ar
   186  190  189 1
   187  191  184 ar
   188  192  191 1
   189   15   18 1
   190   36   38 ar
   191   45   47 ar
   192   63   66 1
   193   84   86 ar
   194   93   95 ar
   195  111  114 1
   196  132  134 ar
   197  141  143 ar
   198  159  162 1
   199  180  182 ar
   200  189  191 ar
@<TRIPOS>SUBSTRUCTURE
     1 RES1 1
     2 RES2 49
     3 RES3 97
     4 RES4 145

@<TRIPOS>CRYSIN
   7.9557   14.9518   16.2534  79.1280  79.6620  82.8190   1 1

