# MOL2 file generated by ConQuest
# Please check atom types

@<TRIPOS>MOLECULE
VUGMIV
    23    23     1
SMALL
NO_CHARGES
****
Generated from CSD

@<TRIPOS>ATOM
      1 O1         1.8018   10.1789    3.7756 O.3       1 RES1    0.0000
      2 N1         1.5694   13.7184    3.3882 N.ar      1 RES1    0.0000
      3 O2         3.9815   13.8561    1.4100 O.2       1 RES1    0.0000
      4 C1         1.8141   12.4338    3.1699 C.ar      1 RES1    0.0000
      5 O3         2.0630   13.7708    0.3779 O.2       1 RES1    0.0000
      6 C2         1.5028   11.4365    4.1157 C.ar      1 RES1    0.0000
      7 O4         2.2083   11.0523   -0.1792 O.2       1 RES1    0.0000
      8 N2         0.9630   11.7388    5.2836 N.ar      1 RES1    0.0000
      9 O5         0.5867   10.9381    1.2630 O.2       1 RES1    0.0000
     10 N3         2.9079   13.3543    1.1447 N.pl3     1 RES1    0.0000
     11 C3         0.7036   13.0443    5.4947 C.ar      1 RES1    0.0000
     12 H1         0.3057   13.2857    6.3456 H         1 RES1    0.0000
     13 O6         4.3934   11.7029    3.2508 O.2       1 RES1    0.0000
     14 N4         1.7003   11.2629    0.9016 N.pl3     1 RES1    0.0000
     15 C4         0.9944   14.0251    4.5590 C.ar      1 RES1    0.0000
     16 H2         0.8003   14.9373    4.7164 H         1 RES1    0.0000
     17 O7         4.2118   10.4500    1.4808 O.2       1 RES1    0.0000
     18 N5         3.8418   11.3222    2.2347 N.pl3     1 RES1    0.0000
     19 C5         2.5277   12.0761    1.9041 C.3       1 RES1    0.0000
     20 C6         1.4842    9.1305    4.7311 C.3       1 RES1    0.0000
     21 H3         2.0467    9.2759    5.5453 H         1 RES1    0.0000
     22 H4         1.7298    8.3086    4.2544 H         1 RES1    0.0000
     23 H5         0.5418    9.1563    4.9270 H         1 RES1    0.0000
@<TRIPOS>BOND
     1    1    6 1
     2    2    4 ar
     3    3   10 2
     4    4    6 ar
     5    5   10 2
     6    6    8 ar
     7    7   14 2
     8    8   11 ar
     9    9   14 2
    10   10   19 1
    11   11   12 1
    12   13   18 2
    13   14   19 1
    14   15    2 ar
    15   16   15 1
    16   17   18 2
    17   18   19 1
    18   19    4 1
    19   20    1 1
    20   21   20 1
    21   22   20 1
    22   23   20 1
    23   11   15 ar
@<TRIPOS>SUBSTRUCTURE
     1 RES1 1

@<TRIPOS>CRYSIN
  12.4270   11.8390   13.5880  90.0000  90.0000  90.0000  61 1

