# MOL2 file generated by ConQuest
# Please check atom types

@<TRIPOS>MOLECULE
VUHHOX
    47    50     1
SMALL
NO_CHARGES
****
Generated from CSD

@<TRIPOS>ATOM
      1 N1        12.7221    6.6853    1.6956 N.am      1 RES1    0.0000
      2 O1        11.3888    5.5897    0.1851 O.2       1 RES1    0.0000
      3 N2        13.8839    7.5571    1.6531 N.3       1 RES1    0.0000
      4 C1        14.5734    5.6238    2.7177 C.3       1 RES1    0.0000
      5 C2        12.2075    5.5636    3.8468 C.ar      1 RES1    0.0000
      6 C3        18.0221    8.7149    2.3891 C.ar      1 RES1    0.0000
      7 H1        18.2464    9.4419    2.9237 H         1 RES1    0.0000
      8 C4        14.9809    6.5685    1.5317 C.3       1 RES1    0.0000
      9 H2        14.8735    6.0803    0.6889 H         1 RES1    0.0000
     10 O2        20.3019    8.4808    1.5430 O.3       1 RES1    0.0000
     11 C5        16.3639    7.1437    1.5820 C.ar      1 RES1    0.0000
     12 C6        12.9987    5.5443    2.5586 C.3       1 RES1    0.0000
     13 H3        12.7761    4.7239    2.0696 H         1 RES1    0.0000
     14 C7        12.1852    6.4737    0.4357 C.2       1 RES1    0.0000
     15 C8        13.6580    8.3563    0.4183 C.3       1 RES1    0.0000
     16 H4        14.5019    8.5534   -0.0170 H         1 RES1    0.0000
     17 H5        13.2159    9.1932    0.6318 H         1 RES1    0.0000
     18 C9        16.7123    8.2389    2.3651 C.ar      1 RES1    0.0000
     19 H6        16.0624    8.6597    2.8796 H         1 RES1    0.0000
     20 C10       14.9712    6.2173    4.0154 C.1       1 RES1    0.0000
     21 C11       15.2196    4.3041    2.6065 C.1       1 RES1    0.0000
     22 C12       18.9904    8.0934    1.6078 C.ar      1 RES1    0.0000
     23 N3        15.7526    3.2993    2.5271 N.1       1 RES1    0.0000
     24 C13       11.9340    4.3684    4.5018 C.ar      1 RES1    0.0000
     25 H7        12.2548    3.5671    4.1562 H         1 RES1    0.0000
     26 N4        15.3127    6.6553    5.0119 N.1       1 RES1    0.0000
     27 N5         9.9132    5.5909    7.3853 N.pl3     1 RES1    0.0000
     28 O3         9.6023    4.5269    7.8925 O.2       1 RES1    0.0000
     29 C14       10.7220    5.5734    6.1553 C.ar      1 RES1    0.0000
     30 C15       18.6537    6.9998    0.8137 C.ar      1 RES1    0.0000
     31 H8        19.3029    6.5822    0.2944 H         1 RES1    0.0000
     32 C16       12.7746    7.5016   -0.4900 C.3       1 RES1    0.0000
     33 H9        12.0787    8.0378   -0.9011 H         1 RES1    0.0000
     34 H10       13.3003    7.0798   -1.1875 H         1 RES1    0.0000
     35 C17       17.3523    6.5375    0.7999 C.ar      1 RES1    0.0000
     36 H11       17.1297    5.8118    0.2623 H         1 RES1    0.0000
     37 C18       11.1818    4.3667    5.6715 C.ar      1 RES1    0.0000
     38 H12       10.9934    3.5716    6.1167 H         1 RES1    0.0000
     39 C19       11.7290    6.7595    4.3619 C.ar      1 RES1    0.0000
     40 H13       11.9127    7.5578    3.9219 H         1 RES1    0.0000
     41 C20       10.9786    6.7721    5.5279 C.ar      1 RES1    0.0000
     42 H14       10.6571    7.5715    5.8784 H         1 RES1    0.0000
     43 O4         9.5910    6.6819    7.8434 O.2       1 RES1    0.0000
     44 C21       20.6707    9.6503    2.2478 C.3       1 RES1    0.0000
     45 H15       20.1836   10.4005    1.8984 H         1 RES1    0.0000
     46 H16       21.6126    9.8031    2.1427 H         1 RES1    0.0000
     47 H17       20.4657    9.5411    3.1790 H         1 RES1    0.0000
@<TRIPOS>BOND
     1    1    3 1
     2    2   14 2
     3    3    8 1
     4    4    8 1
     5    5   12 1
     6    6    7 1
     7    8    9 1
     8   10   22 1
     9   11    8 1
    10   12    1 1
    11   13   12 1
    12   14    1 1
    13   15    3 1
    14   16   15 1
    15   17   15 1
    16   18    6 ar
    17   19   18 1
    18   20    4 1
    19   21    4 1
    20   22    6 ar
    21   23   21 3
    22   24    5 ar
    23   25   24 1
    24   26   20 3
    25   27   28 2
    26   29   27 1
    27   30   22 ar
    28   31   30 1
    29   32   14 1
    30   33   32 1
    31   34   32 1
    32   35   11 ar
    33   36   35 1
    34   37   24 ar
    35   38   37 1
    36   39    5 ar
    37   40   39 1
    38   41   29 ar
    39   42   41 1
    40   43   27 2
    41   44   10 1
    42   45   44 1
    43   46   44 1
    44   47   44 1
    45    4   12 1
    46   11   18 ar
    47   15   32 1
    48   29   37 ar
    49   30   35 ar
    50   39   41 ar
@<TRIPOS>SUBSTRUCTURE
     1 RES1 1

@<TRIPOS>CRYSIN
  10.2504   10.7403   10.9216  86.6460  67.7200  63.2350   2 1

