# MOL2 file generated by ConQuest
# Please check atom types

@<TRIPOS>MOLECULE
VUHRUN
    96    98     1
SMALL
NO_CHARGES
****
Generated from CSD

@<TRIPOS>ATOM
      1 C1         0.5851   -0.4593    3.2893 C.3       1 RES1    0.0000
      2 C2         1.8549   -1.1456    2.7647 C.3       1 RES1    0.0000
      3 H1         2.6669   -0.7548    3.1747 H         1 RES1    0.0000
      4 H2         1.8357   -2.1179    2.9466 H         1 RES1    0.0000
      5 C3         1.8089   -0.8649    1.2561 C.3       1 RES1    0.0000
      6 H3         2.4313   -1.4558    0.7638 H         1 RES1    0.0000
      7 H4         2.0349    0.0792    1.0609 H         1 RES1    0.0000
      8 C4         0.3409   -1.1738    0.8885 C.3       1 RES1    0.0000
      9 C5        -0.0038   -1.0811    4.5392 C.3       1 RES1    0.0000
     10 H5        -0.8666   -0.6621    4.7368 H         1 RES1    0.0000
     11 H6         0.6081   -0.9414    5.2911 H         1 RES1    0.0000
     12 H7        -0.1321   -2.0414    4.3973 H         1 RES1    0.0000
     13 C6        -0.1848   -0.4177   -0.3175 C.3       1 RES1    0.0000
     14 H8        -1.1300   -0.6393   -0.4562 H         1 RES1    0.0000
     15 H9         0.3294   -0.6728   -1.1113 H         1 RES1    0.0000
     16 H10       -0.0938    0.5453   -0.1644 H         1 RES1    0.0000
     17 C7         0.8494    1.0422    3.4786 C.ar      1 RES1    0.0000
     18 C8         0.3505    2.0172    2.6342 C.ar      1 RES1    0.0000
     19 H11       -0.2442    1.7660    1.9361 H         1 RES1    0.0000
     20 C9         0.7000    3.3709    2.7808 C.ar      1 RES1    0.0000
     21 H12        0.3467    4.0277    2.1907 H         1 RES1    0.0000
     22 C10        1.5647    3.7322    3.7940 C.ar      1 RES1    0.0000
     23 C11        2.0751    2.7626    4.6551 C.ar      1 RES1    0.0000
     24 H13        2.6746    3.0070    5.3495 H         1 RES1    0.0000
     25 C12        1.7045    1.4437    4.4899 C.ar      1 RES1    0.0000
     26 H14        2.0464    0.7910    5.0896 H         1 RES1    0.0000
     27 C13        0.1906   -2.6873    0.7164 C.ar      1 RES1    0.0000
     28 C14        0.8264   -3.2984   -0.3702 C.ar      1 RES1    0.0000
     29 H15        1.2851   -2.7572   -0.9999 H         1 RES1    0.0000
     30 C15        0.8044   -4.6629   -0.5514 C.ar      1 RES1    0.0000
     31 H16        1.2497   -5.0537   -1.2943 H         1 RES1    0.0000
     32 C16        0.1264   -5.4674    0.3588 C.ar      1 RES1    0.0000
     33 C17       -0.5094   -4.8818    1.4335 C.ar      1 RES1    0.0000
     34 H17       -0.9700   -5.4271    2.0608 H         1 RES1    0.0000
     35 C18       -0.4826   -3.5025    1.6104 C.ar      1 RES1    0.0000
     36 H18       -0.9317   -3.1144    2.3525 H         1 RES1    0.0000
     37 C19       -0.0278   -6.9473    0.1859 C.2       1 RES1    0.0000
     38 C20        1.5982    6.0448    3.1365 C.3       1 RES1    0.0000
     39 H19        0.6119    6.1214    3.0951 H         1 RES1    0.0000
     40 H20        1.9372    5.8367    2.2305 H         1 RES1    0.0000
     41 C21        2.2101    7.3314    3.6513 C.3       1 RES1    0.0000
     42 H21        2.0991    8.0352    2.9625 H         1 RES1    0.0000
     43 H22        3.1811    7.1918    3.7820 H         1 RES1    0.0000
     44 C22        1.6040    7.8243    4.9583 C.3       1 RES1    0.0000
     45 H23        1.6212    7.0884    5.6200 H         1 RES1    0.0000
     46 H24        0.6579    8.0701    4.8031 H         1 RES1    0.0000
     47 C23        2.3452    9.0263    5.5296 C.3       1 RES1    0.0000
     48 H25        3.2884    8.7684    5.6863 H         1 RES1    0.0000
     49 H26        2.3432    9.7475    4.8509 H         1 RES1    0.0000
     50 C24        1.7763    9.5810    6.8254 C.3       1 RES1    0.0000
     51 H27        1.7562    8.8584    7.5031 H         1 RES1    0.0000
     52 H28        0.8436    9.8737    6.6676 H         1 RES1    0.0000
     53 C25        2.5836   10.7615    7.3797 C.3       1 RES1    0.0000
     54 H29        3.5039   10.4553    7.5773 H         1 RES1    0.0000
     55 H30        2.6439   11.4625    6.6835 H         1 RES1    0.0000
     56 C26        1.9966   11.3685    8.6265 C.3       1 RES1    0.0000
     57 H31        1.9391   10.6648    9.3225 H         1 RES1    0.0000
     58 H32        1.0735   11.6666    8.4260 H         1 RES1    0.0000
     59 C27        2.7818   12.5624    9.2021 C.3       1 RES1    0.0000
     60 H33        2.3959   12.8001   10.0810 H         1 RES1    0.0000
     61 H34        3.7193   12.2817    9.3517 H         1 RES1    0.0000
     62 C28        2.7809   13.7980    8.3186 C.3       1 RES1    0.0000
     63 H35        1.8549   13.9632    8.0096 H         1 RES1    0.0000
     64 H36        3.3344   13.6153    7.5190 H         1 RES1    0.0000
     65 C29        3.3028   15.0604    8.9933 C.3       1 RES1    0.0000
     66 H37        2.7502   15.2525    9.7919 H         1 RES1    0.0000
     67 H38        4.2316   14.9046    9.2986 H         1 RES1    0.0000
     68 C30        3.2769   16.2637    8.0672 C.3       1 RES1    0.0000
     69 H39        2.3547   16.3752    7.7232 H         1 RES1    0.0000
     70 H40        3.8620   16.0757    7.2909 H         1 RES1    0.0000
     71 C31        3.7184   17.5785    8.6960 C.3       1 RES1    0.0000
     72 H41        4.6300   17.4724    9.0679 H         1 RES1    0.0000
     73 H42        3.1093   17.8028    9.4445 H         1 RES1    0.0000
     74 C32        3.7164   18.7281    7.6824 C.3       1 RES1    0.0000
     75 H43        4.3820   18.5401    6.9726 H         1 RES1    0.0000
     76 H44        2.8249   18.7872    7.2564 H         1 RES1    0.0000
     77 C33        4.0468   20.0577    8.3404 C.3       1 RES1    0.0000
     78 H45        3.3698   20.2632    9.0201 H         1 RES1    0.0000
     79 H46        4.0535   20.7655    7.6622 H         1 RES1    0.0000
     80 H47        4.9288   20.0026    8.7629 H         1 RES1    0.0000
     81 C34        0.6224   -9.0182   -0.9532 C.3       1 RES1    0.0000
     82 H48       -0.0757   -9.3768   -0.3315 H         1 RES1    0.0000
     83 C35        1.9095   -9.7529   -0.6670 C.2       1 RES1    0.0000
     84 C36        0.1274   -9.2358   -2.3822 C.3       1 RES1    0.0000
     85 H49       -0.6971   -8.7255   -2.5222 H         1 RES1    0.0000
     86 H50       -0.0479  -10.1893   -2.5249 H         1 RES1    0.0000
     87 H51        0.8120   -8.9310   -3.0156 H         1 RES1    0.0000
     88 N1        -0.3304   -0.7023    2.1340 N.3       1 RES1    0.0000
     89 O1        -1.5925   -0.4816    2.2034 O.2       1 RES1    0.0000
     90 O2         1.9832    5.0174    4.0648 O.3       1 RES1    0.0000
     91 O3        -0.9241   -7.5404    0.8190 O.2       1 RES1    0.0000
     92 N2         0.7891   -7.5892   -0.6593 N.am      1 RES1    0.0000
     93 H52        1.5130   -7.1851   -0.9283 H         1 RES1    0.0000
     94 O4         2.9063   -9.2488   -0.2270 O.2       1 RES1    0.0000
     95 O5         1.7783  -11.0442   -0.9588 O.3       1 RES1    0.0000
     96 H53        2.6142  -11.5364   -0.7904 H         1 RES1    0.0000
@<TRIPOS>BOND
     1    1    2 1
     2    2    3 1
     3    4    2 1
     4    5    2 1
     5    6    5 1
     6    7    5 1
     7    8    5 1
     8    9    1 1
     9   10    9 1
    10   11    9 1
    11   12    9 1
    12   13    8 1
    13   14   13 1
    14   15   13 1
    15   16   13 1
    16   17    1 1
    17   18   17 ar
    18   19   18 1
    19   20   18 ar
    20   21   20 1
    21   22   20 ar
    22   23   22 ar
    23   24   23 1
    24   25   17 ar
    25   26   25 1
    26   27    8 1
    27   28   27 ar
    28   29   28 1
    29   30   28 ar
    30   31   30 1
    31   32   30 ar
    32   33   32 ar
    33   34   33 1
    34   35   27 ar
    35   36   35 1
    36   37   32 1
    37   38   39 1
    38   40   38 1
    39   41   38 1
    40   42   41 1
    41   43   41 1
    42   44   41 1
    43   45   44 1
    44   46   44 1
    45   47   44 1
    46   48   47 1
    47   49   47 1
    48   50   47 1
    49   51   50 1
    50   52   50 1
    51   53   50 1
    52   54   53 1
    53   55   53 1
    54   56   53 1
    55   57   56 1
    56   58   56 1
    57   59   56 1
    58   60   59 1
    59   61   59 1
    60   62   59 1
    61   63   62 1
    62   64   62 1
    63   65   62 1
    64   66   65 1
    65   67   65 1
    66   68   65 1
    67   69   68 1
    68   70   68 1
    69   71   68 1
    70   72   71 1
    71   73   71 1
    72   74   71 1
    73   75   74 1
    74   76   74 1
    75   77   74 1
    76   78   77 1
    77   79   77 1
    78   80   77 1
    79   81   82 1
    80   83   81 1
    81   84   81 1
    82   85   84 1
    83   86   84 1
    84   87   84 1
    85   88    1 1
    86   89   88 1
    87   90   22 1
    88   91   37 2
    89   92   37 1
    90   93   92 1
    91   94   83 2
    92   95   83 1
    93   96   95 1
    94    8   88 1
    95   23   25 ar
    96   33   35 ar
    97   38   90 1
    98   81   92 1
@<TRIPOS>SUBSTRUCTURE
     1 RES1 1

@<TRIPOS>CRYSIN
   9.5760   13.4300   26.5220  90.0000  90.0000  90.0000  19 1

