# MOL2 file generated by ConQuest
# Please check atom types

@<TRIPOS>MOLECULE
VUJCEI
    80    87     1
SMALL
USER_CHARGES
****
Generated from CSD

@<TRIPOS>ATOM
      1 C1         3.6581    7.5960   12.6086 C.3       1 RES1    0.0000
      2 C2         4.8933    7.5914   11.7349 C.3       1 RES1    0.0000
      3 C3         6.1291    7.0480   12.4392 C.3       1 RES1    0.0000
      4 C4         6.7125    7.9377   13.5259 C.3       1 RES1    0.0000
      5 C5         5.8963    8.1029   14.7494 C.2       1 RES1    0.0000
      6 C6         5.4148    7.0754   15.7025 C.3       1 RES1    0.0000
      7 C7         3.9186    6.6664   15.6139 C.3       1 RES1    0.0000
      8 C8         3.5878    5.7289   14.4945 C.2       1 RES1    0.0000
      9 C9         3.1451    6.2358   13.1776 C.3       1 RES1    0.0000
     10 C10        1.7337    6.8100   13.0626 C.3       1 RES1    0.0000
     11 C11        2.2546    7.8352   11.9914 C.3       1 RES1    0.0000
     12 C12        7.0578    9.3628   13.1232 C.3       1 RES1    0.0000
     13 C13        3.6917    4.4188   14.7028 C.2       1 RES1    0.0000
     14 C14        2.0948    7.3237   10.5860 C.3       1 RES1    0.0000
     15 C15        1.7442    9.2455   12.1173 C.3       1 RES1    0.0000
     16 N1         5.7148    9.3651   15.0075 N.pl3     1 RES1    1.0000
     17 N2         6.2074   10.2548   13.9239 N.3       1 RES1    0.0000
     18 O1         5.1399    9.9051   15.9854 O.2       1 RES1   -1.0000
     19 O2         7.0519   11.2322   14.5038 O.3       1 RES1    0.0000
     20 C16       11.3710   11.1172   15.8237 C.3       1 RES1    0.0000
     21 C17       10.8448   11.4999   14.4820 C.3       1 RES1    0.0000
     22 C18        9.3479   11.8622   14.4758 C.3       1 RES1    0.0000
     23 C19        8.4212   10.6740   14.6624 C.3       1 RES1    0.0000
     24 C20        8.4830    9.9472   15.9543 C.2       1 RES1    0.0000
     25 C21        8.2127   10.4405   17.3054 C.3       1 RES1    0.0000
     26 C22        9.3985   10.7834   18.2242 C.3       1 RES1    0.0000
     27 C23       10.0582   12.1014   17.9086 C.2       1 RES1    0.0000
     28 C24       11.2388   12.1094   16.9820 C.3       1 RES1    0.0000
     29 C25       12.6055   11.5740   17.5044 C.3       1 RES1    0.0000
     30 C26       12.9014   10.9930   16.1176 C.3       1 RES1    0.0000
     31 C27        8.5001    9.5736   13.6052 C.3       1 RES1    0.0000
     32 C28        9.5709   13.2212   18.4076 C.2       1 RES1    0.0000
     33 C29       13.7354   11.9271   15.2609 C.3       1 RES1    0.0000
     34 C30       13.4796    9.6203   16.0849 C.3       1 RES1    0.0000
     35 N3         8.6067    8.6691   15.7289 N.pl3     1 RES1    1.0000
     36 N4         8.9013    8.3524   14.3079 N.3       1 RES1    0.0000
     37 O3         8.5784    7.7065   16.5311 O.2       1 RES1   -1.0000
     38 O4         8.0114    7.3397   13.8695 O.3       1 RES1    0.0000
     39 H1         3.8081    8.2590   13.4171 H         1 RES1    0.0000
     40 H2         5.0840    8.5779   11.4270 H         1 RES1    0.0000
     41 H3         4.6960    7.0173   10.8829 H         1 RES1    0.0000
     42 H4         6.8730    6.8692   11.7224 H         1 RES1    0.0000
     43 H5         5.8667    6.1287   12.8729 H         1 RES1    0.0000
     44 H6         5.9916    6.2085   15.5781 H         1 RES1    0.0000
     45 H7         5.5839    7.4388   16.6664 H         1 RES1    0.0000
     46 H8         3.3543    7.5413   15.5004 H         1 RES1    0.0000
     47 H9         3.6305    6.2199   16.5265 H         1 RES1    0.0000
     48 H10        3.2753    5.4908   12.4531 H         1 RES1    0.0000
     49 H11        1.0194    6.1401   12.6864 H         1 RES1    0.0000
     50 H12        1.3877    7.2565   13.9457 H         1 RES1    0.0000
     51 H13        6.9453    9.5235   12.0956 H         1 RES1    0.0000
     52 H14        4.0317    4.0896   15.6403 H         1 RES1    0.0000
     53 H15        3.4595    3.7137   13.9612 H         1 RES1    0.0000
     54 H16        2.4532    8.0311    9.9034 H         1 RES1    0.0000
     55 H17        1.0786    7.1312   10.3854 H         1 RES1    0.0000
     56 H18        2.6374    6.4363   10.4942 H         1 RES1    0.0000
     57 H19        2.1507    9.8538   11.3649 H         1 RES1    0.0000
     58 H20        2.0191    9.6260   13.0595 H         1 RES1    0.0000
     59 H21        0.6972    9.2501   12.0334 H         1 RES1    0.0000
     60 H22       10.9112   10.2184   16.1067 H         1 RES1    0.0000
     61 H23       11.3914   12.3258   14.1478 H         1 RES1    0.0000
     62 H24       11.0099   10.7082   13.8057 H         1 RES1    0.0000
     63 H25        9.0960   12.3372   13.5725 H         1 RES1    0.0000
     64 H26        9.1749   12.5423   15.2516 H         1 RES1    0.0000
     65 H27        7.6293   11.3006   17.2105 H         1 RES1    0.0000
     66 H28        7.6359    9.7171   17.8013 H         1 RES1    0.0000
     67 H29        9.0565   10.8107   19.2161 H         1 RES1    0.0000
     68 H30       10.1154   10.0247   18.1433 H         1 RES1    0.0000
     69 H31       11.3782   13.0777   16.6042 H         1 RES1    0.0000
     70 H32       13.2790   12.3144   17.8169 H         1 RES1    0.0000
     71 H33       12.4897   10.8335   18.2366 H         1 RES1    0.0000
     72 H34        9.1552    9.8196   12.8263 H         1 RES1    0.0000
     73 H35        8.7343   13.1916   19.0295 H         1 RES1    0.0000
     74 H36       10.0299   14.1371   18.1900 H         1 RES1    0.0000
     75 H37       14.7456   11.8018   15.5004 H         1 RES1    0.0000
     76 H38       13.4434   12.9182   15.4537 H         1 RES1    0.0000
     77 H39       13.5947   11.7221   14.2411 H         1 RES1    0.0000
     78 H40       14.5089    9.6602   16.2777 H         1 RES1    0.0000
     79 H41       13.3118    9.1589   15.1583 H         1 RES1    0.0000
     80 H42       13.0093    9.0678   16.8374 H         1 RES1    0.0000
@<TRIPOS>BOND
     1    1    2 1
     2    2    3 1
     3    3    4 1
     4    4    5 1
     5    5    6 1
     6    6    7 1
     7    7    8 1
     8    8    9 1
     9    9    1 1
    10   10    9 1
    11   11    1 1
    12   12    4 1
    13   13    8 2
    14   14   11 1
    15   15   11 1
    16   16    5 2
    17   17   12 1
    18   18   16 1
    19   19   17 1
    20   20   21 1
    21   21   22 1
    22   22   23 1
    23   23   19 1
    24   24   23 1
    25   25   24 1
    26   26   25 1
    27   27   26 1
    28   28   20 1
    29   29   28 1
    30   30   20 1
    31   31   12 1
    32   32   27 2
    33   33   30 1
    34   34   30 1
    35   35   24 2
    36   36   31 1
    37   37   35 1
    38   38    4 1
    39   39    1 1
    40   40    2 1
    41   41    2 1
    42   42    3 1
    43   43    3 1
    44   44    6 1
    45   45    6 1
    46   46    7 1
    47   47    7 1
    48   48    9 1
    49   49   10 1
    50   50   10 1
    51   51   12 1
    52   52   13 1
    53   53   13 1
    54   54   14 1
    55   55   14 1
    56   56   14 1
    57   57   15 1
    58   58   15 1
    59   59   15 1
    60   60   20 1
    61   61   21 1
    62   62   21 1
    63   63   22 1
    64   64   22 1
    65   65   25 1
    66   66   25 1
    67   67   26 1
    68   68   26 1
    69   69   28 1
    70   70   29 1
    71   71   29 1
    72   72   31 1
    73   73   32 1
    74   74   32 1
    75   75   33 1
    76   76   33 1
    77   77   33 1
    78   78   34 1
    79   79   34 1
    80   80   34 1
    81   10   11 1
    82   16   17 1
    83   23   31 1
    84   27   28 1
    85   29   30 1
    86   35   36 1
    87   36   38 1
@<TRIPOS>SUBSTRUCTURE
     1 RES1 1

@<TRIPOS>CRYSIN
  13.1540   13.1540   15.5470  90.0000  90.0000 120.0000 145 1

