# MOL2 file generated by ConQuest
# Please check atom types

@<TRIPOS>MOLECULE
VUJDIN
    21    24     1
SMALL
NO_CHARGES
****
Generated from CSD

@<TRIPOS>ATOM
      1 N1         5.8158    6.4020    3.0288 N.3       1 RES1    0.0000
      2 O1         2.7356    4.6814    2.0750 O.3       1 RES1    0.0000
      3 O2         3.4238    4.8172   -1.0193 O.3       1 RES1    0.0000
      4 O3         2.3435    3.3063    0.2639 O.3       1 RES1    0.0000
      5 O4         2.8709    7.4701    1.3779 O.3       1 RES1    0.0000
      6 O5         6.6539    5.2150    2.7722 O.3       1 RES1    0.0000
      7 C1         3.5920    6.3748    0.7754 C.3       1 RES1    0.0000
      8 C2         2.6707    5.5885   -0.1220 C.3       1 RES1    0.0000
      9 C3         2.0565    4.5494    0.8755 C.3       1 RES1    0.0000
     10 C4         3.9722    5.4013    1.8420 C.3       1 RES1    0.0000
     11 C5         2.8553    3.5010   -1.0430 C.3       1 RES1    0.0000
     12 C6         3.9759    2.4994   -1.2760 C.3       1 RES1    0.0000
     13 C7         1.7640    3.4074   -2.0878 C.3       1 RES1    0.0000
     14 C8         4.4631    5.9255    3.1817 C.3       1 RES1    0.0000
     15 C9         6.3340    7.0488    4.2756 C.3       1 RES1    0.0000
     16 C10        7.7690    7.4888    3.9953 C.3       1 RES1    0.0000
     17 C11        8.6282    6.3000    3.6768 C.3       1 RES1    0.0000
     18 C12        7.6867    5.0549    3.7915 C.3       1 RES1    0.0000
     19 C13        7.1109    5.0081    5.1148 C.2       1 RES1    0.0000
     20 C14        6.3157    6.0847    5.4078 C.2       1 RES1    0.0000
     21 C15        2.8151    8.6028    0.5442 C.3       1 RES1    0.0000
@<TRIPOS>BOND
     1    1    6 1
     2    2    9 1
     3    3    8 1
     4    4    9 1
     5    5    7 1
     6    6   18 1
     7    7    8 1
     8    8    9 1
     9   10    2 1
    10   11    3 1
    11   12   11 1
    12   13   11 1
    13   14    1 1
    14   15    1 1
    15   16   15 1
    16   17   16 1
    17   18   17 1
    18   19   18 1
    19   20   15 1
    20   21    5 1
    21    4   11 1
    22    7   10 1
    23   10   14 1
    24   19   20 2
@<TRIPOS>SUBSTRUCTURE
     1 RES1 1

@<TRIPOS>CRYSIN
   9.1400    9.3610   18.2020  90.0000  90.0000  90.0000  19 1

