# MOL2 file generated by ConQuest
# Please check atom types

@<TRIPOS>MOLECULE
VUJDEJ
    25    29     1
SMALL
NO_CHARGES
****
Generated from CSD

@<TRIPOS>ATOM
      1 O1         3.4034    8.2196    5.4404 O.3       1 RES1    0.0000
      2 O2         6.5362    8.4700    5.5634 O.3       1 RES1    0.0000
      3 O3         4.9744    7.7698    7.0728 O.3       1 RES1    0.0000
      4 O4         1.9000   10.5355    4.7200 O.3       1 RES1    0.0000
      5 O5         0.5298    9.4936    3.2553 O.3       1 RES1    0.0000
      6 O6         5.0041    9.6815    1.7427 O.3       1 RES1    0.0000
      7 N1         5.8188    9.3616    2.9374 N.3       1 RES1    0.0000
      8 C1         4.9457    8.4814    3.7169 C.3       1 RES1    0.0000
      9 C2         5.6384    7.6639    4.8398 C.3       1 RES1    0.0000
     10 C3         4.4804    7.4111    5.8206 C.3       1 RES1    0.0000
     11 C4         3.8942    9.2340    4.5635 C.3       1 RES1    0.0000
     12 C5         6.3343    8.2196    6.9626 C.3       1 RES1    0.0000
     13 C6         6.4972    9.5301    7.6958 C.3       1 RES1    0.0000
     14 C7         7.2556    7.1504    7.4802 C.3       1 RES1    0.0000
     15 C8         2.7413    9.8694    3.8080 C.3       1 RES1    0.0000
     16 C9         1.7934    8.9528    3.0764 C.3       1 RES1    0.0000
     17 C10        0.6098   10.5981    4.1466 C.3       1 RES1    0.0000
     18 C11        0.4304   11.8403    3.3384 C.3       1 RES1    0.0000
     19 C12       -0.4202   10.3840    5.2296 C.3       1 RES1    0.0000
     20 C13        7.0855    8.6978    2.4630 C.3       1 RES1    0.0000
     21 C14        6.7504    7.4874    1.6516 C.2       1 RES1    0.0000
     22 C15        5.9643    7.7618    0.6166 C.2       1 RES1    0.0000
     23 C16        5.6415    9.2181    0.5111 C.3       1 RES1    0.0000
     24 C17        7.7803    9.7646    1.5973 C.3       1 RES1    0.0000
     25 C18        6.9072   10.0185    0.3370 C.3       1 RES1    0.0000
@<TRIPOS>BOND
     1    1   10 1
     2    2    9 1
     3    3   10 1
     4    4   15 1
     5    5   16 1
     6    6    7 1
     7    7    8 1
     8    8    9 1
     9    9   10 1
    10   11    1 1
    11   12    2 1
    12   13   12 1
    13   14   12 1
    14   15   11 1
    15   16   15 1
    16   17    4 1
    17   18   17 1
    18   19   17 1
    19   20    7 1
    20   21   20 1
    21   22   21 2
    22   23    6 1
    23   24   20 1
    24   25   23 1
    25    3   12 1
    26    5   17 1
    27    8   11 1
    28   22   23 1
    29   24   25 1
@<TRIPOS>SUBSTRUCTURE
     1 RES1 1

@<TRIPOS>CRYSIN
  10.2480   11.3860   15.9730  90.0000  90.0000  90.0000  19 1

