# MOL2 file generated by ConQuest
# Please check atom types

@<TRIPOS>MOLECULE
VUJVOL
    60    64     2
SMALL
NO_CHARGES
****
Generated from CSD

@<TRIPOS>ATOM
      1 O1        -2.3380    4.5041    0.9762 O.2       1 RES1    0.0000
      2 O2        -2.2210    4.9683    3.0832 O.2       1 RES1    0.0000
      3 N1        -1.7054    4.7596    1.9907 N.pl3     1 RES1    0.0000
      4 N2         3.7788    5.0057    1.4502 N.3       1 RES1    0.0000
      5 C1         1.8192    5.2809    2.9731 C.ar      1 RES1    0.0000
      6 C2         0.4652    5.1863    3.0166 C.ar      1 RES1    0.0000
      7 C3        -0.2570    4.8497    1.8744 C.ar      1 RES1    0.0000
      8 C4         0.3401    4.5787    0.6692 C.ar      1 RES1    0.0000
      9 C5         1.7165    4.6642    0.6008 C.ar      1 RES1    0.0000
     10 C6         2.6670    4.4185   -0.4375 C.ar      1 RES1    0.0000
     11 C7         2.5722    4.0177   -1.7688 C.ar      1 RES1    0.0000
     12 C8         3.7198    3.8484   -2.5090 C.ar      1 RES1    0.0000
     13 C9         4.9460    4.1072   -1.9472 C.ar      1 RES1    0.0000
     14 C10        5.0973    4.5017   -0.6266 C.ar      1 RES1    0.0000
     15 C11        3.9330    4.6473    0.1189 C.ar      1 RES1    0.0000
     16 C12        2.4458    5.0135    1.7572 C.ar      1 RES1    0.0000
     17 C13        4.8645    5.2779    2.3865 C.3       1 RES1    0.0000
     18 C14        5.1532    6.7482    2.5063 C.3       1 RES1    0.0000
     19 O3        -0.3444    1.4404    1.4786 O.2       2 RES2    0.0000
     20 O4        -0.5136    1.6950    3.6068 O.2       2 RES2    0.0000
     21 N3         0.1541    1.5756    2.5888 N.pl3     2 RES2    0.0000
     22 N4         5.6333    1.7274    3.1923 N.3       2 RES2    0.0000
     23 C15        3.7190    1.5652    1.6010 C.ar      2 RES2    0.0000
     24 C16        2.3619    1.5296    1.5371 C.ar      2 RES2    0.0000
     25 C17        1.6040    1.6079    2.6989 C.ar      2 RES2    0.0000
     26 C18        2.1584    1.7193    3.9449 C.ar      2 RES2    0.0000
     27 C19        3.5245    1.7639    4.0399 C.ar      2 RES2    0.0000
     28 C20        4.4514    1.8566    5.1377 C.ar      2 RES2    0.0000
     29 C21        4.3124    1.9381    6.5178 C.ar      2 RES2    0.0000
     30 C22        5.4366    1.9716    7.3076 C.ar      2 RES2    0.0000
     31 C23        6.6942    1.9212    6.7272 C.ar      2 RES2    0.0000
     32 C24        6.8807    1.8424    5.3649 C.ar      2 RES2    0.0000
     33 C25        5.7379    1.8227    4.5804 C.ar      2 RES2    0.0000
     34 C26        4.3135    1.6818    2.8586 C.ar      2 RES2    0.0000
     35 C27        6.7419    1.5738    2.2605 C.3       2 RES2    0.0000
     36 C28        7.0672    0.1271    1.9871 C.3       2 RES2    0.0000
     37 H1         2.3603    5.7435    3.6920 H         1 RES1    0.0000
     38 H2        -0.0641    5.4205    3.8872 H         1 RES1    0.0000
     39 H3        -0.2271    4.3086   -0.1686 H         1 RES1    0.0000
     40 H4         1.6093    3.8773   -2.2187 H         1 RES1    0.0000
     41 H5         3.6004    3.6522   -3.5944 H         1 RES1    0.0000
     42 H6         5.8062    3.8751   -2.4584 H         1 RES1    0.0000
     43 H7         6.0198    4.6827   -0.2396 H         1 RES1    0.0000
     44 H8         5.7136    4.7663    2.0412 H         1 RES1    0.0000
     45 H9         4.5841    4.9035    3.3725 H         1 RES1    0.0000
     46 H10        4.2859    7.2579    2.6359 H         1 RES1    0.0000
     47 H11        5.7705    6.9143    3.3015 H         1 RES1    0.0000
     48 H12        5.6140    7.0739    1.6507 H         1 RES1    0.0000
     49 H13        4.2308    1.5684    0.7277 H         2 RES2    0.0000
     50 H14        1.8784    1.4928    0.6656 H         2 RES2    0.0000
     51 H15        1.5465    1.8548    4.6771 H         2 RES2    0.0000
     52 H16        3.3275    1.8880    6.9136 H         2 RES2    0.0000
     53 H17        5.3866    1.9016    8.3868 H         2 RES2    0.0000
     54 H18        7.5748    2.0293    7.3307 H         2 RES2    0.0000
     55 H19        7.8124    1.8569    4.8990 H         2 RES2    0.0000
     56 H20        6.4908    2.0365    1.3579 H         2 RES2    0.0000
     57 H21        7.5950    2.0361    2.6714 H         2 RES2    0.0000
     58 H22        6.2221   -0.5213    1.7129 H         2 RES2    0.0000
     59 H23        7.7255    0.0114    1.2336 H         2 RES2    0.0000
     60 H24        7.5057   -0.3479    2.9021 H         2 RES2    0.0000
@<TRIPOS>BOND
     1    1    3 2
     2    2    3 2
     3    3    7 1
     4    4   15 1
     5    5    6 ar
     6    6    7 ar
     7    7    8 ar
     8    8    9 ar
     9    9   10 1
    10   10   11 ar
    11   11   12 ar
    12   12   13 ar
    13   13   14 ar
    14   14   15 ar
    15   15   10 ar
    16   16    4 1
    17   17    4 1
    18   18   17 1
    19   19   21 2
    20   20   21 2
    21   21   25 1
    22   22   33 1
    23   23   24 ar
    24   24   25 ar
    25   25   26 ar
    26   26   27 ar
    27   27   28 1
    28   28   29 ar
    29   29   30 ar
    30   30   31 ar
    31   31   32 ar
    32   32   33 ar
    33   33   28 ar
    34   34   22 1
    35   35   22 1
    36   36   35 1
    37   37    5 1
    38   38    6 1
    39   39    8 1
    40   40   11 1
    41   41   12 1
    42   42   13 1
    43   43   14 1
    44   44   17 1
    45   45   17 1
    46   46   18 1
    47   47   18 1
    48   48   18 1
    49   49   23 1
    50   50   24 1
    51   51   26 1
    52   52   29 1
    53   53   30 1
    54   54   31 1
    55   55   32 1
    56   56   35 1
    57   57   35 1
    58   58   36 1
    59   59   36 1
    60   60   36 1
    61    5   16 ar
    62    9   16 ar
    63   23   34 ar
    64   27   34 ar
@<TRIPOS>SUBSTRUCTURE
     1 RES1 1
     2 RES2 19

@<TRIPOS>CRYSIN
  10.5720   12.9100    9.5470  94.8500 111.6200  75.4000   2 1

