# MOL2 file generated by ConQuest
# Please check atom types

@<TRIPOS>MOLECULE
VUJZIJ
    21    22     1
SMALL
USER_CHARGES
****
Generated from CSD

@<TRIPOS>ATOM
      1 O1         0.7513    2.0536   -2.5961 O.2       1 RES1   -1.0000
      2 N1         0.9051    1.1186   -1.7134 N.pl3     1 RES1    1.0000
      3 C1         1.1014    1.3893   -0.3741 C.ar      1 RES1    0.0000
      4 N2         1.3091    0.4026    0.4905 N.ar      1 RES1    0.0000
      5 C2         1.2926   -0.8630    0.0825 C.ar      1 RES1    0.0000
      6 C3         1.0410   -1.1977   -1.2353 C.ar      1 RES1    0.0000
      7 C4         0.8483   -0.1795   -2.1236 C.ar      1 RES1    0.0000
      8 C5         1.0712    2.7705    0.1503 C.ar      1 RES1    0.0000
      9 C6         1.3594    3.9114   -0.6013 C.ar      1 RES1    0.0000
     10 C7         1.3407    5.1597    0.0057 C.ar      1 RES1    0.0000
     11 C8         1.0237    5.3037    1.3359 C.ar      1 RES1    0.0000
     12 C9         0.7333    4.1903    2.0784 C.ar      1 RES1    0.0000
     13 C10        0.7656    2.9237    1.5043 C.ar      1 RES1    0.0000
     14 H1         1.4809   -1.6489    0.7979 H         1 RES1    0.0000
     15 H2         0.9986   -2.2300   -1.5506 H         1 RES1    0.0000
     16 H3         0.6492   -0.4046   -3.1612 H         1 RES1    0.0000
     17 H4         1.5967    3.8242   -1.6512 H         1 RES1    0.0000
     18 H5         1.5794    6.0359   -0.5787 H         1 RES1    0.0000
     19 H6         1.0036    6.2834    1.7902 H         1 RES1    0.0000
     20 H7         0.4759    4.2967    3.1216 H         1 RES1    0.0000
     21 H8         0.5543    2.0546    2.1090 H         1 RES1    0.0000
@<TRIPOS>BOND
     1    1    2 1
     2    2    3 ar
     3    3    4 ar
     4    4    5 ar
     5    5    6 ar
     6    6    7 ar
     7    7    2 ar
     8    8    3 1
     9    9    8 ar
    10   10    9 ar
    11   11   10 ar
    12   12   11 ar
    13   13    8 ar
    14   14    5 1
    15   15    6 1
    16   16    7 1
    17   17    9 1
    18   18   10 1
    19   19   11 1
    20   20   12 1
    21   21   13 1
    22   12   13 ar
@<TRIPOS>SUBSTRUCTURE
     1 RES1 1

@<TRIPOS>CRYSIN
   7.1890   10.1410   11.3020  90.0000  90.0000  90.0000  19 1

