# MOL2 file generated by ConQuest
# Please check atom types

@<TRIPOS>MOLECULE
VUKPOI
    46    47     1
SMALL
NO_CHARGES
****
Generated from CSD

@<TRIPOS>ATOM
      1 C1         9.9342    2.1555   10.8846 C.3       1 RES1    0.0000
      2 H1        10.0556    1.4394   11.5574 H         1 RES1    0.0000
      3 H2        10.5362    2.9061   11.1192 H         1 RES1    0.0000
      4 C2         7.7818    2.1117   11.7799 C.2       1 RES1    0.0000
      5 H3         8.1252    1.4625   12.3828 H         1 RES1    0.0000
      6 C3         6.3885    2.5219   11.8837 C.2       1 RES1    0.0000
      7 H4         6.0477    3.1356   11.2435 H         1 RES1    0.0000
      8 C4         5.5659    2.0750   12.8382 C.2       1 RES1    0.0000
      9 H5         5.9105    1.4519   13.4670 H         1 RES1    0.0000
     10 C5         4.1617    2.4898   12.9725 C.ar      1 RES1    0.0000
     11 C6         3.4009    2.8384   11.8510 C.ar      1 RES1    0.0000
     12 H6         3.8103    2.8078   10.9949 H         1 RES1    0.0000
     13 C7         2.0768    3.2267   11.9415 C.ar      1 RES1    0.0000
     14 H7         1.5989    3.4774   11.1600 H         1 RES1    0.0000
     15 C8         1.4497    3.2483   13.1778 C.ar      1 RES1    0.0000
     16 H8         0.5405    3.5171   13.2448 H         1 RES1    0.0000
     17 C9         2.1441    2.8796   14.3076 C.ar      1 RES1    0.0000
     18 H9         1.7143    2.8739   15.1544 H         1 RES1    0.0000
     19 C10        3.4767    2.5170   14.1955 C.ar      1 RES1    0.0000
     20 N1         8.5448    2.6127   10.8922 N.2       1 RES1    0.0000
     21 N2         4.1785    2.2073   15.4448 N.pl3     1 RES1    0.0000
     22 O1         3.5552    1.6077   16.3216 O.2       1 RES1    0.0000
     23 O2         5.3392    2.5798   15.5704 O.2       1 RES1    0.0000
     24 C1B       10.2850    1.6255    9.4951 C.3       1 RES1    0.0000
     25 H1B       10.1636    2.3416    8.8224 H         1 RES1    0.0000
     26 H2B        9.6830    0.8749    9.2606 H         1 RES1    0.0000
     27 C2B       12.4374    1.6693    8.5999 C.2       1 RES1    0.0000
     28 H3B       12.0940    2.3185    7.9970 H         1 RES1    0.0000
     29 C3B       13.8307    1.2591    8.4961 C.2       1 RES1    0.0000
     30 H4B       14.1715    0.6454    9.1363 H         1 RES1    0.0000
     31 C4B       14.6533    1.7060    7.5415 C.2       1 RES1    0.0000
     32 H5B       14.3087    2.3291    6.9128 H         1 RES1    0.0000
     33 C5B       16.0575    1.2912    7.4072 C.ar      1 RES1    0.0000
     34 C6B       16.8183    0.9426    8.5287 C.ar      1 RES1    0.0000
     35 H6B       16.4089    0.9732    9.3849 H         1 RES1    0.0000
     36 C7B       18.1424    0.5543    8.4382 C.ar      1 RES1    0.0000
     37 H7B       18.6203    0.3036    9.2198 H         1 RES1    0.0000
     38 C8B       18.7696    0.5327    7.2020 C.ar      1 RES1    0.0000
     39 H8B       19.6787    0.2639    7.1350 H         1 RES1    0.0000
     40 C9B       18.0751    0.9014    6.0722 C.ar      1 RES1    0.0000
     41 H9B       18.5050    0.9071    5.2254 H         1 RES1    0.0000
     42 C10B      16.7425    1.2640    6.1842 C.ar      1 RES1    0.0000
     43 N1B       11.6744    1.1683    9.4876 N.2       1 RES1    0.0000
     44 N2B       16.0408    1.5737    4.9350 N.pl3     1 RES1    0.0000
     45 O1B       16.6640    2.1733    4.0582 O.2       1 RES1    0.0000
     46 O2B       14.8800    1.2012    4.8094 O.2       1 RES1    0.0000
@<TRIPOS>BOND
     1    1    2 1
     2    3    1 1
     3    4    5 1
     4    6    4 1
     5    7    6 1
     6    8    6 2
     7    9    8 1
     8   10    8 1
     9   11   10 ar
    10   12   11 1
    11   13   11 ar
    12   14   13 1
    13   15   13 ar
    14   16   15 1
    15   17   15 ar
    16   18   17 1
    17   19   10 ar
    18   20    1 1
    19   21   19 1
    20   22   21 2
    21   23   21 2
    22   24    1 1
    23   25   24 1
    24   26   24 1
    25   27   28 1
    26   29   27 1
    27   30   29 1
    28   31   29 2
    29   32   31 1
    30   33   31 1
    31   34   33 ar
    32   35   34 1
    33   36   34 ar
    34   37   36 1
    35   38   36 ar
    36   39   38 1
    37   40   38 ar
    38   41   40 1
    39   42   33 ar
    40   43   24 1
    41   44   42 1
    42   45   44 2
    43   46   44 2
    44    4   20 2
    45   17   19 ar
    46   27   43 2
    47   40   42 ar
@<TRIPOS>SUBSTRUCTURE
     1 RES1 1

@<TRIPOS>CRYSIN
  11.4410    3.7810   20.5530  90.0000  97.4440  90.0000 231 1

