# MOL2 file generated by ConQuest
# Please check atom types

@<TRIPOS>MOLECULE
VUKSEZ
    52    54     2
SMALL
NO_CHARGES
****
Generated from CSD

@<TRIPOS>ATOM
      1 O1         3.9925   -0.7277   -3.0834 O.2       1 RES1    0.0000
      2 O2         7.3375    2.1557    3.0590 O.3       1 RES1    0.0000
      3 O3        10.7528    5.5955    2.4302 O.2       1 RES1    0.0000
      4 O4        11.9422    4.9216    0.7769 O.2       1 RES1    0.0000
      5 N1         7.3876    0.5747    0.8013 N.2       1 RES1    0.0000
      6 N2        10.9794    4.8232    1.5113 N.pl3     1 RES1    0.0000
      7 C1         6.3530    1.2304   -1.3307 C.2       1 RES1    0.0000
      8 C2         6.5731    0.3527   -0.1846 C.2       1 RES1    0.0000
      9 C3         5.7612   -0.8513   -0.0609 C.2       1 RES1    0.0000
     10 C4         4.8370   -1.2051   -0.9615 C.2       1 RES1    0.0000
     11 C5         4.7125   -0.3709   -2.1868 C.2       1 RES1    0.0000
     12 C6         5.4723    0.9111   -2.2922 C.2       1 RES1    0.0000
     13 C7         8.2645    1.6713    0.8763 C.ar      1 RES1    0.0000
     14 C8         8.2239    2.4202    2.0691 C.ar      1 RES1    0.0000
     15 C9         9.0965    3.4763    2.2537 C.ar      1 RES1    0.0000
     16 C10       10.0321    3.7216    1.2841 C.ar      1 RES1    0.0000
     17 C11       10.1457    2.9696    0.1298 C.ar      1 RES1    0.0000
     18 C12        9.2303    1.9510   -0.0811 C.ar      1 RES1    0.0000
     19 C13        5.2116    1.7888   -3.5195 C.3       1 RES1    0.0000
     20 C14        6.0522    3.0557   -3.4546 C.3       1 RES1    0.0000
     21 C15        5.6249    1.0439   -4.7995 C.3       1 RES1    0.0000
     22 C16        3.7331    2.1557   -3.6250 C.3       1 RES1    0.0000
     23 C17        3.9155   -2.4121   -0.7790 C.3       1 RES1    0.0000
     24 C18        4.1660   -3.0638    0.5862 C.3       1 RES1    0.0000
     25 C19        2.4482   -1.9682   -0.8520 C.3       1 RES1    0.0000
     26 C20        4.2134   -3.4793   -1.8439 C.3       1 RES1    0.0000
     27 O5         0.6945    0.9669    3.0590 O.2       2 RES2    0.0000
     28 O6         7.8750   -1.7199    2.4099 O.3       2 RES2    0.0000
     29 O7         9.0434   -5.1303    5.6961 O.2       2 RES2    0.0000
     30 O8         7.9308   -4.6580    7.4690 O.2       2 RES2    0.0000
     31 N3         5.8403   -0.2149    3.5154 N.2       2 RES2    0.0000
     32 N4         8.2377   -4.4513    6.3107 N.pl3     2 RES2    0.0000
     33 C21        3.5302   -0.9942    3.7710 C.2       2 RES2    0.0000
     34 C22        4.5619   -0.0628    3.3390 C.2       2 RES2    0.0000
     35 C23        4.1506    1.0976    2.5620 C.2       2 RES2    0.0000
     36 C24        2.8802    1.4108    2.3308 C.2       2 RES2    0.0000
     37 C25        1.8409    0.5797    2.9941 C.2       2 RES2    0.0000
     38 C26        2.2226   -0.7388    3.5946 C.2       2 RES2    0.0000
     39 C27        6.3851   -1.2861    4.2538 C.ar      2 RES2    0.0000
     40 C28        7.4427   -1.9946    3.6574 C.ar      2 RES2    0.0000
     41 C29        8.0451   -3.0364    4.3289 C.ar      2 RES2    0.0000
     42 C30        7.6046   -3.3293    5.6068 C.ar      2 RES2    0.0000
     43 C31        6.6175   -2.6240    6.2499 C.ar      2 RES2    0.0000
     44 C32        6.0066   -1.6023    5.5622 C.ar      2 RES2    0.0000
     45 C33        1.1295   -1.7250    3.9881 C.3       2 RES2    0.0000
     46 C34        1.7210   -3.0567    4.4141 C.3       2 RES2    0.0000
     47 C35        0.3334   -1.1706    5.1768 C.3       2 RES2    0.0000
     48 C36        0.2084   -1.9854    2.8115 C.3       2 RES2    0.0000
     49 C37        2.4493    2.5834    1.4504 C.3       2 RES2    0.0000
     50 C38        3.6764    3.2087    0.7769 C.3       2 RES2    0.0000
     51 C39        1.5355    2.0675    0.3327 C.3       2 RES2    0.0000
     52 C40        1.7625    3.6679    2.2720 C.3       2 RES2    0.0000
@<TRIPOS>BOND
     1    1   11 2
     2    2   14 1
     3    3    6 2
     4    4    6 2
     5    5    8 2
     6    6   16 1
     7    7    8 1
     8    8    9 1
     9    9   10 2
    10   10   11 1
    11   11   12 1
    12   12    7 2
    13   13    5 1
    14   14   13 ar
    15   15   14 ar
    16   16   15 ar
    17   17   16 ar
    18   18   13 ar
    19   19   12 1
    20   20   19 1
    21   21   19 1
    22   22   19 1
    23   23   10 1
    24   24   23 1
    25   25   23 1
    26   26   23 1
    27   27   37 2
    28   28   40 1
    29   29   32 2
    30   30   32 2
    31   31   34 2
    32   32   42 1
    33   33   34 1
    34   34   35 1
    35   35   36 2
    36   36   37 1
    37   37   38 1
    38   38   33 2
    39   39   31 1
    40   40   39 ar
    41   41   40 ar
    42   42   41 ar
    43   43   42 ar
    44   44   39 ar
    45   45   38 1
    46   46   45 1
    47   47   45 1
    48   48   45 1
    49   49   36 1
    50   50   49 1
    51   51   49 1
    52   52   49 1
    53   17   18 ar
    54   43   44 ar
@<TRIPOS>SUBSTRUCTURE
     1 RES1 1
     2 RES2 27

@<TRIPOS>CRYSIN
  19.4810   10.1350   20.3420  90.0000  94.2800  90.0000  14 1

