# MOL2 file generated by ConQuest
# Please check atom types

@<TRIPOS>MOLECULE
VUMLIY
    22    23     1
SMALL
NO_CHARGES
****
Generated from CSD

@<TRIPOS>ATOM
      1 O1         2.8646    0.1955    0.4699 O.3       1 RES1    0.0000
      2 N1         3.3188   -0.7372   -0.5292 N.2       1 RES1    0.0000
      3 C1         3.5881   -1.8647    0.0245 C.2       1 RES1    0.0000
      4 C2         3.4332   -1.8128    1.5484 C.3       1 RES1    0.0000
      5 C3         2.8572   -0.4013    1.6901 C.2       1 RES1    0.0000
      6 O2         2.5372    0.2139    2.6642 O.2       1 RES1    0.0000
      7 C4         4.1433   -2.9391   -0.9144 C.3       1 RES1    0.0000
      8 C5         3.1739   -4.1245   -1.0423 C.3       1 RES1    0.0000
      9 C6         5.5092   -3.4276   -0.4122 C.3       1 RES1    0.0000
     10 C7         4.3362   -2.3452   -2.3211 C.3       1 RES1    0.0000
     11 C8         4.8475   -1.6354    2.1945 C.3       1 RES1    0.0000
     12 O3         2.3958   -5.2320    2.0585 O.3       1 RES1    0.0000
     13 N2         1.1385   -4.6419    1.6710 N.2       1 RES1    0.0000
     14 C9         1.2283   -3.3622    1.7442 C.2       1 RES1    0.0000
     15 C10        2.5809   -2.9043    2.2993 C.3       1 RES1    0.0000
     16 C11        3.2891   -4.2583    2.3643 C.2       1 RES1    0.0000
     17 O4         4.4060   -4.5373    2.7118 O.2       1 RES1    0.0000
     18 C12       -0.0468   -2.5954    1.3860 C.3       1 RES1    0.0000
     19 C13       -0.3795   -1.5184    2.4213 C.3       1 RES1    0.0000
     20 C14        0.1114   -1.9608    0.0023 C.3       1 RES1    0.0000
     21 C15       -1.2294   -3.5779    1.3370 C.3       1 RES1    0.0000
     22 C16        2.3961   -2.5599    3.8108 C.3       1 RES1    0.0000
@<TRIPOS>BOND
     1    1    2 1
     2    2    3 2
     3    3    4 1
     4    4    5 1
     5    5    1 1
     6    6    5 2
     7    7    3 1
     8    8    7 1
     9    9    7 1
    10   10    7 1
    11   11    4 1
    12   12   13 1
    13   13   14 2
    14   14   15 1
    15   15    4 1
    16   16   12 1
    17   17   16 2
    18   18   14 1
    19   19   18 1
    20   20   18 1
    21   21   18 1
    22   22   15 1
    23   15   16 1
@<TRIPOS>SUBSTRUCTURE
     1 RES1 1

@<TRIPOS>CRYSIN
  10.2010   10.7380   15.4500  90.0000 108.1700  90.0000 231 1

