# MOL2 file generated by ConQuest
# Please check atom types

@<TRIPOS>MOLECULE
VUMLOE
    12    12     1
SMALL
NO_CHARGES
****
Generated from CSD

@<TRIPOS>ATOM
      1 O1         2.5940    2.1710    2.6051 O.3       1 RES1    0.0000
      2 N1         3.2042    0.8640    2.8985 N.2       1 RES1    0.0000
      3 C1         4.3244    0.7871    2.2852 C.2       1 RES1    0.0000
      4 C2         4.6946    2.0659    1.5604 C.3       1 RES1    0.0000
      5 O2         5.0038    1.8284    0.2106 O.3       1 RES1    0.0000
      6 C3         3.3823    2.8306    1.7325 C.2       1 RES1    0.0000
      7 O3         3.0436    3.8803    1.2495 O.2       1 RES1    0.0000
      8 C4         5.0798   -0.5286    2.3040 C.3       1 RES1    0.0000
      9 C5         4.4882   -1.4596    3.3704 C.3       1 RES1    0.0000
     10 C6         6.5700   -0.3043    2.5910 C.3       1 RES1    0.0000
     11 C7         4.9047   -1.1810    0.9216 C.3       1 RES1    0.0000
     12 C8         5.7714    2.8897    2.2793 C.3       1 RES1    0.0000
@<TRIPOS>BOND
     1    1    2 1
     2    2    3 2
     3    3    4 1
     4    4    5 1
     5    6    1 1
     6    7    6 2
     7    8    3 1
     8    9    8 1
     9   10    8 1
    10   11    8 1
    11   12    4 1
    12    4    6 1
@<TRIPOS>SUBSTRUCTURE
     1 RES1 1

@<TRIPOS>CRYSIN
   6.6640    8.2060    9.2030  67.7600  82.7600  72.5400   2 1

