# MOL2 file generated by ConQuest
# Please check atom types

@<TRIPOS>MOLECULE
VUMTUU
    40    43     1
SMALL
NO_CHARGES
****
Generated from CSD

@<TRIPOS>ATOM
      1 N1         0.3965    8.1624   -1.2446 N.pl3     1 RES1    0.0000
      2 O1        -0.3453    7.7051   -2.1106 O.2       1 RES1    0.0000
      3 O2         0.4347    9.3527   -0.9562 O.2       1 RES1    0.0000
      4 C1         2.9297    5.4983    0.9270 C.ar      1 RES1    0.0000
      5 C2         2.1297    5.0331   -0.1284 C.ar      1 RES1    0.0000
      6 H1         2.1467    4.1292   -0.3454 H         1 RES1    0.0000
      7 C3         1.2956    7.2315   -0.5197 C.ar      1 RES1    0.0000
      8 C4         2.0849    7.7454    0.5049 C.ar      1 RES1    0.0000
      9 H2         2.0726    8.6536    0.7041 H         1 RES1    0.0000
     10 C5         1.3078    5.8928   -0.8604 C.ar      1 RES1    0.0000
     11 H3         0.7825    5.5725   -1.5580 H         1 RES1    0.0000
     12 C6         2.8928    6.8695    1.2261 C.ar      1 RES1    0.0000
     13 H4         3.4184    7.1997    1.9193 H         1 RES1    0.0000
     14 C7         3.9166    4.8523    3.1904 C.ar      1 RES1    0.0000
     15 C8         4.8776    5.7011    3.7847 C.ar      1 RES1    0.0000
     16 C9         2.8986    4.3422    4.0128 C.ar      1 RES1    0.0000
     17 H5         2.2450    3.7974    3.6360 H         1 RES1    0.0000
     18 C10        2.8363    4.6262    5.3701 C.ar      1 RES1    0.0000
     19 H6         2.1604    4.2592    5.8928 H         1 RES1    0.0000
     20 C11        4.7867    6.0050    5.1588 C.ar      1 RES1    0.0000
     21 H7         5.4095    6.5805    5.5421 H         1 RES1    0.0000
     22 C12        3.7878    5.4611    5.9471 C.ar      1 RES1    0.0000
     23 H8         3.7531    5.6528    6.8569 H         1 RES1    0.0000
     24 C13        3.8147    4.5002    1.6944 C.3       1 RES1    0.0000
     25 H9         3.3210    3.6537    1.6682 H         1 RES1    0.0000
     26 C14        5.1424    4.2098    0.9408 C.3       1 RES1    0.0000
     27 H10        4.9305    3.8048    0.0740 H         1 RES1    0.0000
     28 C15        6.0290    6.3612    3.0521 C.2       1 RES1    0.0000
     29 C16        6.0407    5.4343    0.7070 C.3       1 RES1    0.0000
     30 H11        5.5085    6.2265    0.5323 H         1 RES1    0.0000
     31 H12        6.6398    5.2862   -0.0414 H         1 RES1    0.0000
     32 C17        6.0579    3.2388    1.7352 C.3       1 RES1    0.0000
     33 H13        5.5391    2.7377    2.3829 H         1 RES1    0.0000
     34 H14        6.4892    2.6130    1.1333 H         1 RES1    0.0000
     35 C18        7.1124    4.1151    2.4498 C.3       1 RES1    0.0000
     36 H15        8.0076    3.8524    2.1837 H         1 RES1    0.0000
     37 H16        7.0349    4.0193    3.4121 H         1 RES1    0.0000
     38 C19        6.8323    5.5816    2.0280 C.3       1 RES1    0.0000
     39 H17        7.6806    6.0416    1.8541 H         1 RES1    0.0000
     40 O3         6.3208    7.5148    3.3340 O.2       1 RES1    0.0000
@<TRIPOS>BOND
     1    1    2 2
     2    3    1 2
     3    4    5 ar
     4    5    6 1
     5    7    1 1
     6    8    7 ar
     7    9    8 1
     8   10    5 ar
     9   11   10 1
    10   12    4 ar
    11   13   12 1
    12   14   15 ar
    13   15   20 ar
    14   16   14 ar
    15   17   16 1
    16   18   16 ar
    17   19   18 1
    18   20   21 1
    19   22   18 ar
    20   23   22 1
    21   24    4 1
    22   25   24 1
    23   26   24 1
    24   27   26 1
    25   28   15 1
    26   29   26 1
    27   30   29 1
    28   31   29 1
    29   32   26 1
    30   33   32 1
    31   34   32 1
    32   35   32 1
    33   36   35 1
    34   37   35 1
    35   38   28 1
    36   39   38 1
    37   40   28 2
    38    7   10 ar
    39    8   12 ar
    40   14   24 1
    41   20   22 ar
    42   29   38 1
    43   35   38 1
@<TRIPOS>SUBSTRUCTURE
     1 RES1 1

@<TRIPOS>CRYSIN
  16.4700   10.5660    8.8540  90.0000  95.5600  90.0000  14 1

