# MOL2 file generated by ConQuest
# Please check atom types

@<TRIPOS>MOLECULE
VUMWOP
    52    53     1
SMALL
NO_CHARGES
****
Generated from CSD

@<TRIPOS>ATOM
      1 O1         0.3259   17.5248    6.0172 O.2       1 RES1    0.0000
      2 O2         0.4022   18.2246    8.1608 O.3       1 RES1    0.0000
      3 O3         3.4285   16.2650   11.3196 O.2       1 RES1    0.0000
      4 O4         4.2419   14.3012   10.9306 O.2       1 RES1    0.0000
      5 O5         3.9666   12.4477    6.4904 O.2       1 RES1    0.0000
      6 O6         3.2937   13.7255    4.8748 O.2       1 RES1    0.0000
      7 O7        -1.1738   19.4043   10.2102 O.3       1 RES1    0.0000
      8 N1         3.6354   15.3060   10.5930 N.pl3     1 RES1    0.0000
      9 N2         3.4473   13.4694    6.0663 N.pl3     1 RES1    0.0000
     10 C1         0.7475   17.4457    7.1411 C.2       1 RES1    0.0000
     11 C2         1.7335   16.4031    7.5780 C.ar      1 RES1    0.0000
     12 C3         2.2426   16.3764    8.8688 C.ar      1 RES1    0.0000
     13 C4         3.1138   15.3609    9.2157 C.ar      1 RES1    0.0000
     14 C5         3.5110   14.3879    8.3256 C.ar      1 RES1    0.0000
     15 C6         3.0073   14.4713    7.0488 C.ar      1 RES1    0.0000
     16 C7         2.1216   15.4463    6.6493 C.ar      1 RES1    0.0000
     17 C8        -0.5176   19.3359    7.9167 C.3       1 RES1    0.0000
     18 C9        -1.6743   19.1676    8.8933 C.3       1 RES1    0.0000
     19 C10       -2.3465   17.8173    8.7765 C.3       1 RES1    0.0000
     20 C11       -2.2117   19.5640   11.1783 C.3       1 RES1    0.0000
     21 C12       -1.5937   20.0114   12.4758 C.ar      1 RES1    0.0000
     22 C13       -0.7448   21.1187   12.4781 C.ar      1 RES1    0.0000
     23 C14       -0.1382   21.5304   13.6648 C.ar      1 RES1    0.0000
     24 C15       -0.3805   20.8348   14.8494 C.ar      1 RES1    0.0000
     25 C16       -1.2294   19.7278   14.8470 C.ar      1 RES1    0.0000
     26 C17       -1.8360   19.3161   13.6603 C.ar      1 RES1    0.0000
     27 C18        0.2827   20.6288    8.0616 C.3       1 RES1    0.0000
     28 C19       -0.6265   21.8523    7.9775 C.3       1 RES1    0.0000
     29 C20        1.3475   20.6857    7.0009 C.2       1 RES1    0.0000
     30 C21        2.6103   20.4560    7.1644 C.2       1 RES1    0.0000
     31 H1        -0.5711   21.6173   11.6289 H         1 RES1    0.0000
     32 H2         0.4700   22.3240   13.6665 H         1 RES1    0.0000
     33 H3         0.0540   21.1301   15.7002 H         1 RES1    0.0000
     34 H4        -1.4031   19.2292   15.6962 H         1 RES1    0.0000
     35 H5        -2.4442   18.5223   13.6587 H         1 RES1    0.0000
     36 H6         1.9750   17.0237    9.4973 H         1 RES1    0.0000
     37 H7         4.1115   13.7181    8.5627 H         1 RES1    0.0000
     38 H8         1.7862   15.4387    5.7708 H         1 RES1    0.0000
     39 H9        -0.8410   19.2801    6.9974 H         1 RES1    0.0000
     40 H10       -2.3451   19.8603    8.6795 H         1 RES1    0.0000
     41 H11       -2.5360   17.6128    7.8268 H         1 RES1    0.0000
     42 H12       -1.8026   17.1171    9.1702 H         1 RES1    0.0000
     43 H13       -3.1490   17.8062    9.2519 H         1 RES1    0.0000
     44 H14       -2.8917   20.2560   10.8056 H         1 RES1    0.0000
     45 H15       -2.6224   18.7021   11.3079 H         1 RES1    0.0000
     46 H16        0.7096   20.6094    8.9015 H         1 RES1    0.0000
     47 H17       -1.1832   21.7987    7.1726 H         1 RES1    0.0000
     48 H18       -0.1023   22.7324    7.9085 H         1 RES1    0.0000
     49 H19       -1.2432   21.9366    8.7613 H         1 RES1    0.0000
     50 H20        1.0441   20.8873    6.0862 H         1 RES1    0.0000
     51 H21        2.9635   20.2182    7.9786 H         1 RES1    0.0000
     52 H22        3.2708   20.5294    6.3899 H         1 RES1    0.0000
@<TRIPOS>BOND
     1    1   10 2
     2    2   10 1
     3    3    8 2
     4    4    8 2
     5    5    9 2
     6    6    9 2
     7    7   18 1
     8    8   13 1
     9    9   15 1
    10   10   11 1
    11   11   12 ar
    12   12   13 ar
    13   13   14 ar
    14   14   15 ar
    15   15   16 ar
    16   16   11 ar
    17   17    2 1
    18   18   17 1
    19   19   18 1
    20   20    7 1
    21   21   20 1
    22   22   21 ar
    23   23   22 ar
    24   24   23 ar
    25   25   24 ar
    26   26   21 ar
    27   27   17 1
    28   28   27 1
    29   29   27 1
    30   30   29 2
    31   31   22 1
    32   32   23 1
    33   33   24 1
    34   34   25 1
    35   35   26 1
    36   36   12 1
    37   37   14 1
    38   38   16 1
    39   39   17 1
    40   40   18 1
    41   41   19 1
    42   42   19 1
    43   43   19 1
    44   44   20 1
    45   45   20 1
    46   46   27 1
    47   47   28 1
    48   48   28 1
    49   49   28 1
    50   50   29 1
    51   51   30 1
    52   52   30 1
    53   25   26 ar
@<TRIPOS>SUBSTRUCTURE
     1 RES1 1

@<TRIPOS>CRYSIN
   7.9749   22.2300   11.8660  90.0000 100.1100  90.0000  14 1

