# MOL2 file generated by ConQuest
# Please check atom types

@<TRIPOS>MOLECULE
VUNFEP
    36    37     2
SMALL
NO_CHARGES
****
Generated from CSD

@<TRIPOS>ATOM
      1 O1         9.4037   -3.9998    0.5170 O.3       1 RES1    0.0000
      2 O2        10.0739   -0.9277    3.6873 O.3       1 RES1    0.0000
      3 O3         7.3646    0.0826    4.7719 O.2       1 RES1    0.0000
      4 N1         8.9872   -2.7863    1.1225 N.2       1 RES1    0.0000
      5 C1         9.3055   -2.7939    2.3553 C.2       1 RES1    0.0000
      6 C2        10.0344   -4.0316    2.8054 C.3       1 RES1    0.0000
      7 C3        11.5200   -3.8153    3.1278 C.3       1 RES1    0.0000
      8 C4        12.2019   -3.9868    1.7928 C.3       1 RES1    0.0000
      9 C5        11.4529   -5.1314    1.1536 C.3       1 RES1    0.0000
     10 C6        10.0140   -4.8681    1.5200 C.3       1 RES1    0.0000
     11 C7         8.9135   -1.6474    3.2509 C.3       1 RES1    0.0000
     12 C8         7.9067   -0.7155    2.5980 C.3       1 RES1    0.0000
     13 C9         7.1895    0.1832    3.5692 C.2       1 RES1    0.0000
     14 C10        6.2081    1.1799    3.0379 C.ar      1 RES1    0.0000
     15 C11        5.6739    2.1326    3.8952 C.ar      1 RES1    0.0000
     16 C12        4.7263    3.0413    3.4456 C.ar      1 RES1    0.0000
     17 C13        4.2912    2.9918    2.1438 C.ar      1 RES1    0.0000
     18 C14        4.8097    2.0570    1.2855 C.ar      1 RES1    0.0000
     19 C15        5.7698    1.1588    1.7167 C.ar      1 RES1    0.0000
     20 H1         9.5709   -4.4691    3.5258 H         1 RES1    0.0000
     21 H2        11.6701   -2.9402    3.4875 H         1 RES1    0.0000
     22 H3        11.8373   -4.4569    3.7649 H         1 RES1    0.0000
     23 H4        12.1418   -3.1930    1.2660 H         1 RES1    0.0000
     24 H5        13.1358   -4.1998    1.9021 H         1 RES1    0.0000
     25 H6        11.5798   -5.1306    0.1926 H         1 RES1    0.0000
     26 H7        11.7606   -5.9746    1.4817 H         1 RES1    0.0000
     27 H8         9.5136   -5.6867    1.6232 H         1 RES1    0.0000
     28 H9         8.4857   -2.0230    4.0332 H         1 RES1    0.0000
     29 H10        8.3722   -0.1736    1.9578 H         1 RES1    0.0000
     30 H11        7.2562   -1.2380    2.1218 H         1 RES1    0.0000
     31 H12        5.9534    2.1521    4.8123 H         1 RES1    0.0000
     32 H13        4.3939    3.6987    4.0556 H         1 RES1    0.0000
     33 H14        3.6197    3.6191    1.8245 H         1 RES1    0.0000
     34 H15        4.5043    2.0189    0.3673 H         1 RES1    0.0000
     35 H16        6.1521    0.5112    1.1020 H         1 RES1    0.0000
     36 H17       10.7578   -0.7639    2.8836 Du        2 SUP2    0.0000
@<TRIPOS>BOND
     1    1    4 1
     2    2   11 1
     3    3   13 2
     4    4    5 2
     5    5    6 1
     6    6    7 1
     7    7    8 1
     8    8    9 1
     9    9   10 1
    10   10    1 1
    11   11    5 1
    12   12   11 1
    13   13   12 1
    14   14   13 1
    15   15   14 ar
    16   16   15 ar
    17   17   16 ar
    18   18   17 ar
    19   19   14 ar
    20   20    6 1
    21   21    7 1
    22   22    7 1
    23   23    8 1
    24   24    8 1
    25   25    9 1
    26   26    9 1
    27   27   10 1
    28   28   11 1
    29   29   12 1
    30   30   12 1
    31   31   15 1
    32   32   16 1
    33   33   17 1
    34   34   18 1
    35   35   19 1
    36    6   10 1
    37   18   19 ar
@<TRIPOS>SUBSTRUCTURE
     1 RES1 1
     2 SUP2 36

@<TRIPOS>CRYSIN
  11.4900   11.5770    5.3494  97.3400 102.4900 107.5870   2 1

