# MOL2 file generated by ConQuest
# Please check atom types

@<TRIPOS>MOLECULE
VUNSII01
    66    68     2
SMALL
NO_CHARGES
****
Generated from CSD

@<TRIPOS>ATOM
      1 C1         3.1240    7.8061    8.2246 C.ar      1 RES1    0.0000
      2 C2         4.2121    8.1450    9.0194 C.ar      1 RES1    0.0000
      3 C3         5.1141    9.1117    8.5876 C.ar      1 RES1    0.0000
      4 H1         5.8425    9.3386    9.1189 H         1 RES1    0.0000
      5 C4         4.9267    9.7387    7.3615 C.ar      1 RES1    0.0000
      6 H2         5.5289   10.3843    7.0728 H         1 RES1    0.0000
      7 C5         3.8373    9.3989    6.5667 C.ar      1 RES1    0.0000
      8 H3         3.7125    9.8185    5.7453 H         1 RES1    0.0000
      9 C6         2.9366    8.4330    6.9983 C.ar      1 RES1    0.0000
     10 C7         1.0332    2.3429    9.0729 C.ar      1 RES1    0.0000
     11 H4         1.2395    1.4883    8.7658 H         1 RES1    0.0000
     12 C8         1.8076    3.4277    8.6786 C.ar      1 RES1    0.0000
     13 H5         2.5324    3.2995    8.1095 H         1 RES1    0.0000
     14 C9         1.5000    4.7037    9.1355 C.ar      1 RES1    0.0000
     15 C10        0.4181    4.8948    9.9868 C.ar      1 RES1    0.0000
     16 H6         0.2130    5.7486   10.2923 H         1 RES1    0.0000
     17 C11       -0.3564    3.8100   10.3810 C.ar      1 RES1    0.0000
     18 H7        -1.0799    3.9383   10.9511 H         1 RES1    0.0000
     19 C12       -0.0488    2.5341    9.9241 C.ar      1 RES1    0.0000
     20 H8        -0.5673    1.8077   10.1879 H         1 RES1    0.0000
     21 O1         1.1087    7.4467    9.2355 O.2       1 RES1    0.0000
     22 O2         1.8198    8.0244    6.3138 O.3       1 RES1    0.0000
     23 O3         4.2836    7.4714   10.2010 O.3       1 RES1    0.0000
     24 N1         2.4034    5.6747    8.6209 N.2       1 RES1    0.0000
     25 N2         2.1284    6.9073    8.7363 N.pl3     1 RES1    0.0000
     26 C13        5.3382    7.8027   11.0829 C.3       1 RES1    0.0000
     27 H9         6.1692    7.8027   10.6030 H         1 RES1    0.0000
     28 H10        5.3765    7.1570   11.7914 H         1 RES1    0.0000
     29 H11        5.1821    8.6751   11.4533 H         1 RES1    0.0000
     30 C14        1.4296    8.7804    5.1785 C.3       1 RES1    0.0000
     31 H12        1.3178    9.7004    5.4296 H         1 RES1    0.0000
     32 H13        0.5994    8.4398    4.8354 H         1 RES1    0.0000
     33 H14        2.1062    8.7133    4.4998 H         1 RES1    0.0000
     34 C15        4.0742    4.1693    4.0274 C.ar      2 RES2    0.0000
     35 C16        4.7631    5.1191    4.7730 C.ar      2 RES2    0.0000
     36 H15        4.3412    5.5489    5.4818 H         2 RES2    0.0000
     37 C17        6.0811    5.4266    4.4600 C.ar      2 RES2    0.0000
     38 H16        6.5421    6.0620    4.9572 H         2 RES2    0.0000
     39 C18        6.7114    4.7844    3.3984 C.ar      2 RES2    0.0000
     40 H17        7.5931    4.9900    3.1896 H         2 RES2    0.0000
     41 C19        6.0225    3.8346    2.6534 C.ar      2 RES2    0.0000
     42 C20        4.7033    3.5271    2.9676 C.ar      2 RES2    0.0000
     43 C21        3.2773    0.4528    1.6726 C.ar      2 RES2    0.0000
     44 C22        3.4197   -0.8215    2.2086 C.ar      2 RES2    0.0000
     45 H18        3.9210   -0.9472    2.9833 H         2 RES2    0.0000
     46 C23        2.8159   -1.9080    1.5881 C.ar      2 RES2    0.0000
     47 H19        2.9113   -2.7609    1.9466 H         2 RES2    0.0000
     48 C24        2.0671   -1.7211    0.4313 C.ar      2 RES2    0.0000
     49 H20        1.6637   -2.4483    0.0174 H         2 RES2    0.0000
     50 C25        1.9247   -0.4460   -0.1047 C.ar      2 RES2    0.0000
     51 H21        1.4247   -0.3211   -0.8776 H         2 RES2    0.0000
     52 C26        2.5298    0.6405    0.5159 C.ar      2 RES2    0.0000
     53 H22        2.4332    1.4934    0.1566 H         2 RES2    0.0000
     54 O4         3.3760    3.1805    1.1302 O.2       2 RES2    0.0000
     55 O5         6.5119    3.1499    1.5911 O.3       2 RES2    0.0000
     56 O6         2.7839    3.8058    4.2213 O.3       2 RES2    0.0000
     57 N3         3.9812    1.4229    2.4463 N.2       2 RES2    0.0000
     58 N4         3.9521    2.6453    2.1124 N.pl3     2 RES2    0.0000
     59 C27        7.8460    3.4362    1.1510 C.3       2 RES2    0.0000
     60 H23        7.8827    4.3274    0.7955 H         2 RES2    0.0000
     61 H24        8.1009    2.8093    0.4699 H         2 RES2    0.0000
     62 H25        8.4491    3.3632    1.8944 H         2 RES2    0.0000
     63 C28        1.9794    4.6017    5.1163 C.3       2 RES2    0.0000
     64 H26        1.9348    5.5031    4.7906 H         2 RES2    0.0000
     65 H27        2.3751    4.5966    5.9914 H         2 RES2    0.0000
     66 H28        1.0940    4.2339    5.1635 H         2 RES2    0.0000
@<TRIPOS>BOND
     1    1    2 ar
     2    2    3 ar
     3    3    4 1
     4    5    3 ar
     5    6    5 1
     6    7    5 ar
     7    8    7 1
     8    9    1 ar
     9   10   11 1
    10   12   10 ar
    11   13   12 1
    12   14   12 ar
    13   15   14 ar
    14   16   15 1
    15   17   15 ar
    16   18   17 1
    17   19   10 ar
    18   20   19 1
    19   21   25 1
    20   22    9 1
    21   23    2 1
    22   24   14 1
    23   25    1 1
    24   26   23 1
    25   27   26 1
    26   28   26 1
    27   29   26 1
    28   30   22 1
    29   31   30 1
    30   32   30 1
    31   33   30 1
    32   34   35 ar
    33   35   36 1
    34   37   35 ar
    35   38   37 1
    36   39   37 ar
    37   40   39 1
    38   41   39 ar
    39   42   34 ar
    40   43   44 ar
    41   44   45 1
    42   46   44 ar
    43   47   46 1
    44   48   46 ar
    45   49   48 1
    46   50   48 ar
    47   51   50 1
    48   52   43 ar
    49   53   52 1
    50   54   58 1
    51   55   41 1
    52   56   34 1
    53   57   43 1
    54   58   42 1
    55   59   55 1
    56   60   59 1
    57   61   59 1
    58   62   59 1
    59   63   56 1
    60   64   63 1
    61   65   63 1
    62   66   63 1
    63    7    9 ar
    64   17   19 ar
    65   24   25 2
    66   41   42 ar
    67   50   52 ar
    68   57   58 2
@<TRIPOS>SUBSTRUCTURE
     1 RES1 1
     2 RES2 34

@<TRIPOS>CRYSIN
  12.8200    8.4950   24.8640  90.0000  90.9480  90.0000  13 1

