# MOL2 file generated by ConQuest
# Please check atom types

@<TRIPOS>MOLECULE
VUNSII
    66    68     2
SMALL
USER_CHARGES
****
Generated from CSD

@<TRIPOS>ATOM
      1 O1        11.2865    3.1910   15.5892 O.2       1 RES1   -1.0000
      2 O2        10.5630    3.7639   18.5080 O.3       1 RES1    0.0000
      3 O3         8.1068    3.2204   14.6279 O.3       1 RES1    0.0000
      4 N1         9.9940    1.4241   16.2048 N.2       1 RES1    0.0000
      5 N2        10.2648    2.6531   16.0878 N.pl3     1 RES1    1.0000
      6 C1        10.5904   -0.8293   16.1173 C.ar      1 RES1    0.0000
      7 H1         9.8457   -0.9719   16.6550 H         1 RES1    0.0000
      8 C2        11.3760   -1.9039   15.7413 C.ar      1 RES1    0.0000
      9 H2        11.1666   -2.7578   16.0424 H         1 RES1    0.0000
     10 C3        12.4559   -1.7180   14.9302 C.ar      1 RES1    0.0000
     11 H3        12.9922   -2.4395   14.6906 H         1 RES1    0.0000
     12 C4        12.7467   -0.4550   14.4689 C.ar      1 RES1    0.0000
     13 H4        13.4672   -0.3353   13.8920 H         1 RES1    0.0000
     14 C5        11.9892    0.6426   14.8437 C.ar      1 RES1    0.0000
     15 H5        12.2011    1.4914   14.5294 H         1 RES1    0.0000
     16 C6        10.8987    0.4567   15.7036 C.ar      1 RES1    0.0000
     17 C7         9.2532    3.5701   16.6096 C.ar      1 RES1    0.0000
     18 C8         9.4589    4.1779   17.8339 C.ar      1 RES1    0.0000
     19 C9         8.5567    5.1422   18.2644 C.ar      1 RES1    0.0000
     20 H6         8.6687    5.5666   19.0857 H         1 RES1    0.0000
     21 C10        7.4928    5.4562   17.4479 C.ar      1 RES1    0.0000
     22 H7         6.8950    6.1107   17.7290 H         1 RES1    0.0000
     23 C11        7.2777    4.8485   16.2408 C.ar      1 RES1    0.0000
     24 H8         6.5403    5.0785   15.7224 H         1 RES1    0.0000
     25 C12        8.1713    3.8876   15.8018 C.ar      1 RES1    0.0000
     26 C13       10.9790    4.5132   19.6489 C.3       1 RES1    0.0000
     27 H9        11.1710    5.4163   19.3858 H         1 RES1    0.0000
     28 H10       11.7675    4.1142   20.0232 H         1 RES1    0.0000
     29 H11       10.2769    4.5132   20.3035 H         1 RES1    0.0000
     30 C14        7.0389    3.5268   13.7308 C.3       1 RES1    0.0000
     31 H12        7.1078    2.9717   12.9495 H         1 RES1    0.0000
     32 H13        7.0932    4.4504   13.4728 H         1 RES1    0.0000
     33 H14        6.1993    3.3647   14.1648 H         1 RES1    0.0000
     34 O4         9.2178    1.0692   11.2736 O.2       2 RES2   -1.0000
     35 O5         6.0821    1.1162   10.8388 O.3       2 RES2    0.0000
     36 O6         9.8184    0.4482    8.1851 O.3       2 RES2    0.0000
     37 N3         8.6179    2.8300    9.9573 N.2       2 RES2    0.0000
     38 N4         8.6384    1.6113   10.2966 N.pl3     2 RES2    1.0000
     39 C15        9.1858    5.0725   10.2118 C.ar      2 RES2    0.0000
     40 H15        8.6815    5.2092    9.4424 H         2 RES2    0.0000
     41 C16        9.7890    6.1421   10.8234 C.ar      2 RES2    0.0000
     42 H16        9.6955    6.9951   10.4643 H         2 RES2    0.0000
     43 C17       10.5265    5.9579   11.9591 C.ar      2 RES2    0.0000
     44 H17       10.9320    6.6836   12.3741 H         2 RES2    0.0000
     45 C18       10.6647    4.7059   12.4827 C.ar      2 RES2    0.0000
     46 H18       11.1673    4.5887   13.2570 H         2 RES2    0.0000
     47 C19       10.0755    3.6083   11.8874 C.ar      2 RES2    0.0000
     48 H19       10.1811    2.7604   12.2550 H         2 RES2    0.0000
     49 C20        9.3181    3.7874   10.7249 C.ar      2 RES2    0.0000
     50 C21        7.8783    0.7105    9.4421 C.ar      2 RES2    0.0000
     51 C22        6.5700    0.4337    9.7775 C.ar      2 RES2    0.0000
     52 C23        5.8840   -0.5203    9.0108 C.ar      2 RES2    0.0000
     53 H20        4.9981   -0.7283    9.1968 H         2 RES2    0.0000
     54 C24        6.5468   -1.1434    7.9773 C.ar      2 RES2    0.0000
     55 H21        6.0902   -1.7825    7.4805 H         2 RES2    0.0000
     56 C25        7.8394   -0.8683    7.6474 C.ar      2 RES2    0.0000
     57 H22        8.2487   -1.3089    6.9373 H         2 RES2    0.0000
     58 C26        8.5378    0.0815    8.3883 C.ar      2 RES2    0.0000
     59 C27        4.7521    0.8174   11.2927 C.3       2 RES2    0.0000
     60 H23        4.1261    0.9974   10.5883 H         2 RES2    0.0000
     61 H24        4.5432    1.3641   12.0541 H         2 RES2    0.0000
     62 H25        4.6989   -0.1086   11.5382 H         2 RES2    0.0000
     63 C28       10.6343   -0.3412    7.3096 C.3       2 RES2    0.0000
     64 H26       10.2384   -0.3607    6.4363 H         2 RES2    0.0000
     65 H27       10.6986   -1.2359    7.6516 H         2 RES2    0.0000
     66 H28       11.5114    0.0450    7.2548 H         2 RES2    0.0000
@<TRIPOS>BOND
     1    1    5 1
     2    2   18 1
     3    3   25 1
     4    4    5 2
     5    5   17 1
     6    6    7 1
     7    8    6 ar
     8    9    8 1
     9   10    8 ar
    10   11   10 1
    11   12   10 ar
    12   13   12 1
    13   14   12 ar
    14   15   14 1
    15   16    4 1
    16   17   18 ar
    17   18   19 ar
    18   19   20 1
    19   21   19 ar
    20   22   21 1
    21   23   21 ar
    22   24   23 1
    23   25   17 ar
    24   26    2 1
    25   27   26 1
    26   28   26 1
    27   29   26 1
    28   30    3 1
    29   31   30 1
    30   32   30 1
    31   33   30 1
    32   34   38 1
    33   35   51 1
    34   36   58 1
    35   37   38 2
    36   38   50 1
    37   39   40 1
    38   41   39 ar
    39   42   41 1
    40   43   41 ar
    41   44   43 1
    42   45   43 ar
    43   46   45 1
    44   47   45 ar
    45   48   47 1
    46   49   37 1
    47   50   51 ar
    48   51   52 ar
    49   52   53 1
    50   54   52 ar
    51   55   54 1
    52   56   54 ar
    53   57   56 1
    54   58   50 ar
    55   59   35 1
    56   60   59 1
    57   61   59 1
    58   62   59 1
    59   63   36 1
    60   64   63 1
    61   65   63 1
    62   66   63 1
    63    6   16 ar
    64   14   16 ar
    65   23   25 ar
    66   39   49 ar
    67   47   49 ar
    68   56   58 ar
@<TRIPOS>SUBSTRUCTURE
     1 RES1 1
     2 RES2 34

@<TRIPOS>CRYSIN
  12.8276    8.4882   24.8068  90.0000  91.0440  90.0000  13 1

