# MOL2 file generated by ConQuest
# Please check atom types

@<TRIPOS>MOLECULE
VUNWAC
    63    65     1
SMALL
NO_CHARGES
****
Generated from CSD

@<TRIPOS>ATOM
      1 O1        -2.6671    9.0065    3.8887 O.3       1 RES1    0.0000
      2 O2         2.1669    7.3482    1.9318 O.2       1 RES1    0.0000
      3 O3         1.9930    8.7275    3.6460 O.3       1 RES1    0.0000
      4 O4        -1.4004    5.8555    8.0854 O.2       1 RES1    0.0000
      5 O5        -0.1091    7.6017    7.7607 O.3       1 RES1    0.0000
      6 N1         0.1899    4.4559    4.3557 N.pl3     1 RES1    0.0000
      7 N2        -2.0641   10.0156    4.6554 N.2       1 RES1    0.0000
      8 C1         0.3205    7.1927    5.1191 C.3       1 RES1    0.0000
      9 C2         1.0259    6.6297    3.8920 C.2       1 RES1    0.0000
     10 C3         1.7626    7.5595    3.0467 C.2       1 RES1    0.0000
     11 C4         2.7197    9.7232    2.8876 C.3       1 RES1    0.0000
     12 C5         3.0425   10.8372    3.6861 C.3       1 RES1    0.0000
     13 C6         0.9171    5.3129    3.5572 C.2       1 RES1    0.0000
     14 C7         1.5214    4.6401    2.3704 C.3       1 RES1    0.0000
     15 C8        -0.3150    4.8058    5.5928 C.2       1 RES1    0.0000
     16 C9        -0.9275    3.6496    6.3126 C.3       1 RES1    0.0000
     17 C10       -0.2221    6.0854    6.0164 C.2       1 RES1    0.0000
     18 C11       -0.6550    6.4607    7.3740 C.2       1 RES1    0.0000
     19 C12       -0.3820    8.0835    9.1132 C.3       1 RES1    0.0000
     20 C13        0.8157    8.1748    9.8347 C.3       1 RES1    0.0000
     21 C14       -0.8102    8.1342    4.7391 C.2       1 RES1    0.0000
     22 C15       -1.8912    7.8975    3.9557 C.2       1 RES1    0.0000
     23 C16       -2.3869    6.7261    3.1772 C.3       1 RES1    0.0000
     24 C17       -3.6073    6.1192    3.8535 C.3       1 RES1    0.0000
     25 C18       -2.6239    7.1064    1.7041 C.3       1 RES1    0.0000
     26 C19       -1.9550    5.1135    0.3214 C.ar      1 RES1    0.0000
     27 C20       -2.2709    4.0079   -0.4687 C.ar      1 RES1    0.0000
     28 C21       -3.6041    3.7155   -0.7566 C.ar      1 RES1    0.0000
     29 C22       -4.6210    4.5269   -0.2528 C.ar      1 RES1    0.0000
     30 C23       -4.3051    5.6307    0.5374 C.ar      1 RES1    0.0000
     31 C24       -2.9719    5.9249    0.8253 C.ar      1 RES1    0.0000
     32 C25       -0.9761    9.4950    5.1576 C.2       1 RES1    0.0000
     33 C26       -0.0907   10.3199    6.0097 C.3       1 RES1    0.0000
     34 H1         2.1760   10.0139    2.1511 H         1 RES1    0.0000
     35 H2         3.5295    9.3327    2.5528 H         1 RES1    0.0000
     36 H3         3.5055   11.4880    3.1538 H         1 RES1    0.0000
     37 H4         3.6047   10.5582    4.4110 H         1 RES1    0.0000
     38 H5         2.2361   11.2243    4.0360 H         1 RES1    0.0000
     39 H6         2.0114    5.2825    1.8531 H         1 RES1    0.0000
     40 H7         0.8261    4.2581    1.8297 H         1 RES1    0.0000
     41 H8         2.1162    3.9454    2.6633 H         1 RES1    0.0000
     42 H9        -1.2597    3.9420    7.1647 H         1 RES1    0.0000
     43 H10       -0.2655    2.9667    6.4449 H         1 RES1    0.0000
     44 H11       -1.6525    3.2946    5.7920 H         1 RES1    0.0000
     45 H12       -0.9757    7.4716    9.5552 H         1 RES1    0.0000
     46 H13       -0.7933    8.9490    9.0664 H         1 RES1    0.0000
     47 H14        0.6295    8.4706   10.7287 H         1 RES1    0.0000
     48 H15        1.4014    8.8019    9.4062 H         1 RES1    0.0000
     49 H16        1.2377    7.3127    9.8649 H         1 RES1    0.0000
     50 H17       -1.7129    6.0432    3.1655 H         1 RES1    0.0000
     51 H18       -3.9078    5.3586    3.3497 H         1 RES1    0.0000
     52 H19       -4.3091    6.7734    3.8954 H         1 RES1    0.0000
     53 H20       -3.3752    5.8420    4.7424 H         1 RES1    0.0000
     54 H21       -1.8255    7.5155    1.3643 H         1 RES1    0.0000
     55 H22       -3.3478    7.7370    1.6673 H         1 RES1    0.0000
     56 H23       -1.0371    5.3146    0.5189 H         1 RES1    0.0000
     57 H24       -1.5714    3.4501   -0.8152 H         1 RES1    0.0000
     58 H25       -3.8225    2.9548   -1.3007 H         1 RES1    0.0000
     59 H26       -5.5389    4.3240   -0.4503 H         1 RES1    0.0000
     60 H27       -5.0046    6.1902    0.8839 H         1 RES1    0.0000
     61 H28        0.6693    9.7992    6.2808 H         1 RES1    0.0000
     62 H29       -0.5738   10.6106    6.7864 H         1 RES1    0.0000
     63 H30        0.2078   11.0873    5.5142 H         1 RES1    0.0000
@<TRIPOS>BOND
     1    1    7 1
     2    2   10 2
     3    3   10 1
     4    4   18 2
     5    5   18 1
     6    6   13 1
     7    7   32 2
     8    8    9 1
     9    9   10 1
    10   11    3 1
    11   12   11 1
    12   13    9 2
    13   14   13 1
    14   15    6 1
    15   16   15 1
    16   17    8 1
    17   18   17 1
    18   19    5 1
    19   20   19 1
    20   21    8 1
    21   22    1 1
    22   23   22 1
    23   24   23 1
    24   25   23 1
    25   26   27 ar
    26   27   28 ar
    27   28   29 ar
    28   29   30 ar
    29   30   31 ar
    30   31   25 1
    31   32   21 1
    32   33   32 1
    33   34   11 1
    34   35   11 1
    35   36   12 1
    36   37   12 1
    37   38   12 1
    38   39   14 1
    39   40   14 1
    40   41   14 1
    41   42   16 1
    42   43   16 1
    43   44   16 1
    44   45   19 1
    45   46   19 1
    46   47   20 1
    47   48   20 1
    48   49   20 1
    49   50   23 1
    50   51   24 1
    51   52   24 1
    52   53   24 1
    53   54   25 1
    54   55   25 1
    55   56   26 1
    56   57   27 1
    57   58   28 1
    58   59   29 1
    59   60   30 1
    60   61   33 1
    61   62   33 1
    62   63   33 1
    63   15   17 2
    64   21   22 2
    65   26   31 ar
@<TRIPOS>SUBSTRUCTURE
     1 RES1 1

@<TRIPOS>CRYSIN
   9.0670   16.9040   17.2970  90.0000 104.5800  90.0000  14 1

