# MOL2 file generated by ConQuest
# Please check atom types

@<TRIPOS>MOLECULE
VUPTIK
    35    35     1
SMALL
NO_CHARGES
****
Generated from CSD

@<TRIPOS>ATOM
      1 O1         2.9855    5.5642    3.9701 O.2       1 RES1    0.0000
      2 O2         7.0851    3.5567    1.1661 O.2       1 RES1    0.0000
      3 O3         8.4950    6.6035    2.1721 O.3       1 RES1    0.0000
      4 N1         4.0533    5.7506    3.3040 N.3       1 RES1    0.0000
      5 N2         8.3758    5.3193    1.6370 N.am      1 RES1    0.0000
      6 C1         4.9507    4.6347    2.9310 C.3       1 RES1    0.0000
      7 C2         5.9988    5.4122    2.1642 C.2       1 RES1    0.0000
      8 C3         5.6718    6.6890    2.0183 C.2       1 RES1    0.0000
      9 C4         4.3540    7.0336    2.6374 C.3       1 RES1    0.0000
     10 C5         4.1674    3.6280    2.0984 C.3       1 RES1    0.0000
     11 C6         5.4997    3.9843    4.1937 C.3       1 RES1    0.0000
     12 C7         4.4600    8.1459    3.6693 C.3       1 RES1    0.0000
     13 C8         3.2817    7.3491    1.6045 C.3       1 RES1    0.0000
     14 C9         7.1839    4.6946    1.6166 C.2       1 RES1    0.0000
     15 C10        9.5948    4.8029    1.0605 C.3       1 RES1    0.0000
     16 C11        8.8169    6.5218    3.5667 C.3       1 RES1    0.0000
     17 H1         6.1715    7.3702    1.6037 H         1 RES1    0.0000
     18 H2         3.3965    3.3211    2.6126 H         1 RES1    0.0000
     19 H3         3.8503    4.0131    1.2659 H         1 RES1    0.0000
     20 H4         4.7299    2.8606    1.9117 H         1 RES1    0.0000
     21 H5         6.0118    4.6215    4.7239 H         1 RES1    0.0000
     22 H6         4.7515    3.6388    4.7090 H         1 RES1    0.0000
     23 H7         6.1137    3.2298    3.9444 H         1 RES1    0.0000
     24 H8         3.6248    8.2397    4.1334 H         1 RES1    0.0000
     25 H9         5.1530    7.9323    4.3203 H         1 RES1    0.0000
     26 H10        4.7001    9.0102    3.2413 H         1 RES1    0.0000
     27 H11        3.2152    6.6422    0.9601 H         1 RES1    0.0000
     28 H12        2.3924    7.4577    2.0327 H         1 RES1    0.0000
     29 H13        3.5138    8.1690    1.1470 H         1 RES1    0.0000
     30 H14        9.9189    5.4035    0.3951 H         1 RES1    0.0000
     31 H15       10.2689    4.7205    1.7587 H         1 RES1    0.0000
     32 H16        9.4065    3.9552    0.6818 H         1 RES1    0.0000
     33 H17        8.9194    7.4667    3.8318 H         1 RES1    0.0000
     34 H18        8.0687    6.1187    4.0655 H         1 RES1    0.0000
     35 H19        9.6537    6.0274    3.6980 H         1 RES1    0.0000
@<TRIPOS>BOND
     1    1    4 1
     2    2   14 2
     3    3    5 1
     4    4    6 1
     5    5   14 1
     6    6    7 1
     7    7    8 2
     8    8    9 1
     9    9    4 1
    10   10    6 1
    11   11    6 1
    12   12    9 1
    13   13    9 1
    14   14    7 1
    15   15    5 1
    16   16    3 1
    17   17    8 1
    18   18   10 1
    19   19   10 1
    20   20   10 1
    21   21   11 1
    22   22   11 1
    23   23   11 1
    24   24   12 1
    25   25   12 1
    26   26   12 1
    27   27   13 1
    28   28   13 1
    29   29   13 1
    30   30   15 1
    31   31   15 1
    32   32   15 1
    33   33   16 1
    34   34   16 1
    35   35   16 1
@<TRIPOS>SUBSTRUCTURE
     1 RES1 1

@<TRIPOS>CRYSIN
   9.0213   12.8625   21.2406  90.0000  90.0000  90.0000  61 1

