# MOL2 file generated by ConQuest
# Please check atom types

@<TRIPOS>MOLECULE
VUQVOU
    88    92     2
SMALL
NO_CHARGES
****
Generated from CSD

@<TRIPOS>ATOM
      1 O1        13.5343    4.7826    2.8491 O.2       1 RES1    0.0000
      2 O2        13.0499    4.8938    5.2895 O.3       1 RES1    0.0000
      3 C1        11.9530    8.8727    2.9257 C.ar      1 RES1    0.0000
      4 O3        11.7815   10.9603    5.2354 O.2       1 RES1    0.0000
      5 C2         9.8988    9.9694    1.4058 C.ar      1 RES1    0.0000
      6 H1         9.2099   10.3347    0.8982 H         1 RES1    0.0000
      7 C3         9.6698    8.8700    2.1858 C.ar      1 RES1    0.0000
      8 H2         8.8206    8.4921    2.2093 H         1 RES1    0.0000
      9 C4        10.6808    8.3167    2.9361 C.ar      1 RES1    0.0000
     10 H3        10.5110    7.5636    3.4546 H         1 RES1    0.0000
     11 C5        13.0638    8.3502    3.8121 C.3       1 RES1    0.0000
     12 H4        13.9087    8.6323    3.4019 H         1 RES1    0.0000
     13 C6        13.0228    8.9695    5.1996 C.3       1 RES1    0.0000
     14 H5        13.9736    8.9152    5.4289 H         1 RES1    0.0000
     15 C7        12.5192    8.3963    6.2393 C.3       1 RES1    0.0000
     16 H6        11.5717    8.3872    5.9933 H         1 RES1    0.0000
     17 C8        12.4375    9.0816    7.5970 C.ar      1 RES1    0.0000
     18 C9        11.2655    9.0680    8.2831 C.ar      1 RES1    0.0000
     19 H7        10.5205    8.6621    7.9040 H         1 RES1    0.0000
     20 C10       11.1595    9.6412    9.5281 C.ar      1 RES1    0.0000
     21 H8        10.3443    9.6195    9.9772 H         1 RES1    0.0000
     22 C11       12.2412   10.2461   10.1171 C.ar      1 RES1    0.0000
     23 H9        12.1631   10.6312   10.9611 H         1 RES1    0.0000
     24 C12       12.1879    9.9875    2.1257 C.ar      1 RES1    0.0000
     25 H10       13.0375   10.3645    2.0951 H         1 RES1    0.0000
     26 C13       11.1595   10.5372    1.3728 C.ar      1 RES1    0.0000
     27 H11       11.3164   11.2876    0.8477 H         1 RES1    0.0000
     28 C14       13.1188    6.8349    3.9327 C.2       1 RES1    0.0000
     29 C15       13.4918    6.0285    2.7828 C.2       1 RES1    0.0000
     30 C16       13.8809    6.6803    1.5057 C.3       1 RES1    0.0000
     31 H12       13.9989    6.0104    0.8280 H         1 RES1    0.0000
     32 H13       14.7030    7.1595    1.6296 H         1 RES1    0.0000
     33 H14       13.1915    7.2915    1.2342 H         1 RES1    0.0000
     34 C17       12.9732    6.2147    5.1331 C.2       1 RES1    0.0000
     35 C18       12.7639    6.9199    6.4207 C.3       1 RES1    0.0000
     36 H15       13.5441    6.7933    6.9816 H         1 RES1    0.0000
     37 H16       12.0029    6.5266    6.8762 H         1 RES1    0.0000
     38 N1        12.8851   10.4567    5.0688 N.pl3     1 RES1    0.0000
     39 O4        13.8726   11.0796    4.7479 O.2       1 RES1    0.0000
     40 C19       13.4428   10.2777    9.4479 C.ar      1 RES1    0.0000
     41 H17       14.1836   10.6909    9.8300 H         1 RES1    0.0000
     42 C20       13.5390    9.6810    8.1917 C.ar      1 RES1    0.0000
     43 H18       14.3539    9.6846    7.7437 H         1 RES1    0.0000
     44 H19       13.1954    4.5476    4.3704 H         1 RES1    0.0000
     45 O5         8.5007    2.9663   16.8483 O.2       2 RES2    0.0000
     46 O6        10.3241    2.7159   17.9798 O.2       2 RES2    0.0000
     47 O7        10.0965    8.9885   19.7229 O.2       2 RES2    0.0000
     48 N2         9.5369    3.3958   17.3317 N.pl3     2 RES2    0.0000
     49 C21        9.6712    7.6477   17.3429 C.2       2 RES2    0.0000
     50 O8         9.8172    8.9686   17.2226 O.3       2 RES2    0.0000
     51 C22        9.8005    3.8523   12.1731 C.ar      2 RES2    0.0000
     52 H20        9.9304    3.5024   11.3212 H         2 RES2    0.0000
     53 C23        8.5549    4.2664   12.5728 C.ar      2 RES2    0.0000
     54 H21        7.8402    4.2058   11.9801 H         2 RES2    0.0000
     55 C24        8.3455    4.7718   13.8440 C.ar      2 RES2    0.0000
     56 H22        7.4944    5.0466   14.0972 H         2 RES2    0.0000
     57 C25        9.3845    4.8703   14.7339 C.ar      2 RES2    0.0000
     58 C26        9.1241    5.4996   16.0995 C.3       2 RES2    0.0000
     59 H23        8.1639    5.4643   16.2868 H         2 RES2    0.0000
     60 C27        9.8652    4.8676   17.2386 C.3       2 RES2    0.0000
     61 H24       10.8253    4.9580   17.0686 H         2 RES2    0.0000
     62 C28        9.5584    5.4869   18.6108 C.3       2 RES2    0.0000
     63 H25       10.2611    5.1714   19.2165 H         2 RES2    0.0000
     64 C29        8.2382    5.0367   19.2237 C.ar      2 RES2    0.0000
     65 C30        8.2201    3.9536   20.0934 C.ar      2 RES2    0.0000
     66 H26        9.0177    3.5305   20.3168 H         2 RES2    0.0000
     67 C31        7.0335    3.4979   20.6279 C.ar      2 RES2    0.0000
     68 H27        7.0350    2.7710   21.2084 H         2 RES2    0.0000
     69 C32        5.8502    4.1172   20.3045 C.ar      2 RES2    0.0000
     70 H28        5.0488    3.8153   20.6681 H         2 RES2    0.0000
     71 C33       10.6451    4.4743   14.3278 C.ar      2 RES2    0.0000
     72 H29       11.3611    4.5521   14.9164 H         2 RES2    0.0000
     73 C34       10.8568    3.9626   13.0545 C.ar      2 RES2    0.0000
     74 H30       11.7099    3.6950   12.7949 H         2 RES2    0.0000
     75 C35        9.7101    7.0004   18.5379 C.2       2 RES2    0.0000
     76 C36        9.5658    6.9823   16.0215 C.3       2 RES2    0.0000
     77 H31       10.4289    7.0284   15.5774 H         2 RES2    0.0000
     78 H32        8.9293    7.4696   15.4764 H         2 RES2    0.0000
     79 C37        9.9972    7.7453   19.7354 C.2       2 RES2    0.0000
     80 C38       10.2269    7.0266   21.0266 C.3       2 RES2    0.0000
     81 H33       10.3239    7.6667   21.7355 H         2 RES2    0.0000
     82 H34       11.0278    6.4995   20.9602 H         2 RES2    0.0000
     83 H35        9.4796    6.4543   21.2128 H         2 RES2    0.0000
     84 C39        7.0424    5.6515   18.9035 C.ar      2 RES2    0.0000
     85 H36        7.0388    6.3793   18.3248 H         2 RES2    0.0000
     86 C40        5.8591    5.1949   19.4326 C.ar      2 RES2    0.0000
     87 H37        5.0593    5.6117   19.2055 H         2 RES2    0.0000
     88 H38        9.8821    9.2850   18.1403 H         2 RES2    0.0000
@<TRIPOS>BOND
     1    1   29 2
     2    2   34 1
     3    3    9 ar
     4    4   38 2
     5    5    6 1
     6    7    5 ar
     7    8    7 1
     8    9    7 ar
     9   10    9 1
    10   11    3 1
    11   12   11 1
    12   13   11 1
    13   14   13 1
    14   15   13 1
    15   16   15 1
    16   17   15 1
    17   18   17 ar
    18   19   18 1
    19   20   18 ar
    20   21   20 1
    21   22   20 ar
    22   23   22 1
    23   24    3 ar
    24   25   24 1
    25   26    5 ar
    26   27   26 1
    27   28   11 1
    28   29   28 1
    29   30   29 1
    30   31   30 1
    31   32   30 1
    32   33   30 1
    33   34   28 2
    34   35   15 1
    35   36   35 1
    36   37   35 1
    37   38   13 1
    38   39   38 2
    39   40   22 ar
    40   41   40 1
    41   42   17 ar
    42   43   42 1
    43   44    2 1
    44   45   48 2
    45   46   48 2
    46   47   79 2
    47   48   60 1
    48   49   50 1
    49   50   88 1
    50   51   52 1
    51   53   51 ar
    52   54   53 1
    53   55   53 ar
    54   56   55 1
    55   57   55 ar
    56   58   57 1
    57   59   58 1
    58   60   58 1
    59   61   60 1
    60   62   60 1
    61   63   62 1
    62   64   62 1
    63   65   64 ar
    64   66   65 1
    65   67   65 ar
    66   68   67 1
    67   69   67 ar
    68   70   69 1
    69   71   57 ar
    70   72   71 1
    71   73   51 ar
    72   74   73 1
    73   75   49 2
    74   76   49 1
    75   77   76 1
    76   78   76 1
    77   79   75 1
    78   80   79 1
    79   81   80 1
    80   82   80 1
    81   83   80 1
    82   84   64 ar
    83   85   84 1
    84   86   69 ar
    85   87   86 1
    86   24   26 ar
    87   34   35 1
    88   40   42 ar
    89   58   76 1
    90   62   75 1
    91   71   73 ar
    92   84   86 ar
@<TRIPOS>SUBSTRUCTURE
     1 RES1 1
     2 RES2 45

@<TRIPOS>CRYSIN
  16.4820    9.0409   22.9016  90.0000 106.4720  90.0000 231 1

