# MOL2 file generated by ConQuest
# Please check atom types

@<TRIPOS>MOLECULE
VURCUI
    21    21     1
SMALL
NO_CHARGES
****
Generated from CSD

@<TRIPOS>ATOM
      1 C1         1.2944    3.0322    7.0862 C.ar      1 RES1    0.0000
      2 C2         0.5539    2.1016    6.3545 C.ar      1 RES1    0.0000
      3 H1        -0.3549    1.9393    6.5788 H         1 RES1    0.0000
      4 C3         1.1373    1.4144    5.3038 C.ar      1 RES1    0.0000
      5 H2         0.6289    0.7747    4.8189 H         1 RES1    0.0000
      6 C4         2.4634    1.6530    4.9533 C.ar      1 RES1    0.0000
      7 H3         2.8619    1.1757    4.2347 H         1 RES1    0.0000
      8 C5         3.1981    2.5910    5.6580 C.ar      1 RES1    0.0000
      9 H4         4.0967    2.7723    5.4104 H         1 RES1    0.0000
     10 C6         2.6235    3.2672    6.7268 C.ar      1 RES1    0.0000
     11 H5         3.1401    3.8953    7.2173 H         1 RES1    0.0000
     12 C7         0.6755    3.8139    8.1886 C.2       1 RES1    0.0000
     13 C8         1.5490    4.1695    9.3151 C.2       1 RES1    0.0000
     14 H6         2.3739    3.7084    9.4102 H         1 RES1    0.0000
     15 N1         1.2528    5.0686   10.1722 N.2       1 RES1    0.0000
     16 N2        -0.5728    4.1117    8.0366 N.2       1 RES1    0.0000
     17 N3        -1.2268    4.8272    9.0348 N.3       1 RES1    0.0000
     18 O1         2.2498    5.1690   11.1390 O.3       1 RES1    0.0000
     19 H7        -0.7334    5.4067    9.4704 H         1 RES1    0.0000
     20 H8        -1.9592    5.1847    8.6646 H         1 RES1    0.0000
     21 H9         1.9727    5.8461   11.7103 H         1 RES1    0.0000
@<TRIPOS>BOND
     1    1    2 ar
     2    2    3 1
     3    4    2 ar
     4    5    4 1
     5    6    4 ar
     6    7    6 1
     7    8    6 ar
     8    9    8 1
     9   10    1 ar
    10   11   10 1
    11   12    1 1
    12   13   12 1
    13   14   13 1
    14   15   13 2
    15   16   12 2
    16   17   16 1
    17   18   15 1
    18   19   17 1
    19   20   17 1
    20   21   18 1
    21    8   10 ar
@<TRIPOS>SUBSTRUCTURE
     1 RES1 1

@<TRIPOS>CRYSIN
  11.8878    4.6251   15.1482  90.0000 104.3090  90.0000 231 1

