# MOL2 file generated by ConQuest
# Please check atom types

@<TRIPOS>MOLECULE
VURDAP
    42    42     2
SMALL
NO_CHARGES
****
Generated from CSD

@<TRIPOS>ATOM
      1 C1         2.9650    3.8903    4.0306 C.ar      1 RES1    0.0000
      2 C2         2.4739    3.8654    5.3368 C.ar      1 RES1    0.0000
      3 H1         3.0534    4.0703    6.0605 H         1 RES1    0.0000
      4 C3         1.1423    3.5433    5.5902 C.ar      1 RES1    0.0000
      5 H2         0.8185    3.5332    6.4830 H         1 RES1    0.0000
      6 C4         0.2893    3.2381    4.5422 C.ar      1 RES1    0.0000
      7 H3        -0.6204    3.0243    4.7144 H         1 RES1    0.0000
      8 C5         0.7676    3.2453    3.2431 C.ar      1 RES1    0.0000
      9 H4         0.1858    3.0288    2.5232 H         1 RES1    0.0000
     10 C6         2.0970    3.5679    2.9867 C.ar      1 RES1    0.0000
     11 H5         2.4165    3.5681    2.0919 H         1 RES1    0.0000
     12 C7         4.3949    4.2350    3.7592 C.2       1 RES1    0.0000
     13 C8         5.2300    3.3192    2.9891 C.2       1 RES1    0.0000
     14 H6         6.0954    3.5944    2.7109 H         1 RES1    0.0000
     15 N1         5.0003    5.3135    4.1383 N.2       1 RES1    0.0000
     16 N2         4.3022    6.2956    4.7662 N.3       1 RES1    0.0000
     17 N3         4.8123    2.1539    2.6844 N.2       1 RES1    0.0000
     18 O1         5.7507    1.4437    1.9123 O.3       1 RES1    0.0000
     19 H7         5.4794    0.6568    1.7961 H         1 RES1    0.0000
     20 H8         3.4726    6.1548    5.0602 H         1 RES1    0.0000
     21 H9         4.7914    6.9613    5.1447 H         1 RES1    0.0000
     22 C9         8.4963    7.3922    1.1056 C.ar      2 RES2    0.0000
     23 C10        8.8352    8.2923    0.0969 C.ar      2 RES2    0.0000
     24 H10        8.1526    8.7622   -0.3675 H         2 RES2    0.0000
     25 C11       10.1736    8.5051   -0.2322 C.ar      2 RES2    0.0000
     26 H11       10.3999    9.1079   -0.9305 H         2 RES2    0.0000
     27 C12       11.1764    7.8357    0.4601 C.ar      2 RES2    0.0000
     28 H12       12.0880    7.9833    0.2368 H         2 RES2    0.0000
     29 C13       10.8438    6.9497    1.4795 C.ar      2 RES2    0.0000
     30 H13       11.5294    6.5008    1.9602 H         2 RES2    0.0000
     31 C14        9.5075    6.7200    1.7959 C.ar      2 RES2    0.0000
     32 H14        9.2827    6.1041    2.4839 H         2 RES2    0.0000
     33 C15        7.0562    7.1099    1.3959 C.2       2 RES2    0.0000
     34 C16        6.2377    8.1041    2.0745 C.2       2 RES2    0.0000
     35 H15        5.3483    7.8915    2.3326 H         2 RES2    0.0000
     36 N4         6.4536    6.0215    1.0491 N.2       2 RES2    0.0000
     37 N5         7.1953    5.0210    0.4804 N.3       2 RES2    0.0000
     38 N6         6.7139    9.2602    2.3229 N.2       2 RES2    0.0000
     39 O2         5.7898   10.0714    2.9937 O.3       2 RES2    0.0000
     40 H16        6.1196   10.8351    3.1098 H         2 RES2    0.0000
     41 H17        6.7179    4.4617   -0.0314 H         2 RES2    0.0000
     42 H18        8.0112    5.2722    0.1287 H         2 RES2    0.0000
@<TRIPOS>BOND
     1    1    2 ar
     2    2    3 1
     3    4    2 ar
     4    5    4 1
     5    6    4 ar
     6    7    6 1
     7    8    6 ar
     8    9    8 1
     9   10    1 ar
    10   11   10 1
    11   12    1 1
    12   13   12 1
    13   14   13 1
    14   15   12 2
    15   16   15 1
    16   17   13 2
    17   18   17 1
    18   19   18 1
    19   20   16 1
    20   21   16 1
    21   22   23 ar
    22   23   24 1
    23   25   23 ar
    24   26   25 1
    25   27   25 ar
    26   28   27 1
    27   29   27 ar
    28   30   29 1
    29   31   22 ar
    30   32   31 1
    31   33   22 1
    32   34   33 1
    33   35   34 1
    34   36   33 2
    35   37   36 1
    36   38   34 2
    37   39   38 1
    38   40   39 1
    39   41   37 1
    40   42   37 1
    41    8   10 ar
    42   29   31 ar
@<TRIPOS>SUBSTRUCTURE
     1 RES1 1
     2 RES2 22

@<TRIPOS>CRYSIN
   8.2989   10.3062   10.3246  72.1660  86.1990  73.2900   2 1

