# MOL2 file generated by ConQuest
# Please check atom types

@<TRIPOS>MOLECULE
VURTIN
    47    50     1
SMALL
NO_CHARGES
****
Generated from CSD

@<TRIPOS>ATOM
      1 O1         6.2642    3.4585   11.5483 O.3       1 RES1    0.0000
      2 N1         5.0044    3.0785   12.1021 N.2       1 RES1    0.0000
      3 C1         3.4726    1.0944   11.7964 C.3       1 RES1    0.0000
      4 C2         4.7444    1.9008   11.6988 C.2       1 RES1    0.0000
      5 C3         5.7121    1.3004   10.7334 C.3       1 RES1    0.0000
      6 C4         6.7095    2.4545   10.5497 C.3       1 RES1    0.0000
      7 C5         4.7334    0.7963    9.6618 C.3       1 RES1    0.0000
      8 C6         3.5794    0.2196   10.4994 C.3       1 RES1    0.0000
      9 C7         6.8115    3.1191    9.1897 C.3       1 RES1    0.0000
     10 C8         7.3371    2.1292    8.1513 C.3       1 RES1    0.0000
     11 C9         7.7569    4.3222    9.2565 C.3       1 RES1    0.0000
     12 H1         6.1607    0.5348   11.1499 H         1 RES1    0.0000
     13 H2         7.6031    2.1434   10.8070 H         1 RES1    0.0000
     14 H3         4.4252    1.5336    9.1131 H         1 RES1    0.0000
     15 H4         5.1367    0.1187    9.0973 H         1 RES1    0.0000
     16 H5         2.7529    0.2556    9.9939 H         1 RES1    0.0000
     17 H6         3.7794   -0.7025   10.7252 H         1 RES1    0.0000
     18 H7         5.9217    3.4261    8.9180 H         1 RES1    0.0000
     19 H8         6.7364    1.3825    8.0939 H         1 RES1    0.0000
     20 H9         8.2062    1.8193    8.4147 H         1 RES1    0.0000
     21 H10        7.3965    2.5578    7.2949 H         1 RES1    0.0000
     22 H11        8.6305    4.0282    9.5236 H         1 RES1    0.0000
     23 H12        7.8094    4.7348    8.3911 H         1 RES1    0.0000
     24 H13        7.4253    4.9585    9.8948 H         1 RES1    0.0000
     25 O1A        0.6810    3.4585   12.0444 O.3       1 RES1    0.0000
     26 N1A        1.9407    3.0785   11.4906 N.2       1 RES1    0.0000
     27 C2A        2.2008    1.9008   11.8939 C.2       1 RES1    0.0000
     28 C3A        1.2331    1.3004   12.8593 C.3       1 RES1    0.0000
     29 C4A        0.2357    2.4545   13.0430 C.3       1 RES1    0.0000
     30 C5A        2.2118    0.7963   13.9309 C.3       1 RES1    0.0000
     31 C6A        3.3658    0.2196   13.0933 C.3       1 RES1    0.0000
     32 C7A        0.1336    3.1191   14.4030 C.3       1 RES1    0.0000
     33 C8A       -0.3919    2.1292   15.4414 C.3       1 RES1    0.0000
     34 C9A       -0.8117    4.3222   14.3362 C.3       1 RES1    0.0000
     35 H1A        0.7845    0.5348   12.4428 H         1 RES1    0.0000
     36 H2A       -0.6580    2.1434   12.7857 H         1 RES1    0.0000
     37 H3A        2.5200    1.5336   14.4796 H         1 RES1    0.0000
     38 H4A        1.8085    0.1187   14.4954 H         1 RES1    0.0000
     39 H5A        4.1923    0.2556   13.5988 H         1 RES1    0.0000
     40 H6A        3.1658   -0.7025   12.8675 H         1 RES1    0.0000
     41 H7A        1.0235    3.4261   14.6747 H         1 RES1    0.0000
     42 H8A        0.2088    1.3825   15.4988 H         1 RES1    0.0000
     43 H9A       -1.2610    1.8193   15.1780 H         1 RES1    0.0000
     44 H10A      -0.4513    2.5578   16.2978 H         1 RES1    0.0000
     45 H11A      -1.6853    4.0282   14.0691 H         1 RES1    0.0000
     46 H12A      -0.8642    4.7348   15.2016 H         1 RES1    0.0000
     47 H13A      -0.4801    4.9585   13.6979 H         1 RES1    0.0000
@<TRIPOS>BOND
     1    1    2 1
     2    2    4 2
     3    3    4 1
     4    4    5 1
     5    5    6 1
     6    6    1 1
     7    7    5 1
     8    8    3 1
     9    9    6 1
    10   10    9 1
    11   11    9 1
    12   12    5 1
    13   13    6 1
    14   14    7 1
    15   15    7 1
    16   16    8 1
    17   17    8 1
    18   18    9 1
    19   19   10 1
    20   20   10 1
    21   21   10 1
    22   22   11 1
    23   23   11 1
    24   24   11 1
    25   25   26 1
    26   26   27 2
    27   27    3 1
    28   28   27 1
    29   29   25 1
    30   30   28 1
    31   31    3 1
    32   32   29 1
    33   33   32 1
    34   34   32 1
    35   35   28 1
    36   36   29 1
    37   37   30 1
    38   38   30 1
    39   39   31 1
    40   40   31 1
    41   41   32 1
    42   42   33 1
    43   43   33 1
    44   44   33 1
    45   45   34 1
    46   46   34 1
    47   47   34 1
    48    7    8 1
    49   28   29 1
    50   30   31 1
@<TRIPOS>SUBSTRUCTURE
     1 RES1 1

@<TRIPOS>CRYSIN
  16.5900    5.9030   16.9920  90.0000 112.2350  90.0000  15 1

