# MOL2 file generated by ConQuest
# Please check atom types

@<TRIPOS>MOLECULE
VURTEJ
    47    50     1
SMALL
NO_CHARGES
****
Generated from CSD

@<TRIPOS>ATOM
      1 O1         5.2225    3.8394    6.8235 O.3       1 RES1    0.0000
      2 O2         3.4185    9.3228    6.5817 O.3       1 RES1    0.0000
      3 N1         5.4822    5.2347    6.5278 N.2       1 RES1    0.0000
      4 N2         3.7191    7.9175    6.3864 N.2       1 RES1    0.0000
      5 C1         4.9328    6.7019    4.5292 C.3       1 RES1    0.0000
      6 C2         5.1067    5.4316    5.3295 C.2       1 RES1    0.0000
      7 C3         4.5195    4.2347    4.6339 C.3       1 RES1    0.0000
      8 C4         4.2247    3.3739    5.8498 C.3       1 RES1    0.0000
      9 C5         3.4308    4.8896    3.7800 C.3       1 RES1    0.0000
     10 C6         4.1286    6.1695    3.2899 C.3       1 RES1    0.0000
     11 C7         4.1979    7.8203    5.2097 C.2       1 RES1    0.0000
     12 C8         4.3660    9.1097    4.4492 C.3       1 RES1    0.0000
     13 C9         4.2380   10.0777    5.6265 C.3       1 RES1    0.0000
     14 C10        5.7075    8.8930    3.7034 C.3       1 RES1    0.0000
     15 C11        6.2144    7.4921    4.1416 C.3       1 RES1    0.0000
     16 C12        4.3505    1.8747    5.6871 C.3       1 RES1    0.0000
     17 C13        3.4257    1.4006    4.5692 C.3       1 RES1    0.0000
     18 C14        4.0366    1.1530    7.0053 C.3       1 RES1    0.0000
     19 C15        3.5792   11.4143    5.3417 C.3       1 RES1    0.0000
     20 C16        4.4452   12.2029    4.3611 C.3       1 RES1    0.0000
     21 C17        3.3347   12.1981    6.6314 C.3       1 RES1    0.0000
     22 H1         5.1899    3.8023    4.0641 H         1 RES1    0.0000
     23 H2         3.3271    3.5851    6.1818 H         1 RES1    0.0000
     24 H3         2.6491    5.0921    4.3181 H         1 RES1    0.0000
     25 H4         3.1769    4.3149    3.0416 H         1 RES1    0.0000
     26 H5         3.4662    6.8164    3.0020 H         1 RES1    0.0000
     27 H6         4.7198    5.9612    2.5497 H         1 RES1    0.0000
     28 H7         3.6304    9.2398    3.8154 H         1 RES1    0.0000
     29 H8         5.1260   10.2315    6.0114 H         1 RES1    0.0000
     30 H9         5.5678    8.9195    2.7437 H         1 RES1    0.0000
     31 H10        6.3456    9.5769    3.9569 H         1 RES1    0.0000
     32 H11        6.6730    7.0476    3.4124 H         1 RES1    0.0000
     33 H12        6.8104    7.5629    4.9032 H         1 RES1    0.0000
     34 H13        5.2740    1.6686    5.4316 H         1 RES1    0.0000
     35 H14        3.6773    1.8218    3.7436 H         1 RES1    0.0000
     36 H15        2.5223    1.6407    4.7885 H         1 RES1    0.0000
     37 H16        3.4875    0.4485    4.4735 H         1 RES1    0.0000
     38 H17        3.1380    1.3622    7.2707 H         1 RES1    0.0000
     39 H18        4.6468    1.4457    7.6865 H         1 RES1    0.0000
     40 H19        4.1221    0.2033    6.8838 H         1 RES1    0.0000
     41 H20        2.7122   11.2455    4.9172 H         1 RES1    0.0000
     42 H21        4.5049   11.7302    3.5282 H         1 RES1    0.0000
     43 H22        4.0546   13.0672    4.2109 H         1 RES1    0.0000
     44 H23        5.3244   12.3096    4.7317 H         1 RES1    0.0000
     45 H24        2.8228   12.9865    6.4369 H         1 RES1    0.0000
     46 H25        4.1793   12.4516    7.0113 H         1 RES1    0.0000
     47 H26        2.8536   11.6522    7.2578 H         1 RES1    0.0000
@<TRIPOS>BOND
     1    1    3 1
     2    2    4 1
     3    3    6 2
     4    4   11 2
     5    5    6 1
     6    6    7 1
     7    7    8 1
     8    8    1 1
     9    9    7 1
    10   10    5 1
    11   11    5 1
    12   12   11 1
    13   13    2 1
    14   14   12 1
    15   15    5 1
    16   16    8 1
    17   17   16 1
    18   18   16 1
    19   19   13 1
    20   20   19 1
    21   21   19 1
    22   22    7 1
    23   23    8 1
    24   24    9 1
    25   25    9 1
    26   26   10 1
    27   27   10 1
    28   28   12 1
    29   29   13 1
    30   30   14 1
    31   31   14 1
    32   32   15 1
    33   33   15 1
    34   34   16 1
    35   35   17 1
    36   36   17 1
    37   37   17 1
    38   38   18 1
    39   39   18 1
    40   40   18 1
    41   41   19 1
    42   42   20 1
    43   43   20 1
    44   44   20 1
    45   45   21 1
    46   46   21 1
    47   47   21 1
    48    9   10 1
    49   12   13 1
    50   14   15 1
@<TRIPOS>SUBSTRUCTURE
     1 RES1 1

@<TRIPOS>CRYSIN
   5.4657   27.8560   10.7470  90.0000  94.2510  90.0000 231 1

