# MOL2 file generated by ConQuest
# Please check atom types

@<TRIPOS>MOLECULE
VUSCOD
    34    34     1
SMALL
NO_CHARGES
****
Generated from CSD

@<TRIPOS>ATOM
      1 C1         3.7823    7.5581    2.0668 C.ar      1 RES1    0.0000
      2 C2         4.1639    6.2958    1.6318 C.ar      1 RES1    0.0000
      3 C3         5.4907    6.0031    1.4042 C.ar      1 RES1    0.0000
      4 C4         6.4521    6.9638    1.6235 C.ar      1 RES1    0.0000
      5 C5         6.0877    8.2041    2.0718 C.ar      1 RES1    0.0000
      6 C6         4.7720    8.5031    2.2911 C.ar      1 RES1    0.0000
      7 C7         1.5380    6.3690    4.8877 C.3       1 RES1    0.0000
      8 C8         1.7509    7.7997    5.3174 C.3       1 RES1    0.0000
      9 C9         2.8304    5.5741    4.8901 C.3       1 RES1    0.0000
     10 C10        0.5529    5.6914    5.8290 C.3       1 RES1    0.0000
     11 N1         0.8185    6.5115    1.2254 N.2       1 RES1    0.0000
     12 C11        2.3590    7.8994    2.2480 C.2       1 RES1    0.0000
     13 N2         2.0366    9.1402    2.1746 N.2       1 RES1    0.0000
     14 C12        1.3160    6.8270    2.3715 C.2       1 RES1    0.0000
     15 N3         0.9308    6.2977    3.5477 N.pl3     1 RES1    0.0000
     16 O1        -0.1733    5.4826    1.3737 O.3       1 RES1    0.0000
     17 O2         0.6719    9.3352    2.3757 O.3       1 RES1    0.0000
     18 H1         4.5311    9.3995    2.6425 H         1 RES1    0.0000
     19 H2         5.6992    5.1098    1.1273 H         1 RES1    0.0000
     20 H3         3.5443    5.6523    1.4562 H         1 RES1    0.0000
     21 H4         6.7610    8.8255    2.2490 H         1 RES1    0.0000
     22 H5         7.3413    6.7248    1.4759 H         1 RES1    0.0000
     23 H6         0.2321    5.8037    3.4297 H         1 RES1    0.0000
     24 H7         0.4869   10.1313    2.0381 H         1 RES1    0.0000
     25 H8        -0.5111    5.4883    0.5763 H         1 RES1    0.0000
     26 H9         3.1525    5.5829    5.7629 H         1 RES1    0.0000
     27 H10        0.9780    5.6523    6.7469 H         1 RES1    0.0000
     28 H11        3.5819    6.2012    4.4276 H         1 RES1    0.0000
     29 H12        2.0546    7.8035    6.2408 H         1 RES1    0.0000
     30 H13        2.5951    8.1694    4.8212 H         1 RES1    0.0000
     31 H14       -0.3516    6.1065    5.8473 H         1 RES1    0.0000
     32 H15        0.4362    4.7818    5.5380 H         1 RES1    0.0000
     33 H16        0.9365    8.1820    5.1585 H         1 RES1    0.0000
     34 H17        2.8184    4.6304    4.5963 H         1 RES1    0.0000
@<TRIPOS>BOND
     1    1    2 ar
     2    2    3 ar
     3    3    4 ar
     4    4    5 ar
     5    5    6 ar
     6    6    1 ar
     7    7    8 1
     8    8   29 1
     9    9    7 1
    10   10    7 1
    11   11   14 2
    12   12    1 1
    13   13   12 2
    14   14   12 1
    15   15    7 1
    16   16   11 1
    17   17   13 1
    18   18    6 1
    19   19    3 1
    20   20    2 1
    21   21    5 1
    22   22    4 1
    23   23   15 1
    24   24   17 1
    25   25   16 1
    26   26    9 1
    27   27   10 1
    28   28    9 1
    29   30    8 1
    30   31   10 1
    31   32   10 1
    32   33    8 1
    33   34    9 1
    34   14   15 1
@<TRIPOS>SUBSTRUCTURE
     1 RES1 1

@<TRIPOS>CRYSIN
  14.6250    6.3084   14.5880  90.0000 105.5220  90.0000  14 1

