# MOL2 file generated by ConQuest
# Please check atom types

@<TRIPOS>MOLECULE
VUSQUX
   104   112     2
SMALL
NO_CHARGES
****
Generated from CSD

@<TRIPOS>ATOM
      1 O1         4.9101    5.5858    2.4125 O.3       1 RES1    0.0000
      2 O2         3.7462    5.5422    4.7537 O.3       1 RES1    0.0000
      3 O3         8.1534    4.8241    6.3310 O.2       1 RES1    0.0000
      4 O4         8.7182    5.2724    8.3694 O.2       1 RES1    0.0000
      5 N1        -1.0713    3.3402    1.7395 N.pl3     1 RES1    0.0000
      6 N2         7.8823    5.1536    7.4868 N.pl3     1 RES1    0.0000
      7 C1         2.9579    5.2055    3.6884 C.ar      1 RES1    0.0000
      8 C2         3.6082    5.1681    2.4350 C.ar      1 RES1    0.0000
      9 C3         2.9145    4.7183    1.3313 C.ar      1 RES1    0.0000
     10 H1         3.3618    4.6584    0.4960 H         1 RES1    0.0000
     11 C4         1.5614    4.3455    1.4148 C.ar      1 RES1    0.0000
     12 C5         0.8463    3.8200    0.1788 C.3       1 RES1    0.0000
     13 C6         1.7094    2.8172   -0.6265 C.3       1 RES1    0.0000
     14 H2         2.3707    3.3238   -1.1611 H         1 RES1    0.0000
     15 H3         2.2103    2.2457    0.0083 H         1 RES1    0.0000
     16 C7         0.9093    1.9279   -1.5557 C.2       1 RES1    0.0000
     17 H4         1.3167    1.6239   -2.3587 H         1 RES1    0.0000
     18 C8        -0.3486    1.5523   -1.2923 C.2       1 RES1    0.0000
     19 H5        -0.8120    0.9626   -1.8760 H         1 RES1    0.0000
     20 C9        -0.9917    2.0679   -0.0906 C.2       1 RES1    0.0000
     21 C10       -2.1636    1.7302    0.6506 C.2       1 RES1    0.0000
     22 H6        -2.8138    1.0808    0.4114 H         1 RES1    0.0000
     23 C11       -2.1754    2.5182    1.7744 C.2       1 RES1    0.0000
     24 H7        -2.8335    2.4996    2.4599 H         1 RES1    0.0000
     25 C12       -0.5851    4.2302    2.7872 C.3       1 RES1    0.0000
     26 H8        -0.7546    3.8221    3.6725 H         1 RES1    0.0000
     27 H9        -1.0758    5.0888    2.7452 H         1 RES1    0.0000
     28 C13        0.9041    4.4887    2.6248 C.ar      1 RES1    0.0000
     29 C14        1.6145    4.9113    3.7609 C.ar      1 RES1    0.0000
     30 H10        1.1612    4.9952    4.5914 H         1 RES1    0.0000
     31 C15       -0.3724    3.0693    0.6093 C.2       1 RES1    0.0000
     32 C16        3.1298    5.5400    6.0422 C.3       1 RES1    0.0000
     33 H11        2.5991    4.7128    6.1623 H         1 RES1    0.0000
     34 H12        2.5201    6.3163    6.1274 H         1 RES1    0.0000
     35 C17        4.2039    5.6154    7.0865 C.ar      1 RES1    0.0000
     36 C18        3.8442    5.8915    8.4081 C.ar      1 RES1    0.0000
     37 H13        2.9338    6.0610    8.6205 H         1 RES1    0.0000
     38 C19        4.8014    5.9206    9.4166 C.ar      1 RES1    0.0000
     39 H14        4.5371    6.1031   10.3108 H         1 RES1    0.0000
     40 C20        6.1404    5.6869    9.1311 C.ar      1 RES1    0.0000
     41 H15        6.8029    5.7107    9.8115 H         1 RES1    0.0000
     42 C21        6.4708    5.4176    7.8097 C.ar      1 RES1    0.0000
     43 C22        5.5387    5.3565    6.7881 C.ar      1 RES1    0.0000
     44 H16        5.8038    5.1418    5.9018 H         1 RES1    0.0000
     45 C23        5.4512    5.8233    1.1117 C.3       1 RES1    0.0000
     46 H17        5.5512    4.9707    0.6386 H         1 RES1    0.0000
     47 H18        6.3275    6.2552    1.1960 H         1 RES1    0.0000
     48 H19        4.8468    6.4072    0.6088 H         1 RES1    0.0000
     49 C24        0.4267    4.9973   -0.7303 C.3       1 RES1    0.0000
     50 H20       -0.1954    5.5790   -0.2455 H         1 RES1    0.0000
     51 H21       -0.0117    4.6489   -1.5343 H         1 RES1    0.0000
     52 H22        1.2211    5.5111   -0.9870 H         1 RES1    0.0000
     53 O5         0.2066    8.2901    8.7811 O.3       2 RES2    0.0000
     54 O6        -0.8440    8.0789    6.3884 O.3       2 RES2    0.0000
     55 O7        -4.1992    9.2478   10.3962 O.2       2 RES2    0.0000
     56 O8        -4.8404    8.3390   12.2466 O.2       2 RES2    0.0000
     57 N3         5.2076   10.2133    5.8607 N.pl3     2 RES2    0.0000
     58 N4        -3.9692    8.6835   11.4636 N.pl3     2 RES2    0.0000
     59 C25        1.0426    8.5601    7.7258 C.ar      2 RES2    0.0000
     60 C26        0.4478    8.5212    6.4466 C.ar      2 RES2    0.0000
     61 C27        1.1893    8.9362    5.3526 C.ar      2 RES2    0.0000
     62 H23        0.7742    8.9720    4.4985 H         2 RES2    0.0000
     63 C28        2.5397    9.3059    5.4737 C.ar      2 RES2    0.0000
     64 C29        3.3060    9.8021    4.2537 C.3       2 RES2    0.0000
     65 C30        2.5231   10.8450    3.4325 C.3       2 RES2    0.0000
     66 H24        1.8328   10.3786    2.8978 H         2 RES2    0.0000
     67 H25        2.0585   11.4594    4.0557 H         2 RES2    0.0000
     68 C31        3.3941   11.6612    2.4997 C.2       2 RES2    0.0000
     69 H26        3.0151   11.9889    1.6919 H         2 RES2    0.0000
     70 C32        4.6730   11.9386    2.7660 C.2       2 RES2    0.0000
     71 H27        5.1848   12.4736    2.1713 H         2 RES2    0.0000
     72 C33        5.2669   11.4075    3.9790 C.2       2 RES2    0.0000
     73 C34        6.4464   11.6851    4.7424 C.2       2 RES2    0.0000
     74 H28        7.1504   12.2727    4.4936 H         2 RES2    0.0000
     75 C35        6.3732   10.9486    5.8967 C.2       2 RES2    0.0000
     76 H29        7.0131   10.9462    6.5985 H         2 RES2    0.0000
     77 C36        4.6392    9.3982    6.9263 C.3       2 RES2    0.0000
     78 H30        4.7937    9.8396    7.7978 H         2 RES2    0.0000
     79 H31        5.0896    8.5172    6.9435 H         2 RES2    0.0000
     80 C37        3.1480    9.2009    6.7156 C.ar      2 RES2    0.0000
     81 C38        2.3812    8.8485    7.8363 C.ar      2 RES2    0.0000
     82 H32        2.7964    8.8091    8.6902 H         2 RES2    0.0000
     83 C39        4.5534   10.4850    4.7057 C.2       2 RES2    0.0000
     84 C40        0.7995    8.2957   10.0764 C.3       2 RES2    0.0000
     85 H33        1.3223    9.1268   10.2047 H         2 RES2    0.0000
     86 H34        1.4130    7.5247   10.1715 H         2 RES2    0.0000
     87 C41       -0.2979    8.2111   11.1098 C.ar      2 RES2    0.0000
     88 C42        0.0368    7.8745   12.4221 C.ar      2 RES2    0.0000
     89 H35        0.9431    7.6930   12.6414 H         2 RES2    0.0000
     90 C43       -0.9328    7.7999   13.4150 C.ar      2 RES2    0.0000
     91 H36       -0.6862    7.5776   14.3051 H         2 RES2    0.0000
     92 C44       -2.2622    8.0506   13.1050 C.ar      2 RES2    0.0000
     93 H37       -2.9416    7.9849   13.7660 H         2 RES2    0.0000
     94 C45       -2.5642    8.3994   11.8035 C.ar      2 RES2    0.0000
     95 C46       -1.6221    8.4980   10.7988 C.ar      2 RES2    0.0000
     96 H38       -1.8722    8.7548    9.9193 H         2 RES2    0.0000
     97 C47       -1.3698    7.8621    5.0763 C.3       2 RES2    0.0000
     98 H39       -0.7657    7.2762    4.5748 H         2 RES2    0.0000
     99 H40       -1.4525    8.7208    4.6113 H         2 RES2    0.0000
    100 H41       -2.2524    7.4405    5.1438 H         2 RES2    0.0000
    101 C48        3.6876    8.6126    3.3379 C.3       2 RES2    0.0000
    102 H42        4.1896    8.9435    2.5644 H         2 RES2    0.0000
    103 H43        2.8724    8.1642    3.0305 H         2 RES2    0.0000
    104 H44        4.2403    7.9781    3.8400 H         2 RES2    0.0000
@<TRIPOS>BOND
     1    1    8 1
     2    2    7 1
     3    3    6 2
     4    4    6 2
     5    5   23 1
     6    6   42 1
     7    7    8 ar
     8    8    9 ar
     9    9   10 1
    10   11    9 ar
    11   12   11 1
    12   13   12 1
    13   14   13 1
    14   15   13 1
    15   16   13 1
    16   17   16 1
    17   18   16 2
    18   19   18 1
    19   20   18 1
    20   21   20 1
    21   22   21 1
    22   23   21 2
    23   24   23 1
    24   25    5 1
    25   26   25 1
    26   27   25 1
    27   28   11 ar
    28   29    7 ar
    29   30   29 1
    30   31    5 1
    31   32    2 1
    32   33   32 1
    33   34   32 1
    34   35   32 1
    35   36   35 ar
    36   37   36 1
    37   38   36 ar
    38   39   38 1
    39   40   38 ar
    40   41   40 1
    41   42   40 ar
    42   43   35 ar
    43   44   43 1
    44   45    1 1
    45   46   45 1
    46   47   45 1
    47   48   45 1
    48   49   12 1
    49   50   49 1
    50   51   49 1
    51   52   49 1
    52   53   59 1
    53   54   60 1
    54   55   58 2
    55   56   58 2
    56   57   75 1
    57   58   94 1
    58   59   60 ar
    59   60   61 ar
    60   61   62 1
    61   63   61 ar
    62   64   63 1
    63   65   64 1
    64   66   65 1
    65   67   65 1
    66   68   65 1
    67   69   68 1
    68   70   68 2
    69   71   70 1
    70   72   70 1
    71   73   72 1
    72   74   73 1
    73   75   73 2
    74   76   75 1
    75   77   57 1
    76   78   77 1
    77   79   77 1
    78   80   63 ar
    79   81   59 ar
    80   82   81 1
    81   83   57 1
    82   84   53 1
    83   85   84 1
    84   86   84 1
    85   87   84 1
    86   88   87 ar
    87   89   88 1
    88   90   88 ar
    89   91   90 1
    90   92   90 ar
    91   93   92 1
    92   94   92 ar
    93   95   87 ar
    94   96   95 1
    95   97   54 1
    96   98   97 1
    97   99   97 1
    98  100   97 1
    99  101   64 1
   100  102  101 1
   101  103  101 1
   102  104  101 1
   103   12   31 1
   104   20   31 2
   105   25   28 1
   106   28   29 ar
   107   42   43 ar
   108   64   83 1
   109   72   83 2
   110   77   80 1
   111   80   81 ar
   112   94   95 ar
@<TRIPOS>SUBSTRUCTURE
     1 RES1 1
     2 RES2 53

@<TRIPOS>CRYSIN
   8.6140   13.5775   16.5880  90.0000  90.4300  90.0000   4 1

