# MOL2 file generated by ConQuest
# Please check atom types

@<TRIPOS>MOLECULE
VUTMEC
    28    29     1
SMALL
NO_CHARGES
****
Generated from CSD

@<TRIPOS>ATOM
      1 C1         9.5338    0.0279    1.1173 C.2       1 RES1    0.0000
      2 O1         8.6767   -0.9870    1.4574 O.3       1 RES1    0.0000
      3 N1         7.3549   -0.4715    1.4039 N.2       1 RES1    0.0000
      4 C2         7.4714    0.7722    1.0382 C.2       1 RES1    0.0000
      5 C3         8.8414    1.1449    0.8368 C.2       1 RES1    0.0000
      6 C4         6.2514    1.6196    0.8507 C.3       1 RES1    0.0000
      7 C5         9.3329    2.4809    0.3363 C.3       1 RES1    0.0000
      8 C6         9.2726    3.5474    1.4225 C.3       1 RES1    0.0000
      9 C7         9.7855    4.8373    0.9507 C.1       1 RES1    0.0000
     10 N2        10.1886    5.8275    0.5834 N.1       1 RES1    0.0000
     11 C8        10.9520   -0.3666    1.0762 C.ar      1 RES1    0.0000
     12 C9        11.2962   -1.6615    0.6865 C.ar      1 RES1    0.0000
     13 C10       12.6313   -2.0288    0.5881 C.ar      1 RES1    0.0000
     14 C11       13.6210   -1.1298    0.8856 C.ar      1 RES1    0.0000
     15 C12       13.2969    0.1622    1.3063 C.ar      1 RES1    0.0000
     16 C13       11.9564    0.5510    1.4047 C.ar      1 RES1    0.0000
     17 H1         5.5309    1.2566    0.9840 H         1 RES1    0.0000
     18 H2         6.2139    1.9654   -0.0775 H         1 RES1    0.0000
     19 H3         6.2942    2.3950    1.4644 H         1 RES1    0.0000
     20 H4        10.2047    2.4595   -0.0542 H         1 RES1    0.0000
     21 H5         8.8253    2.7602   -0.4261 H         1 RES1    0.0000
     22 H6         9.7896    3.2113    2.2159 H         1 RES1    0.0000
     23 H7         8.4236    3.6301    1.7510 H         1 RES1    0.0000
     24 H8        10.6734   -2.2876    0.4571 H         1 RES1    0.0000
     25 H9        12.8295   -2.9642    0.3332 H         1 RES1    0.0000
     26 H10       14.5571   -1.3640    0.8290 H         1 RES1    0.0000
     27 H11       13.9946    0.9129    1.5341 H         1 RES1    0.0000
     28 H12       11.6912    1.5358    1.8595 H         1 RES1    0.0000
@<TRIPOS>BOND
     1    1    2 1
     2    2    3 1
     3    3    4 2
     4    4    5 1
     5    5    1 2
     6    6    4 1
     7    7    5 1
     8    8    7 1
     9    9    8 1
    10   10    9 3
    11   11    1 1
    12   12   11 ar
    13   13   12 ar
    14   14   13 ar
    15   15   14 ar
    16   16   11 ar
    17   17    6 1
    18   18    6 1
    19   19    6 1
    20   20    7 1
    21   21    7 1
    22   22    8 1
    23   23    8 1
    24   24   12 1
    25   25   13 1
    26   26   14 1
    27   27   15 1
    28   28   16 1
    29   15   16 ar
@<TRIPOS>SUBSTRUCTURE
     1 RES1 1

@<TRIPOS>CRYSIN
  13.3920   10.7400    7.7480  90.0000  90.0000  90.0000  19 1

