# MOL2 file generated by ConQuest
# Please check atom types

@<TRIPOS>MOLECULE
VUWCAT
    45    48     1
SMALL
NO_CHARGES
****
Generated from CSD

@<TRIPOS>ATOM
      1 O1         1.6335    6.7718   10.5028 O.2       1 RES1    0.0000
      2 C1         2.0499    5.6565   10.8019 C.2       1 RES1    0.0000
      3 C2         1.2504    4.7281   11.6538 C.3       1 RES1    0.0000
      4 H1         0.5726    4.2831   11.0866 H         1 RES1    0.0000
      5 H2         0.7673    5.2602   12.3343 H         1 RES1    0.0000
      6 C3         2.0683    3.6599   12.3621 C.3       1 RES1    0.0000
      7 H3         2.6049    4.0805   13.0797 H         1 RES1    0.0000
      8 H4         1.4581    3.0033   12.7811 H         1 RES1    0.0000
      9 C4         2.9923    2.9430   11.3991 C.3       1 RES1    0.0000
     10 H5         3.4812    2.2287   11.8783 H         1 RES1    0.0000
     11 H6         2.4586    2.5211   10.6792 H         1 RES1    0.0000
     12 C5         3.9741    3.9074   10.7973 C.3       1 RES1    0.0000
     13 H7         4.6231    4.1638   11.5126 H         1 RES1    0.0000
     14 C6         6.5824    3.3893    8.3436 C.ar      1 RES1    0.0000
     15 H8         6.7435    2.4583    8.4478 H         1 RES1    0.0000
     16 C7         7.4076    4.1497    7.5369 C.ar      1 RES1    0.0000
     17 H9         8.1453    3.7355    7.1052 H         1 RES1    0.0000
     18 C8         7.1813    5.5116    7.3402 C.ar      1 RES1    0.0000
     19 C9         6.0764    6.0848    7.9559 C.ar      1 RES1    0.0000
     20 H10        5.8899    7.0055    7.8170 H         1 RES1    0.0000
     21 C10        5.2348    5.3321    8.7753 C.ar      1 RES1    0.0000
     22 C11        4.0056    5.8514    9.3367 C.2       1 RES1    0.0000
     23 H11        3.6637    6.6837    9.0311 H         1 RES1    0.0000
     24 C12        3.3471    5.1666   10.2834 C.2       1 RES1    0.0000
     25 O2         4.7113    3.2062    9.7683 O.3       1 RES1    0.0000
     26 C13        5.5310    3.9843    8.9918 C.ar      1 RES1    0.0000
     27 C14        8.0767    6.2938    6.4478 C.ar      1 RES1    0.0000
     28 C15        8.2354    5.9296    5.1145 C.ar      1 RES1    0.0000
     29 H12        7.7566    5.1807    4.7777 H         1 RES1    0.0000
     30 C16        9.0747    6.6298    4.2708 C.ar      1 RES1    0.0000
     31 H13        9.1654    6.3554    3.3657 H         1 RES1    0.0000
     32 C17        9.7838    7.7301    4.7268 C.ar      1 RES1    0.0000
     33 H14       10.3497    8.2110    4.1342 H         1 RES1    0.0000
     34 C18        9.6642    8.1289    6.0555 C.ar      1 RES1    0.0000
     35 C19        8.8114    7.3979    6.8818 C.ar      1 RES1    0.0000
     36 N1         8.6776    7.7638    8.3142 N.pl3     1 RES1    0.0000
     37 O3         7.8875    8.6445    8.6024 O.2       1 RES1    0.0000
     38 O4         9.3233    7.1126    9.1051 O.2       1 RES1    0.0000
     39 C20       10.4369    9.2830    6.5983 C.2       1 RES1    0.0000
     40 O5        10.4574    9.5918    7.7522 O.2       1 RES1    0.0000
     41 O6        11.0992    9.9229    5.6541 O.3       1 RES1    0.0000
     42 C21       11.8220   11.1014    6.0670 C.3       1 RES1    0.0000
     43 H15       11.1995   11.7426    6.4698 H         1 RES1    0.0000
     44 H16       12.2530   11.5105    5.2870 H         1 RES1    0.0000
     45 H17       12.5057   10.8526    6.7233 H         1 RES1    0.0000
@<TRIPOS>BOND
     1    1    2 2
     2    2    3 1
     3    3    4 1
     4    5    3 1
     5    6    3 1
     6    7    6 1
     7    8    6 1
     8    9    6 1
     9   10    9 1
    10   11    9 1
    11   12    9 1
    12   13   12 1
    13   14   15 1
    14   16   14 ar
    15   17   16 1
    16   18   16 ar
    17   19   18 ar
    18   20   19 1
    19   21   19 ar
    20   22   21 1
    21   23   22 1
    22   24    2 1
    23   25   12 1
    24   26   14 ar
    25   27   18 1
    26   28   27 ar
    27   29   28 1
    28   30   28 ar
    29   31   30 1
    30   32   30 ar
    31   33   32 1
    32   34   32 ar
    33   35   27 ar
    34   36   35 1
    35   37   36 2
    36   38   36 2
    37   39   34 1
    38   40   39 2
    39   41   39 1
    40   42   41 1
    41   43   42 1
    42   44   42 1
    43   45   42 1
    44   12   24 1
    45   21   26 ar
    46   22   24 2
    47   25   26 1
    48   34   35 ar
@<TRIPOS>SUBSTRUCTURE
     1 RES1 1

@<TRIPOS>CRYSIN
  11.7997   12.8236   11.7731  90.0000 100.5550  90.0000  14 1

