# MOL2 file generated by ConQuest
# Please check atom types

@<TRIPOS>MOLECULE
VUWFAW
    80    83     1
SMALL
NO_CHARGES
****
Generated from CSD

@<TRIPOS>ATOM
      1 O1        -6.5696    6.2274   15.1048 O.3       1 RES1    0.0000
      2 H1        -6.0267    6.8298   15.3213 H         1 RES1    0.0000
      3 N1        -5.9937    5.4104   14.0977 N.2       1 RES1    0.0000
      4 C1        -6.8380    4.5448   13.6503 C.2       1 RES1    0.0000
      5 C2        -8.2175    4.4391   14.0993 C.2       1 RES1    0.0000
      6 H2        -8.5729    5.1396   14.6334 H         1 RES1    0.0000
      7 C3        -9.0060    3.4115   13.8011 C.2       1 RES1    0.0000
      8 C4       -10.4570    3.4297   14.2292 C.3       1 RES1    0.0000
      9 H3       -11.0308    3.5925   13.4386 H         1 RES1    0.0000
     10 H4       -10.6017    4.1706   14.8691 H         1 RES1    0.0000
     11 C5       -10.8581    2.1161   14.8803 C.3       1 RES1    0.0000
     12 H5       -10.3951    2.0263   15.7623 H         1 RES1    0.0000
     13 O2       -12.2960    2.2043   15.0958 O.3       1 RES1    0.0000
     14 C6       -12.8243    1.3996   16.0141 C.2       1 RES1    0.0000
     15 O3       -12.1692    0.6344   16.6854 O.2       1 RES1    0.0000
     16 C7       -14.2968    1.5715   16.1424 C.3       1 RES1    0.0000
     17 H6       -14.4876    2.3527   16.7021 H         1 RES1    0.0000
     18 H7       -14.6843    0.7713   16.5561 H         1 RES1    0.0000
     19 H8       -14.6895    1.7023   15.2540 H         1 RES1    0.0000
     20 C8       -10.5173    0.9295   14.0095 C.3       1 RES1    0.0000
     21 H9       -11.0343    0.9751   13.1660 H         1 RES1    0.0000
     22 H10      -10.7599    0.0913   14.4762 H         1 RES1    0.0000
     23 C9        -9.0338    0.9303   13.7000 C.3       1 RES1    0.0000
     24 H11       -8.8295    0.1521   13.1243 H         1 RES1    0.0000
     25 H12       -8.5341    0.8146   14.5468 H         1 RES1    0.0000
     26 C10       -8.5287    2.2180   12.9960 C.3       1 RES1    0.0000
     27 C11       -9.1474    2.3017   11.5880 C.3       1 RES1    0.0000
     28 H13       -8.7070    3.0159   11.0797 H         1 RES1    0.0000
     29 H14      -10.1050    2.4957   11.6634 H         1 RES1    0.0000
     30 H15       -9.0217    1.4475   11.1246 H         1 RES1    0.0000
     31 C12       -6.9852    2.1815   12.9559 C.3       1 RES1    0.0000
     32 H16       -6.6905    1.9777   13.8893 H         1 RES1    0.0000
     33 C13       -6.3592    3.5666   12.5999 C.3       1 RES1    0.0000
     34 H17       -6.7379    3.8542   11.7195 H         1 RES1    0.0000
     35 C14       -6.4293    1.0474   12.0787 C.3       1 RES1    0.0000
     36 H18       -6.7366    0.1818   12.4492 H         1 RES1    0.0000
     37 H19       -6.8091    1.1349   11.1695 H         1 RES1    0.0000
     38 C15       -4.9286    1.0208   11.9745 C.3       1 RES1    0.0000
     39 H20       -4.6569    0.3005   11.3507 H         1 RES1    0.0000
     40 H21       -4.5443    0.8154   12.8629 H         1 RES1    0.0000
     41 C16       -4.3675    2.3504   11.4790 C.3       1 RES1    0.0000
     42 C17       -4.8180    2.6021   10.0309 C.3       1 RES1    0.0000
     43 H22       -5.7922    2.6949   10.0036 H         1 RES1    0.0000
     44 H23       -4.5461    1.8484    9.4680 H         1 RES1    0.0000
     45 H24       -4.4029    3.4252    9.6989 H         1 RES1    0.0000
     46 C18       -4.8496    3.4617   12.4396 C.3       1 RES1    0.0000
     47 H25       -4.5005    3.2099   13.3424 H         1 RES1    0.0000
     48 C19       -4.0347    4.6749   12.0050 C.3       1 RES1    0.0000
     49 H26       -3.9174    5.3077   12.7571 H         1 RES1    0.0000
     50 H27       -4.4783    5.1473   11.2561 H         1 RES1    0.0000
     51 C20       -2.6921    4.1014   11.5640 C.3       1 RES1    0.0000
     52 H28       -1.9762    4.3889   12.1846 H         1 RES1    0.0000
     53 H29       -2.4664    4.4193   10.6547 H         1 RES1    0.0000
     54 C21       -2.8269    2.5512   11.5768 C.3       1 RES1    0.0000
     55 H30       -2.5572    2.2485   12.4909 H         1 RES1    0.0000
     56 C22       -1.8959    1.8377   10.5873 C.3       1 RES1    0.0000
     57 H31       -2.1312    2.1458    9.6652 H         1 RES1    0.0000
     58 C23       -2.0483    0.3149   10.6290 C.3       1 RES1    0.0000
     59 H32       -2.9399    0.0669   10.3035 H         1 RES1    0.0000
     60 H33       -1.9391    0.0015   11.5511 H         1 RES1    0.0000
     61 H34       -1.3647   -0.0974   10.0597 H         1 RES1    0.0000
     62 C24       -0.4263    2.2157   10.8551 C.3       1 RES1    0.0000
     63 H35       -0.3625    3.2008   10.9321 H         1 RES1    0.0000
     64 H36       -0.1540    1.8293   11.7243 H         1 RES1    0.0000
     65 C25        0.5445    1.7502    9.7935 C.3       1 RES1    0.0000
     66 H37        0.2114    2.0438    8.9083 H         1 RES1    0.0000
     67 H38        0.5631    0.7606    9.7919 H         1 RES1    0.0000
     68 C26        1.9687    2.2599    9.9667 C.3       1 RES1    0.0000
     69 H39        1.9449    3.2495    9.9587 H         1 RES1    0.0000
     70 H40        2.2895    1.9799   10.8600 H         1 RES1    0.0000
     71 C27        2.9768    1.8065    8.9420 C.3       1 RES1    0.0000
     72 H41        3.1869    0.9158    9.3461 H         1 RES1    0.0000
     73 C28        2.7126    1.4148    7.8114 C.3       1 RES1    0.0000
     74 H42        2.9940    2.0880    7.1571 H         1 RES1    0.0000
     75 H43        1.7460    1.2687    7.7344 H         1 RES1    0.0000
     76 H44        3.1837    0.5735    7.6382 H         1 RES1    0.0000
     77 C29        4.3363    2.4584    9.1681 C.3       1 RES1    0.0000
     78 H45        4.2756    3.4176    8.9789 H         1 RES1    0.0000
     79 H46        4.9995    2.0499    8.5699 H         1 RES1    0.0000
     80 H47        4.6124    2.3253   10.0982 H         1 RES1    0.0000
@<TRIPOS>BOND
     1    1    2 1
     2    3    1 1
     3    4    3 2
     4    5    4 1
     5    6    5 1
     6    7    5 2
     7    8    7 1
     8    9    8 1
     9   10    8 1
    10   11    8 1
    11   12   11 1
    12   13   11 1
    13   14   13 1
    14   15   14 2
    15   16   14 1
    16   17   16 1
    17   18   16 1
    18   19   16 1
    19   20   11 1
    20   21   20 1
    21   22   20 1
    22   23   20 1
    23   24   23 1
    24   25   23 1
    25   26    7 1
    26   27   26 1
    27   28   27 1
    28   29   27 1
    29   30   27 1
    30   31   26 1
    31   32   31 1
    32   33    4 1
    33   34   33 1
    34   35   31 1
    35   36   35 1
    36   37   35 1
    37   38   35 1
    38   39   38 1
    39   40   38 1
    40   41   38 1
    41   42   41 1
    42   43   42 1
    43   44   42 1
    44   45   42 1
    45   46   33 1
    46   47   46 1
    47   48   46 1
    48   49   48 1
    49   50   48 1
    50   51   48 1
    51   52   51 1
    52   53   51 1
    53   54   41 1
    54   55   54 1
    55   56   54 1
    56   57   56 1
    57   58   56 1
    58   59   58 1
    59   60   58 1
    60   61   58 1
    61   62   56 1
    62   63   62 1
    63   64   62 1
    64   65   62 1
    65   66   65 1
    66   67   65 1
    67   68   65 1
    68   69   68 1
    69   70   68 1
    70   71   68 1
    71   72   71 1
    72   73   71 1
    73   74   73 1
    74   75   73 1
    75   76   73 1
    76   77   71 1
    77   78   77 1
    78   79   77 1
    79   80   77 1
    80   23   26 1
    81   31   33 1
    82   41   46 1
    83   51   54 1
@<TRIPOS>SUBSTRUCTURE
     1 RES1 1

@<TRIPOS>CRYSIN
  22.2290    7.6064   18.1140  90.0000 117.7100  90.0000   5 1

