# MOL2 file generated by ConQuest
# Please check atom types

@<TRIPOS>MOLECULE
VUWGIF
    96   102     2
SMALL
NO_CHARGES
****
Generated from CSD

@<TRIPOS>ATOM
      1 N1        -0.4614    2.2188   13.2090 N.pl3     1 RES1    0.0000
      2 C1         0.5764    2.5917   12.2365 C.3       1 RES1    0.0000
      3 H1         0.3571    2.1935   11.3568 H         1 RES1    0.0000
      4 H2         1.4464    2.2219   12.5292 H         1 RES1    0.0000
      5 C2         0.6992    4.1045   12.0863 C.3       1 RES1    0.0000
      6 H3         1.4065    4.3154   11.4278 H         1 RES1    0.0000
      7 H4        -0.1545    4.4739   11.7486 H         1 RES1    0.0000
      8 O1         1.0162    4.7026   13.3285 O.3       1 RES1    0.0000
      9 H5         0.4178    5.3566   13.5028 H         1 RES1    0.0000
     10 C3        -1.8067    2.4448   13.1116 C.2       1 RES1    0.0000
     11 C4        -2.5120    2.8353   11.8757 C.ar      1 RES1    0.0000
     12 C5        -3.5463    3.7717   11.9473 C.ar      1 RES1    0.0000
     13 H6        -3.7822    4.1518   12.7846 H         1 RES1    0.0000
     14 C6        -4.2314    4.1491   10.8022 C.ar      1 RES1    0.0000
     15 H7        -4.9445    4.7753   10.8488 H         1 RES1    0.0000
     16 C7        -3.8588    3.5981    9.5919 C.ar      1 RES1    0.0000
     17 N2        -4.4884    4.0941    8.3631 N.pl3     1 RES1    0.0000
     18 O2        -5.4587    4.8450    8.4724 O.2       1 RES1    0.0000
     19 O3        -3.9940    3.7679    7.2884 O.2       1 RES1    0.0000
     20 C8        -2.8803    2.6224    9.4917 C.ar      1 RES1    0.0000
     21 H8        -2.6690    2.2279    8.6546 H         1 RES1    0.0000
     22 C9        -2.2174    2.2373   10.6481 C.ar      1 RES1    0.0000
     23 H9        -1.5545    1.5579   10.6046 H         1 RES1    0.0000
     24 N3        -2.4232    2.1965   14.2535 N.2       1 RES1    0.0000
     25 C10       -1.4475    1.7655   15.1326 C.2       1 RES1    0.0000
     26 C11       -1.8159    1.3748   16.5056 C.ar      1 RES1    0.0000
     27 C12       -0.9015    1.4031   17.5675 C.ar      1 RES1    0.0000
     28 H10        0.0052    1.6320   17.4000 H         1 RES1    0.0000
     29 C13       -1.3062    1.1003   18.8616 C.ar      1 RES1    0.0000
     30 H11       -0.6780    1.1394   19.5743 H         1 RES1    0.0000
     31 C14       -2.6210    0.7417   19.1233 C.ar      1 RES1    0.0000
     32 H12       -2.8953    0.5365   20.0086 H         1 RES1    0.0000
     33 C15       -3.5332    0.6859   18.0725 C.ar      1 RES1    0.0000
     34 H13       -4.4324    0.4306   18.2431 H         1 RES1    0.0000
     35 C16       -3.1378    1.0004   16.7790 C.ar      1 RES1    0.0000
     36 H14       -3.7710    0.9611   16.0716 H         1 RES1    0.0000
     37 C17       -0.2207    1.7850   14.5028 C.2       1 RES1    0.0000
     38 C18        1.1187    1.3425   14.9572 C.ar      1 RES1    0.0000
     39 C19        2.1758    2.2345   15.1505 C.ar      1 RES1    0.0000
     40 H15        2.0452    3.1640   15.0015 H         1 RES1    0.0000
     41 C20        3.4188    1.7654   15.5601 C.ar      1 RES1    0.0000
     42 H16        4.1303    2.3778   15.7054 H         1 RES1    0.0000
     43 C21        3.6257    0.4110   15.7574 C.ar      1 RES1    0.0000
     44 H17        4.4783    0.0930   16.0290 H         1 RES1    0.0000
     45 C22        2.5829   -0.4774   15.5558 C.ar      1 RES1    0.0000
     46 H18        2.7258   -1.4080   15.6856 H         1 RES1    0.0000
     47 C23        1.3314   -0.0202   15.1670 C.ar      1 RES1    0.0000
     48 H19        0.6190   -0.6356   15.0441 H         1 RES1    0.0000
     49 N4         6.7226    5.2577   21.8082 N.pl3     2 RES2    0.0000
     50 C24        7.4761    4.9246   23.0237 C.3       2 RES2    0.0000
     51 H20        7.2656    5.5891   23.7270 H         2 RES2    0.0000
     52 H21        8.4458    4.9846   22.8301 H         2 RES2    0.0000
     53 C25        7.1580    3.5303   23.5465 C.3       2 RES2    0.0000
     54 H22        7.6961    3.3535   24.3600 H         2 RES2    0.0000
     55 H23        6.2018    3.4835   23.7952 H         2 RES2    0.0000
     56 O4         7.4372    2.5416   22.5763 O.3       2 RES2    0.0000
     57 H24        6.7047    2.0893   22.4327 H         2 RES2    0.0000
     58 C26        5.3794    5.4529   21.7060 C.2       2 RES2    0.0000
     59 C27        4.4519    5.5107   22.8499 C.ar      2 RES2    0.0000
     60 C28        3.3607    4.6378   22.8729 C.ar      2 RES2    0.0000
     61 H25        3.2166    4.0399   22.1488 H         2 RES2    0.0000
     62 C29        2.4904    4.6423   23.9490 C.ar      2 RES2    0.0000
     63 H26        1.7548    4.0416   23.9797 H         2 RES2    0.0000
     64 C30        2.7129    5.5397   24.9800 C.ar      2 RES2    0.0000
     65 N5         1.8250    5.5102   26.1542 N.pl3     2 RES2    0.0000
     66 O5         0.9430    4.6529   26.1815 O.2       2 RES2    0.0000
     67 O6         2.0207    6.3262   27.0470 O.2       2 RES2    0.0000
     68 C31        3.7471    6.4583   24.9553 C.ar      2 RES2    0.0000
     69 H27        3.8532    7.0919   25.6544 H         2 RES2    0.0000
     70 C32        4.6267    6.4297   23.8815 C.ar      2 RES2    0.0000
     71 H28        5.3533    7.0420   23.8491 H         2 RES2    0.0000
     72 N6         5.0010    5.5597   20.4469 N.2       2 RES2    0.0000
     73 C33        6.1518    5.4277   19.6839 C.2       2 RES2    0.0000
     74 C34        6.0745    5.4883   18.2201 C.ar      2 RES2    0.0000
     75 C35        4.8351    5.3148   17.5811 C.ar      2 RES2    0.0000
     76 H29        4.0537    5.1723   18.1011 H         2 RES2    0.0000
     77 C36        4.7412    5.3491   16.1968 C.ar      2 RES2    0.0000
     78 H30        3.9002    5.2145   15.7764 H         2 RES2    0.0000
     79 C37        5.8642    5.5773   15.4230 C.ar      2 RES2    0.0000
     80 H31        5.7946    5.6176   14.4764 H         2 RES2    0.0000
     81 C38        7.0916    5.7459   16.0398 C.ar      2 RES2    0.0000
     82 H32        7.8672    5.8966   15.5124 H         2 RES2    0.0000
     83 C39        7.2004    5.6969   17.4239 C.ar      2 RES2    0.0000
     84 H33        8.0506    5.8070   17.8315 H         2 RES2    0.0000
     85 C40        7.2318    5.2307   20.5190 C.2       2 RES2    0.0000
     86 C41        8.6688    4.9794   20.2692 C.ar      2 RES2    0.0000
     87 C42        9.1324    3.6726   20.1298 C.ar      2 RES2    0.0000
     88 H34        8.5210    2.9453   20.1647 H         2 RES2    0.0000
     89 C43       10.4901    3.4328   19.9413 C.ar      2 RES2    0.0000
     90 H35       10.8025    2.5397   19.8553 H         2 RES2    0.0000
     91 C44       11.3893    4.4817   19.8766 C.ar      2 RES2    0.0000
     92 H36       12.3132    4.3094   19.7389 H         2 RES2    0.0000
     93 C45       10.9369    5.7858   20.0120 C.ar      2 RES2    0.0000
     94 H37       11.5520    6.5089   19.9660 H         2 RES2    0.0000
     95 C46        9.5829    6.0358   20.2141 C.ar      2 RES2    0.0000
     96 H38        9.2778    6.9300   20.3152 H         2 RES2    0.0000
@<TRIPOS>BOND
     1    1    2 1
     2    2    3 1
     3    4    2 1
     4    5    2 1
     5    6    5 1
     6    7    5 1
     7    8    5 1
     8    9    8 1
     9   10    1 1
    10   11   10 1
    11   12   11 ar
    12   13   12 1
    13   14   12 ar
    14   15   14 1
    15   16   14 ar
    16   17   16 1
    17   18   17 2
    18   19   17 2
    19   20   16 ar
    20   21   20 1
    21   22   11 ar
    22   23   22 1
    23   24   10 2
    24   25   24 1
    25   26   25 1
    26   27   26 ar
    27   28   27 1
    28   29   27 ar
    29   30   29 1
    30   31   29 ar
    31   32   31 1
    32   33   31 ar
    33   34   33 1
    34   35   26 ar
    35   36   35 1
    36   37    1 1
    37   38   37 1
    38   39   38 ar
    39   40   39 1
    40   41   39 ar
    41   42   41 1
    42   43   41 ar
    43   44   43 1
    44   45   43 ar
    45   46   45 1
    46   47   38 ar
    47   48   47 1
    48   49   50 1
    49   50   51 1
    50   52   50 1
    51   53   50 1
    52   54   53 1
    53   55   53 1
    54   56   53 1
    55   57   56 1
    56   58   49 1
    57   59   58 1
    58   60   59 ar
    59   61   60 1
    60   62   60 ar
    61   63   62 1
    62   64   62 ar
    63   65   64 1
    64   66   65 2
    65   67   65 2
    66   68   64 ar
    67   69   68 1
    68   70   59 ar
    69   71   70 1
    70   72   58 2
    71   73   72 1
    72   74   73 1
    73   75   74 ar
    74   76   75 1
    75   77   75 ar
    76   78   77 1
    77   79   77 ar
    78   80   79 1
    79   81   79 ar
    80   82   81 1
    81   83   74 ar
    82   84   83 1
    83   85   49 1
    84   86   85 1
    85   87   86 ar
    86   88   87 1
    87   89   87 ar
    88   90   89 1
    89   91   89 ar
    90   92   91 1
    91   93   91 ar
    92   94   93 1
    93   95   86 ar
    94   96   95 1
    95   20   22 ar
    96   25   37 2
    97   33   35 ar
    98   45   47 ar
    99   68   70 ar
   100   73   85 2
   101   81   83 ar
   102   93   95 ar
@<TRIPOS>SUBSTRUCTURE
     1 RES1 1
     2 RES2 49

@<TRIPOS>CRYSIN
  15.3605    8.6119   28.6080  90.0000  97.1582  90.0000  14 1

