# MOL2 file generated by ConQuest
# Please check atom types

@<TRIPOS>MOLECULE
VUWHEC
    69    67     2
SMALL
NO_CHARGES
****
Generated from CSD

@<TRIPOS>ATOM
      1 C1         5.1972   20.6974   10.7300 C.3       1 RES1    0.0000
      2 C2         5.1532   19.5397   11.7059 C.3       1 RES1    0.0000
      3 H1         4.3704   19.6824   12.3122 H         1 RES1    0.0000
      4 C3         6.4244   19.5697   12.5702 C.3       1 RES1    0.0000
      5 H2         6.4447   20.4094   13.0954 H         1 RES1    0.0000
      6 H3         6.4062   18.8112   13.2066 H         1 RES1    0.0000
      7 C4         7.6971   20.6238   10.8366 C.3       1 RES1    0.0000
      8 H4         8.5301   20.5860   10.3025 H         1 RES1    0.0000
      9 H5         7.6956   21.4686   11.3517 H         1 RES1    0.0000
     10 C5         6.4837   20.5716    9.9149 C.3       1 RES1    0.0000
     11 H6         6.5342   21.3301    9.2654 H         1 RES1    0.0000
     12 C6         6.4970   19.2449    9.1394 C.3       1 RES1    0.0000
     13 H7         6.4023   19.4414    8.1741 H         1 RES1    0.0000
     14 H8         7.3759   18.8093    9.2714 H         1 RES1    0.0000
     15 C7         4.9063   18.2307   10.9188 C.3       1 RES1    0.0000
     16 H9         3.9147   18.1278   10.8392 H         1 RES1    0.0000
     17 C8         5.4177   16.9870   11.6498 C.3       1 RES1    0.0000
     18 H10        5.3020   16.1973   11.0631 H         1 RES1    0.0000
     19 H11        6.3862   17.0933   11.8267 H         1 RES1    0.0000
     20 C9         4.7056   16.7398   12.9505 C.2       1 RES1    0.0000
     21 H12        3.7594   16.8256   12.9541 H         1 RES1    0.0000
     22 C10        5.2872   16.4147   14.0825 C.2       1 RES1    0.0000
     23 H13        6.2313   16.3188   14.1205 H         1 RES1    0.0000
     24 H14        4.7636   16.2752   14.8631 H         1 RES1    0.0000
     25 C11        4.1364   22.7006   10.8256 C.3       1 RES1    0.0000
     26 H15        3.3928   22.8410   11.4645 H         1 RES1    0.0000
     27 H16        4.4976   23.5870   10.5746 H         1 RES1    0.0000
     28 C12        3.6591   22.0495    9.6862 C.3       1 RES1    0.0000
     29 H17        4.0723   22.4196    8.8670 H         1 RES1    0.0000
     30 H18        2.6756   22.1330    9.6156 H         1 RES1    0.0000
     31 C13        8.8391   19.3379   12.5639 C.3       1 RES1    0.0000
     32 H19        8.8204   20.0032   13.2968 H         1 RES1    0.0000
     33 H20        9.6366   19.5211   12.0056 H         1 RES1    0.0000
     34 C14        8.9473   17.9520   13.1517 C.ar      1 RES1    0.0000
     35 C15        9.0284   17.7377   14.5237 C.ar      1 RES1    0.0000
     36 H21        9.0088   18.4771   15.1186 H         1 RES1    0.0000
     37 C16        9.1372   16.4540   15.0266 C.ar      1 RES1    0.0000
     38 H22        9.1936   16.3188   15.9649 H         1 RES1    0.0000
     39 C17        9.1644   15.3644   14.1728 C.ar      1 RES1    0.0000
     40 H23        9.2400   14.4852   14.5234 H         1 RES1    0.0000
     41 C18        9.0811   15.5639   12.8062 C.ar      1 RES1    0.0000
     42 H24        9.0949   14.8211   12.2145 H         1 RES1    0.0000
     43 C19        8.9781   16.8482   12.3028 C.ar      1 RES1    0.0000
     44 H25        8.9273   16.9794   11.3637 H         1 RES1    0.0000
     45 C20        4.9636   17.5225    8.5502 C.2       1 RES1    0.0000
     46 C21        3.7191   16.7042    8.7977 C.ar      1 RES1    0.0000
     47 C22        2.4709   17.3019    8.6392 C.ar      1 RES1    0.0000
     48 H26        2.4093   18.2322    8.4582 H         1 RES1    0.0000
     49 C23        1.3197   16.5383    8.7459 C.ar      1 RES1    0.0000
     50 H27        0.4636   16.9300    8.6175 H         1 RES1    0.0000
     51 C24        1.4453   15.1955    9.0447 C.ar      1 RES1    0.0000
     52 C25        2.6705   14.5694    9.1867 C.ar      1 RES1    0.0000
     53 H28        2.7262   13.6405    9.3781 H         1 RES1    0.0000
     54 C26        3.8140   15.3378    9.0406 C.ar      1 RES1    0.0000
     55 H29        4.6689   14.9293    9.1075 H         1 RES1    0.0000
     56 N1         7.6325   19.4827   11.7463 N.3       1 RES1    0.0000
     57 N2         5.4390   18.3011    9.5350 N.am      1 RES1    0.0000
     58 N3         0.2219   14.4153    9.2639 N.pl3     1 RES1    0.0000
     59 O1         5.1492   21.9307   11.4359 O.3       1 RES1    0.0000
     60 O2         4.0485   20.6722    9.8833 O.3       1 RES1    0.0000
     61 O3         5.4589   17.4756    7.4242 O.2       1 RES1    0.0000
     62 O4        -0.8520   14.9977    9.1836 O.2       1 RES1    0.0000
     63 O5         0.3297   13.2291    9.5347 O.2       1 RES1    0.0000
     64 C27        4.4566   22.8467   10.6212 Du        2 SUP2    0.0000
     65 H30        5.0513   23.2530    9.9418 Du        2 SUP2    0.0000
     66 H31        4.0300   23.5624   11.1563 Du        2 SUP2    0.0000
     67 C28        3.3883   21.8957    9.9643 Du        2 SUP2    0.0000
     68 H32        2.5793   21.8255   10.5310 Du        2 SUP2    0.0000
     69 H33        3.1282   22.2203    9.0669 Du        2 SUP2    0.0000
@<TRIPOS>BOND
     1    1    2 1
     2    2    3 1
     3    4    2 1
     4    5    4 1
     5    6    4 1
     6    7    8 1
     7    9    7 1
     8   10    1 1
     9   11   10 1
    10   12   10 1
    11   13   12 1
    12   14   12 1
    13   15    2 1
    14   16   15 1
    15   17   15 1
    16   18   17 1
    17   19   17 1
    18   20   17 1
    19   21   20 1
    20   22   20 2
    21   23   22 1
    22   24   22 1
    23   25   26 1
    24   27   25 1
    25   28   25 1
    26   29   28 1
    27   30   28 1
    28   31   32 1
    29   33   31 1
    30   34   31 1
    31   35   34 ar
    32   36   35 1
    33   37   35 ar
    34   38   37 1
    35   39   37 ar
    36   40   39 1
    37   41   39 ar
    38   42   41 1
    39   43   34 ar
    40   44   43 1
    41   45   46 1
    42   46   47 ar
    43   47   48 1
    44   49   47 ar
    45   50   49 1
    46   51   49 ar
    47   52   51 ar
    48   53   52 1
    49   54   46 ar
    50   55   54 1
    51   56    4 1
    52   57   12 1
    53   58   51 1
    54   59    1 1
    55   60    1 1
    56   61   45 2
    57   62   58 2
    58   63   58 2
    59    7   10 1
    60    7   56 1
    61   15   57 1
    62   25   59 1
    63   28   60 1
    64   31   56 1
    65   41   43 ar
    66   45   57 1
    67   52   54 ar
@<TRIPOS>SUBSTRUCTURE
     1 RES1 1
     2 SUP2 64

@<TRIPOS>CRYSIN
   7.9540   18.9820   15.1000  90.0000  95.4630  90.0000 231 1

