# MOL2 file generated by ConQuest
# Please check atom types

@<TRIPOS>MOLECULE
VUWJUT
    28    27     1
SMALL
NO_CHARGES
****
Generated from CSD

@<TRIPOS>ATOM
      1 O1         4.7081    1.5532    9.4731 O.2       1 RES1    0.0000
      2 O2         3.6221    2.1214   11.8501 O.3       1 RES1    0.0000
      3 H1         4.0572    2.6631   12.2860 H         1 RES1    0.0000
      4 N1         3.2073    2.7109   10.6581 N.am      1 RES1    0.0000
      5 H2         2.6139    3.3332   10.6674 H         1 RES1    0.0000
      6 C1         3.2517    3.6306    5.9900 C.3       1 RES1    0.0000
      7 H3         2.6835    4.3787    6.2242 H         1 RES1    0.0000
      8 H4         2.6760    2.9020    5.7094 H         1 RES1    0.0000
      9 C2         3.7293    2.3084    9.5172 C.2       1 RES1    0.0000
     10 C3         4.1135    4.0335    4.8189 C.3       1 RES1    0.0000
     11 H5         4.6674    3.2771    4.5707 H         1 RES1    0.0000
     12 H6         4.7018    4.7480    5.1018 H         1 RES1    0.0000
     13 C4         3.0395    2.8289    8.3182 C.3       1 RES1    0.0000
     14 H7         2.5228    3.6131    8.5664 H         1 RES1    0.0000
     15 H8         2.4211    2.1584    7.9936 H         1 RES1    0.0000
     16 C5         3.3535    4.4905    3.5991 C.3       1 RES1    0.0000
     17 H9         2.7503    3.7843    3.3254 H         1 RES1    0.0000
     18 H10        2.8145    5.2606    3.8403 H         1 RES1    0.0000
     19 C6         3.9885    3.1986    7.2121 C.3       1 RES1    0.0000
     20 H11        4.5637    3.9201    7.5112 H         1 RES1    0.0000
     21 H12        4.5470    2.4367    7.0011 H         1 RES1    0.0000
     22 C7         4.2106    4.8602    2.4349 C.3       1 RES1    0.0000
     23 H13        4.7399    4.0888    2.1729 H         1 RES1    0.0000
     24 H14        4.8268    5.5605    2.7039 H         1 RES1    0.0000
     25 C8         3.4180    5.3379    1.2407 C.3       1 RES1    0.0000
     26 H15        2.7418    4.6903    1.0273 H         1 RES1    0.0000
     27 H16        4.0035    5.4496    0.4893 H         1 RES1    0.0000
     28 H17        3.0004    6.1774    1.4494 H         1 RES1    0.0000
@<TRIPOS>BOND
     1    1    9 2
     2    2    3 1
     3    4    2 1
     4    5    4 1
     5    6    7 1
     6    8    6 1
     7    9    4 1
     8   10    6 1
     9   11   10 1
    10   12   10 1
    11   13    9 1
    12   14   13 1
    13   15   13 1
    14   16   10 1
    15   17   16 1
    16   18   16 1
    17   19    6 1
    18   20   19 1
    19   21   19 1
    20   22   16 1
    21   23   22 1
    22   24   22 1
    23   25   22 1
    24   26   25 1
    25   27   25 1
    26   28   25 1
    27   13   19 1
@<TRIPOS>SUBSTRUCTURE
     1 RES1 1

@<TRIPOS>CRYSIN
   4.6470    4.1540   23.1900  90.0000  90.1000  90.0000   4 1

