# MOL2 file generated by ConQuest
# Please check atom types

@<TRIPOS>MOLECULE
VUXBIZ
    42    43     1
SMALL
NO_CHARGES
****
Generated from CSD

@<TRIPOS>ATOM
      1 C1         4.4925    2.8020    5.6007 C.3       1 RES1    0.0000
      2 C2         5.7191    1.9241    5.3128 C.3       1 RES1    0.0000
      3 C3         5.2696    0.6556    4.6063 C.3       1 RES1    0.0000
      4 C4         4.6027    0.9846    3.2861 C.3       1 RES1    0.0000
      5 C5         3.6723    2.1282    3.3808 C.2       1 RES1    0.0000
      6 C6         3.6040    2.9434    4.4283 C.2       1 RES1    0.0000
      7 O1         3.7741    2.1248    6.6727 O.3       1 RES1    0.0000
      8 C7         3.3697    2.8448    7.7258 C.2       1 RES1    0.0000
      9 O2         3.5797    4.0135    7.8261 O.2       1 RES1    0.0000
     10 C8         2.6372    1.9948    8.6860 C.3       1 RES1    0.0000
     11 C9         6.5186    1.7451    6.6159 C.2       1 RES1    0.0000
     12 O3         7.0999    2.6989    7.0647 O.2       1 RES1    0.0000
     13 C10        6.4750    0.4470    7.3204 C.3       1 RES1    0.0000
     14 O4         6.4883    2.7701    4.4036 O.3       1 RES1    0.0000
     15 C11        7.7295    2.3568    4.0854 C.2       1 RES1    0.0000
     16 O5         8.2502    1.3825    4.5552 O.2       1 RES1    0.0000
     17 C12        8.3653    3.2558    3.0759 C.ar      1 RES1    0.0000
     18 C13        7.6503    4.2581    2.4509 C.ar      1 RES1    0.0000
     19 C14        8.2705    5.0819    1.5171 C.ar      1 RES1    0.0000
     20 C15        9.5943    4.8601    1.2387 C.ar      1 RES1    0.0000
     21 C16       10.3256    3.8647    1.8372 C.ar      1 RES1    0.0000
     22 C17        9.7049    3.0592    2.7767 C.ar      1 RES1    0.0000
     23 N1        10.2493    5.7210    0.2292 N.pl3     1 RES1    0.0000
     24 O6         9.6454    6.6759   -0.1932 O.2       1 RES1    0.0000
     25 O7        11.3305    5.4017   -0.1780 O.2       1 RES1    0.0000
     26 H1         4.7734    3.6908    5.8317 H         1 RES1    0.0000
     27 H2         4.6430    0.1893    5.1650 H         1 RES1    0.0000
     28 H3         6.0316    0.0969    4.4453 H         1 RES1    0.0000
     29 H4         4.1172    0.2138    2.9869 H         1 RES1    0.0000
     30 H5         5.2862    1.1978    2.6441 H         1 RES1    0.0000
     31 H6         3.0798    2.2918    2.6422 H         1 RES1    0.0000
     32 H7         2.9534    3.6498    4.4245 H         1 RES1    0.0000
     33 H8         2.4191    2.5079    9.4683 H         1 RES1    0.0000
     34 H9         3.1860    1.2479    8.9360 H         1 RES1    0.0000
     35 H10        1.8294    1.6750    8.2788 H         1 RES1    0.0000
     36 H11        5.5770    0.1072    7.3072 H         1 RES1    0.0000
     37 H12        6.7574    0.5661    8.2296 H         1 RES1    0.0000
     38 H13        7.0562   -0.1762    6.8829 H         1 RES1    0.0000
     39 H14        6.7229    4.3869    2.6611 H         1 RES1    0.0000
     40 H15        7.7850    5.7859    1.0815 H         1 RES1    0.0000
     41 H16       11.2515    3.7307    1.6099 H         1 RES1    0.0000
     42 H17       10.1995    2.3653    3.2180 H         1 RES1    0.0000
@<TRIPOS>BOND
     1    1    2 1
     2    2    3 1
     3    3    4 1
     4    4    5 1
     5    5    6 2
     6    6    1 1
     7    7    1 1
     8    8    7 1
     9    9    8 2
    10   10    8 1
    11   11    2 1
    12   12   11 2
    13   13   11 1
    14   14    2 1
    15   15   14 1
    16   16   15 2
    17   17   15 1
    18   18   17 ar
    19   19   18 ar
    20   20   19 ar
    21   21   20 ar
    22   22   17 ar
    23   23   20 1
    24   24   23 2
    25   25   23 2
    26   26    1 1
    27   27    3 1
    28   28    3 1
    29   29    4 1
    30   30    4 1
    31   31    5 1
    32   32    6 1
    33   33   10 1
    34   34   10 1
    35   35   10 1
    36   36   13 1
    37   37   13 1
    38   38   13 1
    39   39   18 1
    40   40   19 1
    41   41   21 1
    42   42   22 1
    43   21   22 ar
@<TRIPOS>SUBSTRUCTURE
     1 RES1 1

@<TRIPOS>CRYSIN
  31.9630    5.7010   29.8590  90.0000 140.6300  90.0000  15 1

