# MOL2 file generated by ConQuest
# Please check atom types

@<TRIPOS>MOLECULE
VUXFOL
    39    41     1
SMALL
NO_CHARGES
****
Generated from CSD

@<TRIPOS>ATOM
      1 C1         4.1866    4.1836    6.7927 C.2       1 RES1    0.0000
      2 C2         5.4233    3.7854    6.0207 C.3       1 RES1    0.0000
      3 H1         5.1955    3.0651    5.3816 H         1 RES1    0.0000
      4 H2         6.1048    3.4340    6.6476 H         1 RES1    0.0000
      5 C3         5.9961    4.9733    5.2633 C.3       1 RES1    0.0000
      6 H3         6.4965    5.5455    5.8973 H         1 RES1    0.0000
      7 H4         6.6378    4.6412    4.5858 H         1 RES1    0.0000
      8 C4         4.9703    5.7923    4.5888 C.3       1 RES1    0.0000
      9 H5         4.5053    5.2401    3.9113 H         1 RES1    0.0000
     10 H6         5.4116    6.5435    4.1176 H         1 RES1    0.0000
     11 C5         3.9510    6.3452    5.5646 C.3       1 RES1    0.0000
     12 H7         4.3287    7.1441    6.0106 H         1 RES1    0.0000
     13 H8         3.1441    6.6280    5.0661 H         1 RES1    0.0000
     14 C6         3.5567    5.3364    6.6111 C.2       1 RES1    0.0000
     15 C7         2.3855    5.6785    7.5108 C.3       1 RES1    0.0000
     16 H9         2.2519    6.6698    7.5122 H         1 RES1    0.0000
     17 C8         2.6928    5.2176    8.9170 C.ar      1 RES1    0.0000
     18 C9         2.3374    5.9529   10.0493 C.ar      1 RES1    0.0000
     19 H10        1.8568    6.7669    9.9613 H         1 RES1    0.0000
     20 C10        2.6939    5.4819   11.3073 C.ar      1 RES1    0.0000
     21 H11        2.4383    5.9671   12.0828 H         1 RES1    0.0000
     22 C11        3.4163    4.3124   11.4377 C.ar      1 RES1    0.0000
     23 H12        3.6634    4.0079   12.3033 H         1 RES1    0.0000
     24 C12        3.7847    3.5754   10.3213 C.ar      1 RES1    0.0000
     25 H13        4.2964    2.7807   10.4113 H         1 RES1    0.0000
     26 C13        3.3874    4.0288    9.0676 C.ar      1 RES1    0.0000
     27 C14        3.3772    2.0320    7.6133 C.2       1 RES1    0.0000
     28 C15        2.5988    1.2883    8.6579 C.3       1 RES1    0.0000
     29 H14        3.2129    0.9436    9.3395 H         1 RES1    0.0000
     30 H15        2.1232    0.5404    8.2393 H         1 RES1    0.0000
     31 H16        1.9526    1.8931    9.0765 H         1 RES1    0.0000
     32 C16        1.1398    5.0042    6.9328 C.3       1 RES1    0.0000
     33 H17        1.0072    5.2979    5.9964 H         1 RES1    0.0000
     34 H18        1.2626    4.0221    6.9338 H         1 RES1    0.0000
     35 N1         3.7440    3.3303    7.8732 N.am      1 RES1    0.0000
     36 N2        -0.0559    5.3606    7.7438 N.pl3     1 RES1    0.0000
     37 O1         3.6193    1.5175    6.5506 O.2       1 RES1    0.0000
     38 O2        -0.3484    6.5259    7.8378 O.2       1 RES1    0.0000
     39 O3        -0.6925    4.4814    8.2726 O.2       1 RES1    0.0000
@<TRIPOS>BOND
     1    1    2 1
     2    2    3 1
     3    4    2 1
     4    5    2 1
     5    6    5 1
     6    7    5 1
     7    8    5 1
     8    9    8 1
     9   10    8 1
    10   11    8 1
    11   12   11 1
    12   13   11 1
    13   14    1 2
    14   15   14 1
    15   16   15 1
    16   17   15 1
    17   18   17 ar
    18   19   18 1
    19   20   18 ar
    20   21   20 1
    21   22   20 ar
    22   23   22 1
    23   24   22 ar
    24   25   24 1
    25   26   17 ar
    26   27   28 1
    27   28   29 1
    28   30   28 1
    29   31   28 1
    30   32   15 1
    31   33   32 1
    32   34   32 1
    33   35    1 1
    34   36   32 1
    35   37   27 2
    36   38   36 2
    37   39   36 2
    38   11   14 1
    39   24   26 ar
    40   26   35 1
    41   27   35 1
@<TRIPOS>SUBSTRUCTURE
     1 RES1 1

@<TRIPOS>CRYSIN
   8.8678    8.3655   10.9057  90.0000 111.9940  90.0000   4 1

