# MOL2 file generated by ConQuest
# Please check atom types

@<TRIPOS>MOLECULE
VUXKOP
    52    55     2
SMALL
NO_CHARGES
****
Generated from CSD

@<TRIPOS>ATOM
      1 O1         1.5042    7.2674    0.8003 O.2       1 RES1    0.0000
      2 O2        -0.2011   11.0919    3.9104 O.3       1 RES1    0.0000
      3 O3         0.5413   10.5638    6.0396 O.3       1 RES1    0.0000
      4 O4         3.5304    3.6178    6.1292 O.3       1 RES1    0.0000
      5 O5         5.4240    3.2197    7.2975 O.2       1 RES1    0.0000
      6 O6         0.8172   -1.9813    9.0004 O.2       1 RES1    0.0000
      7 O7         1.8475   -1.5135   10.8542 O.2       1 RES1    0.0000
      8 O8         4.8308    3.8180    7.8363 Du        2 SUP2    0.0000
      9 N1         3.2512    6.4843    1.9915 N.am      1 RES1    0.0000
     10 N2         1.5626   -1.2921    9.6809 N.pl3     1 RES1    0.0000
     11 C1         2.1880    7.2841    1.8283 C.2       1 RES1    0.0000
     12 C2         1.8603    8.1755    2.9923 C.ar      1 RES1    0.0000
     13 C3         0.9677    9.2388    2.7721 C.ar      1 RES1    0.0000
     14 C4         0.6095    9.9731    3.8625 C.ar      1 RES1    0.0000
     15 C5        -0.3152   11.4255    5.2858 C.3       1 RES1    0.0000
     16 C6         1.0665    9.6718    5.1369 C.ar      1 RES1    0.0000
     17 C7         1.9384    8.6426    5.3899 C.ar      1 RES1    0.0000
     18 C8         2.3517    7.8797    4.2811 C.ar      1 RES1    0.0000
     19 C9         3.2863    6.7391    4.4031 C.2       1 RES1    0.0000
     20 C10        3.3690    5.9073    5.4405 C.2       1 RES1    0.0000
     21 C11        4.2118    4.6655    5.3736 C.3       1 RES1    0.0000
     22 C12        4.3448    4.1736    3.9446 C.3       1 RES1    0.0000
     23 C13        4.9613    5.2727    3.0939 C.3       1 RES1    0.0000
     24 C14        4.9955    4.9441    1.5845 C.3       1 RES1    0.0000
     25 C15        3.7118    5.5284    0.9892 C.3       1 RES1    0.0000
     26 C16        4.1261    6.5540    3.1694 C.3       1 RES1    0.0000
     27 C17        4.2620    3.0014    7.0592 C.2       1 RES1    0.0000
     28 C18        3.4293    1.9577    7.7751 C.ar      1 RES1    0.0000
     29 C19        2.3214    1.3627    7.1832 C.ar      1 RES1    0.0000
     30 C20        1.6894    0.3029    7.8126 C.ar      1 RES1    0.0000
     31 C21        2.1855   -0.1135    9.0303 C.ar      1 RES1    0.0000
     32 C22        3.2521    0.4782    9.6627 C.ar      1 RES1    0.0000
     33 C23        3.8834    1.5198    9.0178 C.ar      1 RES1    0.0000
     34 C24        3.9662    3.2197    7.2725 Du        2 SUP2    0.0000
     35 H1         0.6364    9.4335    1.8874 H         1 RES1    0.0000
     36 H2         0.0068   12.3374    5.4334 H         1 RES1    0.0000
     37 H3        -1.2533   11.2807    5.5782 H         1 RES1    0.0000
     38 H4         2.2421    8.4525    6.2681 H         1 RES1    0.0000
     39 H5         2.8785    6.0988    6.2369 H         1 RES1    0.0000
     40 H6         5.0767    4.8252    5.7635 H         1 RES1    0.0000
     41 H7         4.8925    3.3609    3.8761 H         1 RES1    0.0000
     42 H8         3.4566    3.9417    3.6051 H         1 RES1    0.0000
     43 H9         5.8660    5.4467    3.4229 H         1 RES1    0.0000
     44 H10        5.7739    5.3580    1.1680 H         1 RES1    0.0000
     45 H11        5.0589    3.9868    1.4218 H         1 RES1    0.0000
     46 H12        3.8732    5.9853    0.1121 H         1 RES1    0.0000
     47 H13        3.0247    4.8194    0.8659 H         1 RES1    0.0000
     48 H14        4.7293    7.3404    3.0772 H         1 RES1    0.0000
     49 H15        1.9835    1.7059    6.3553 H         1 RES1    0.0000
     50 H16        0.9457   -0.0757    7.4329 H         1 RES1    0.0000
     51 H17        3.5631    0.1732   10.5148 H         1 RES1    0.0000
     52 H18        4.6575    1.9388    9.3640 H         1 RES1    0.0000
@<TRIPOS>BOND
     1    1   11 2
     2    2   14 1
     3    3   15 1
     4    4   21 1
     5    5   27 2
     6    6   10 2
     7    7   10 2
     8    9   11 1
     9   10   31 1
    10   11   12 1
    11   12   13 ar
    12   13   14 ar
    13   14   16 ar
    14   15    2 1
    15   16    3 1
    16   17   16 ar
    17   18   12 ar
    18   19   18 1
    19   20   19 2
    20   21   20 1
    21   22   21 1
    22   23   22 1
    23   24   23 1
    24   25    9 1
    25   26    9 1
    26   27    4 1
    27   28   27 1
    28   29   28 ar
    29   30   29 ar
    30   31   30 ar
    31   32   31 ar
    32   33   28 ar
    33   35   13 1
    34   36   15 1
    35   37   15 1
    36   38   17 1
    37   39   20 1
    38   40   21 1
    39   41   22 1
    40   42   22 1
    41   43   23 1
    42   44   24 1
    43   45   24 1
    44   46   25 1
    45   47   25 1
    46   48   26 1
    47   49   29 1
    48   50   30 1
    49   51   32 1
    50   52   33 1
    51   17   18 ar
    52   19   26 1
    53   23   26 1
    54   24   25 1
    55   32   33 ar
@<TRIPOS>SUBSTRUCTURE
     1 RES1 1
     2 SUP2 8

@<TRIPOS>CRYSIN
   8.4513   14.5557   15.5729  90.0000  90.0000  90.0000  19 1

