# MOL2 file generated by ConQuest
# Please check atom types

@<TRIPOS>MOLECULE
VUXLUV
    25    25     1
SMALL
NO_CHARGES
****
Generated from CSD

@<TRIPOS>ATOM
      1 N1        -1.4292    1.5504    6.8053 N.3       1 RES1    0.0000
      2 C1        -1.6277    0.2060    6.7867 C.2       1 RES1    0.0000
      3 N2        -2.5765   -0.1981    7.5892 N.2       1 RES1    0.0000
      4 C2        -3.0318    0.9489    8.1755 C.2       1 RES1    0.0000
      5 C3        -2.3395    2.0158    7.7041 C.2       1 RES1    0.0000
      6 N3        -0.8656   -0.7107    5.9893 N.pl3     1 RES1    0.0000
      7 O1         0.1105   -0.2877    5.3844 O.2       1 RES1    0.0000
      8 O2        -1.2295   -1.8759    5.9724 O.2       1 RES1    0.0000
      9 C4        -0.4859    2.4262    6.1041 C.3       1 RES1    0.0000
     10 C5         0.8457    2.5544    6.8323 C.3       1 RES1    0.0000
     11 O3         0.6521    2.8437    8.2092 O.3       1 RES1    0.0000
     12 C6         1.6401    3.7124    6.2765 C.3       1 RES1    0.0000
     13 O4         1.9014    3.4931    4.9130 O.3       1 RES1    0.0000
     14 C7         2.7045    4.5175    4.3656 C.3       1 RES1    0.0000
     15 H1        -3.7784    0.9828    8.8698 H         1 RES1    0.0000
     16 H2        -2.4710    2.9954    7.9744 H         1 RES1    0.0000
     17 H3        -0.8757    3.3414    5.9977 H         1 RES1    0.0000
     18 H4        -0.3114    2.0520    5.1698 H         1 RES1    0.0000
     19 H5         1.3363    1.6667    6.7242 H         1 RES1    0.0000
     20 H6         0.6276    2.0284    8.7178 H         1 RES1    0.0000
     21 H7         2.4985    3.8209    6.7749 H         1 RES1    0.0000
     22 H8         1.0983    4.5600    6.3863 H         1 RES1    0.0000
     23 H9         2.8841    4.3398    3.3790 H         1 RES1    0.0000
     24 H10        2.2436    5.4091    4.4265 H         1 RES1    0.0000
     25 H11        3.5928    4.5757    4.8319 H         1 RES1    0.0000
@<TRIPOS>BOND
     1    1    2 1
     2    2    3 2
     3    3    4 1
     4    4    5 2
     5    5    1 1
     6    6    2 1
     7    7    6 2
     8    8    6 2
     9    9    1 1
    10   10    9 1
    11   11   10 1
    12   12   10 1
    13   13   12 1
    14   14   13 1
    15   15    4 1
    16   16    5 1
    17   17    9 1
    18   18    9 1
    19   19   10 1
    20   20   11 1
    21   21   12 1
    22   22   12 1
    23   23   14 1
    24   24   14 1
    25   25   14 1
@<TRIPOS>SUBSTRUCTURE
     1 RES1 1

@<TRIPOS>CRYSIN
   6.9970    7.8620   17.0240  90.0000  97.0600  90.0000  14 1

