# MOL2 file generated by ConQuest
# Please check atom types

@<TRIPOS>MOLECULE
VUXVUG
    60    62     1
SMALL
NO_CHARGES
****
Generated from CSD

@<TRIPOS>ATOM
      1 O1         4.2877    3.4689    3.6898 O.2       1 RES1    0.0000
      2 O2         3.1929    0.4246    4.9450 O.3       1 RES1    0.0000
      3 N1         4.0626    1.5177    4.7874 N.am      1 RES1    0.0000
      4 C1         2.2983    1.9439    0.2102 C.ar      1 RES1    0.0000
      5 C2         1.4880    2.7712   -0.5209 C.ar      1 RES1    0.0000
      6 C3         0.6852    2.2340   -1.5767 C.ar      1 RES1    0.0000
      7 C4         0.7368    0.9156   -1.8364 C.ar      1 RES1    0.0000
      8 C5         1.5311    0.0972   -1.1346 C.ar      1 RES1    0.0000
      9 C6         2.2912    0.6093   -0.1175 C.ar      1 RES1    0.0000
     10 C7         3.1629    2.4649    1.3340 C.3       1 RES1    0.0000
     11 C8         2.7414    1.9399    2.7175 C.3       1 RES1    0.0000
     12 C9         1.3747    2.4609    3.1442 C.3       1 RES1    0.0000
     13 C10        3.7511    2.3790    3.7563 C.2       1 RES1    0.0000
     14 C11        3.7166   -0.9116    4.5369 C.3       1 RES1    0.0000
     15 C12        2.4844   -1.6020    4.0145 C.3       1 RES1    0.0000
     16 C13        4.2385   -1.6319    5.7659 C.3       1 RES1    0.0000
     17 C14        4.7979   -0.8103    3.4873 C.3       1 RES1    0.0000
     18 C15        4.5002    2.1360    6.0719 C.3       1 RES1    0.0000
     19 C16        3.2714    2.5776    6.8541 C.3       1 RES1    0.0000
     20 C17        5.4775    1.2600    6.8093 C.ar      1 RES1    0.0000
     21 C18        5.1596    0.7341    8.0382 C.ar      1 RES1    0.0000
     22 C19        6.0399   -0.0794    8.7384 C.ar      1 RES1    0.0000
     23 C20        7.2470   -0.3800    8.2191 C.ar      1 RES1    0.0000
     24 C21        7.6543    0.1434    6.9608 C.ar      1 RES1    0.0000
     25 C22        6.7677    1.0015    6.2559 C.ar      1 RES1    0.0000
     26 C23        7.2032    1.5671    5.0239 C.ar      1 RES1    0.0000
     27 C24        8.4452    1.2738    4.5292 C.ar      1 RES1    0.0000
     28 C25        9.2930    0.3849    5.2295 C.ar      1 RES1    0.0000
     29 C26        8.9065   -0.1515    6.4058 C.ar      1 RES1    0.0000
     30 H1         1.4841    3.8376   -0.2968 H         1 RES1    0.0000
     31 H2         0.0772    2.8855   -2.1270 H         1 RES1    0.0000
     32 H3         0.1735    0.6312   -2.6140 H         1 RES1    0.0000
     33 H4         1.4957   -0.9229   -1.3449 H         1 RES1    0.0000
     34 H5         2.8830   -0.0235    0.4576 H         1 RES1    0.0000
     35 H6         3.1331    3.4948    1.3371 H         1 RES1    0.0000
     36 H7         4.1374    2.2218    1.1547 H         1 RES1    0.0000
     37 H8         2.6363    0.9270    2.6789 H         1 RES1    0.0000
     38 H9         1.1029    2.0849    4.0469 H         1 RES1    0.0000
     39 H10        1.4087    3.4729    3.2431 H         1 RES1    0.0000
     40 H11        0.6596    2.2356    2.4826 H         1 RES1    0.0000
     41 H12        2.6789   -2.5370    3.7115 H         1 RES1    0.0000
     42 H13        1.7690   -1.6644    4.7518 H         1 RES1    0.0000
     43 H14        2.0698   -1.0915    3.2524 H         1 RES1    0.0000
     44 H15        4.6110   -2.5403    5.5046 H         1 RES1    0.0000
     45 H16        4.9996   -1.1044    6.1786 H         1 RES1    0.0000
     46 H17        3.5261   -1.7592    6.4429 H         1 RES1    0.0000
     47 H18        5.1574   -1.7308    3.2276 H         1 RES1    0.0000
     48 H19        5.6035   -0.2820    3.8367 H         1 RES1    0.0000
     49 H20        4.4818   -0.3598    2.6526 H         1 RES1    0.0000
     50 H21        5.0472    2.9924    5.8864 H         1 RES1    0.0000
     51 H22        3.5224    3.0151    7.7275 H         1 RES1    0.0000
     52 H23        2.7063    1.7600    7.0767 H         1 RES1    0.0000
     53 H24        2.7012    3.2128    6.3301 H         1 RES1    0.0000
     54 H25        4.2303    0.9489    8.4417 H         1 RES1    0.0000
     55 H26        5.7574   -0.4546    9.6551 H         1 RES1    0.0000
     56 H27        7.8752   -1.0007    8.7431 H         1 RES1    0.0000
     57 H28        6.5789    2.2064    4.5091 H         1 RES1    0.0000
     58 H29        8.7507    1.6781    3.6512 H         1 RES1    0.0000
     59 H30       10.2268    0.1864    4.8477 H         1 RES1    0.0000
     60 H31        9.5284   -0.7884    6.8974 H         1 RES1    0.0000
@<TRIPOS>BOND
     1    1   13 2
     2    2    3 1
     3    3   13 1
     4    4    5 ar
     5    5    6 ar
     6    6    7 ar
     7    7    8 ar
     8    8    9 ar
     9    9    4 ar
    10   10    4 1
    11   11   10 1
    12   12   11 1
    13   13   11 1
    14   14    2 1
    15   15   14 1
    16   16   14 1
    17   17   14 1
    18   18    3 1
    19   19   18 1
    20   20   18 1
    21   21   20 ar
    22   22   21 ar
    23   23   22 ar
    24   24   23 ar
    25   25   20 ar
    26   26   25 ar
    27   27   26 ar
    28   28   27 ar
    29   29   24 ar
    30   30    5 1
    31   31    6 1
    32   32    7 1
    33   33    8 1
    34   34    9 1
    35   35   10 1
    36   36   10 1
    37   37   11 1
    38   38   12 1
    39   39   12 1
    40   40   12 1
    41   41   15 1
    42   42   15 1
    43   43   15 1
    44   44   16 1
    45   45   16 1
    46   46   16 1
    47   47   17 1
    48   48   17 1
    49   49   17 1
    50   50   18 1
    51   51   19 1
    52   52   19 1
    53   53   19 1
    54   54   21 1
    55   55   22 1
    56   56   23 1
    57   57   26 1
    58   58   27 1
    59   59   28 1
    60   60   29 1
    61   24   25 ar
    62   28   29 ar
@<TRIPOS>SUBSTRUCTURE
     1 RES1 1

@<TRIPOS>CRYSIN
  36.4340    8.1030   15.8040  90.0000 102.0100  90.0000  15 1

