# MOL2 file generated by ConQuest
# Please check atom types

@<TRIPOS>MOLECULE
VUXWUI
    36    38     1
SMALL
NO_CHARGES
****
Generated from CSD

@<TRIPOS>ATOM
      1 O1         3.8820    9.7327    5.4686 O.3       1 RES1    0.0000
      2 O2         3.7376    8.6228    3.0663 O.3       1 RES1    0.0000
      3 O3         4.1688   11.6058    6.5722 O.2       1 RES1    0.0000
      4 O4         3.4638   13.2740   13.1715 O.2       1 RES1    0.0000
      5 O5         3.8248   11.3525   14.0535 O.2       1 RES1    0.0000
      6 N1         3.6743   12.0754   13.0859 N.pl3     1 RES1    0.0000
      7 C1         3.9583   10.4172    6.6557 C.2       1 RES1    0.0000
      8 C2         3.7819    9.6545    7.8974 C.2       1 RES1    0.0000
      9 C3         3.5163    8.3293    7.8085 C.2       1 RES1    0.0000
     10 C4         3.4509    7.6333    6.5610 C.ar      1 RES1    0.0000
     11 C5         3.1893    6.2518    6.4549 C.ar      1 RES1    0.0000
     12 C6         3.1239    5.6808    5.2259 C.ar      1 RES1    0.0000
     13 C7         3.3024    6.4391    4.0627 C.ar      1 RES1    0.0000
     14 C8         3.5639    7.7919    4.1324 C.ar      1 RES1    0.0000
     15 C9         3.6341    8.3854    5.4014 C.ar      1 RES1    0.0000
     16 C10        3.6627    8.0253    1.7465 C.3       1 RES1    0.0000
     17 C11        3.8023    9.1263    0.7517 C.3       1 RES1    0.0000
     18 C12        3.8316   10.3476    9.2161 C.ar      1 RES1    0.0000
     19 C13        3.5299   11.7043    9.3882 C.ar      1 RES1    0.0000
     20 C14        3.4958   12.2738   10.6465 C.ar      1 RES1    0.0000
     21 C15        3.7458   11.4777   11.7402 C.ar      1 RES1    0.0000
     22 C16        4.0769   10.1611   11.6182 C.ar      1 RES1    0.0000
     23 C17        4.1320    9.6006   10.3655 C.ar      1 RES1    0.0000
     24 H1         3.3705    7.8508    8.5925 H         1 RES1    0.0000
     25 H2         3.0639    5.7370    7.2195 H         1 RES1    0.0000
     26 H3         2.9570    4.7690    5.1545 H         1 RES1    0.0000
     27 H4         3.2438    6.0255    3.2311 H         1 RES1    0.0000
     28 H5         2.8112    7.5746    1.6307 H         1 RES1    0.0000
     29 H6         4.3739    7.3764    1.6307 H         1 RES1    0.0000
     30 H7         3.0817    9.7513    0.8623 H         1 RES1    0.0000
     31 H8         3.7771    8.7614   -0.1352 H         1 RES1    0.0000
     32 H9         4.6395    9.5763    0.8877 H         1 RES1    0.0000
     33 H10        3.3494   12.2301    8.6434 H         1 RES1    0.0000
     34 H11        3.3071   13.1777   10.7513 H         1 RES1    0.0000
     35 H12        4.2628    9.6501   12.3724 H         1 RES1    0.0000
     36 H13        4.3732    8.7067   10.2772 H         1 RES1    0.0000
@<TRIPOS>BOND
     1    1    7 1
     2    2   14 1
     3    3    7 2
     4    4    6 2
     5    5    6 2
     6    6   21 1
     7    7    8 1
     8    8    9 2
     9    9   10 1
    10   10   11 ar
    11   11   12 ar
    12   12   13 ar
    13   13   14 ar
    14   14   15 ar
    15   15    1 1
    16   16    2 1
    17   17   16 1
    18   18    8 1
    19   19   18 ar
    20   20   19 ar
    21   21   20 ar
    22   22   21 ar
    23   23   18 ar
    24   24    9 1
    25   25   11 1
    26   26   12 1
    27   27   13 1
    28   28   16 1
    29   29   16 1
    30   30   17 1
    31   31   17 1
    32   32   17 1
    33   33   19 1
    34   34   20 1
    35   35   22 1
    36   36   23 1
    37   10   15 ar
    38   22   23 ar
@<TRIPOS>SUBSTRUCTURE
     1 RES1 1

@<TRIPOS>CRYSIN
   6.8118   13.6726   15.9090  90.0000  90.0000  90.0000  19 1

