# MOL2 file generated by ConQuest
# Please check atom types

@<TRIPOS>MOLECULE
VUXWIW
    50    52     1
SMALL
NO_CHARGES
****
Generated from CSD

@<TRIPOS>ATOM
      1 O1        -5.3002    5.1313   16.5116 O.2       1 RES1    0.0000
      2 O2        -4.7330    6.9186   17.5577 O.2       1 RES1    0.0000
      3 O3        -0.5307    7.4638   19.6138 O.2       1 RES1    0.0000
      4 O4         1.0354    5.9984   19.3056 O.2       1 RES1    0.0000
      5 N1        -3.0054    2.2739   15.2526 N.2       1 RES1    0.0000
      6 N2        -3.5293    3.3094   15.9733 N.pl3     1 RES1    0.0000
      7 H1        -4.3199    3.6881   15.8629 H         1 RES1    0.0000
      8 N3        -4.4792    5.8023   17.1488 N.pl3     1 RES1    0.0000
      9 N4        -0.1272    6.3968   19.1701 N.pl3     1 RES1    0.0000
     10 C1        -3.7234    1.8373   14.2766 C.2       1 RES1    0.0000
     11 C2        -5.0506    2.3547   13.8588 C.2       1 RES1    0.0000
     12 H2        -5.7663    1.7330   13.7937 H         1 RES1    0.0000
     13 C3        -5.3081    3.6227   13.5694 C.2       1 RES1    0.0000
     14 H3        -4.6150    4.2635   13.6815 H         1 RES1    0.0000
     15 C4        -6.5780    4.0680   13.0955 C.1       1 RES1    0.0000
     16 C5        -7.6377    4.4214   12.6686 C.1       1 RES1    0.0000
     17 C6        -8.9165    4.7378   12.0916 C.ar      1 RES1    0.0000
     18 C7        -9.9073    3.7504   12.0410 C.ar      1 RES1    0.0000
     19 H4        -9.7479    2.8950   12.4226 H         1 RES1    0.0000
     20 C8       -11.1257    4.0255   11.4351 C.ar      1 RES1    0.0000
     21 H5       -11.7957    3.3526   11.3971 H         1 RES1    0.0000
     22 C9       -11.3715    5.2608   10.8888 C.ar      1 RES1    0.0000
     23 H6       -12.2026    5.4372   10.4637 H         1 RES1    0.0000
     24 C10      -10.4076    6.2463   10.9575 C.ar      1 RES1    0.0000
     25 H7       -10.5809    7.1061   10.5940 H         1 RES1    0.0000
     26 C11       -9.1780    5.9811   11.5581 C.ar      1 RES1    0.0000
     27 H8        -8.5173    6.6620   11.6015 H         1 RES1    0.0000
     28 C12       -3.1791    0.6827   13.5133 C.ar      1 RES1    0.0000
     29 C13       -3.5985    0.4447   12.2164 C.ar      1 RES1    0.0000
     30 H9        -4.2454    1.0139   11.8185 H         1 RES1    0.0000
     31 C14       -3.0790   -0.6186   11.4911 C.ar      1 RES1    0.0000
     32 H10       -3.3691   -0.7648   10.5976 H         1 RES1    0.0000
     33 C15       -2.1340   -1.4752   12.0609 C.ar      1 RES1    0.0000
     34 C16       -1.7177   -1.2403   13.3614 C.ar      1 RES1    0.0000
     35 H11       -1.0882   -1.8256   13.7666 H         1 RES1    0.0000
     36 C17       -2.2080   -0.1684   14.0777 C.ar      1 RES1    0.0000
     37 H12       -1.8887   -0.0019   14.9567 H         1 RES1    0.0000
     38 C18       -1.6121   -2.6551   11.2831 C.3       1 RES1    0.0000
     39 H13       -1.5147   -3.4241   11.8818 H         1 RES1    0.0000
     40 H14       -0.7413   -2.4306   10.8942 H         1 RES1    0.0000
     41 H15       -2.2429   -2.8783   10.5650 H         1 RES1    0.0000
     42 C19       -2.7529    4.0298   16.8180 C.ar      1 RES1    0.0000
     43 C20       -3.1584    5.2330   17.4022 C.ar      1 RES1    0.0000
     44 C21       -2.3136    6.0046   18.1926 C.ar      1 RES1    0.0000
     45 H16       -2.6054    6.8304   18.5598 H         1 RES1    0.0000
     46 C22       -1.0378    5.5359   18.4260 C.ar      1 RES1    0.0000
     47 C23       -0.6124    4.3418   17.8942 C.ar      1 RES1    0.0000
     48 H17        0.2682    4.0390   18.0805 H         1 RES1    0.0000
     49 C24       -1.4198    3.5833   17.1074 C.ar      1 RES1    0.0000
     50 H18       -1.1023    2.7605   16.7510 H         1 RES1    0.0000
@<TRIPOS>BOND
     1    1    8 2
     2    2    8 2
     3    3    9 2
     4    4    9 2
     5    5    6 1
     6    6    7 1
     7    8   43 1
     8    9   46 1
     9   10    5 2
    10   11   10 1
    11   12   11 1
    12   13   11 2
    13   14   13 1
    14   15   13 1
    15   16   15 3
    16   17   16 1
    17   18   17 ar
    18   19   18 1
    19   20   18 ar
    20   21   20 1
    21   22   20 ar
    22   23   22 1
    23   24   22 ar
    24   25   24 1
    25   26   17 ar
    26   27   26 1
    27   28   10 1
    28   29   28 ar
    29   30   29 1
    30   31   29 ar
    31   32   31 1
    32   33   31 ar
    33   34   33 ar
    34   35   34 1
    35   36   28 ar
    36   37   36 1
    37   38   33 1
    38   39   38 1
    39   40   38 1
    40   41   38 1
    41   42    6 1
    42   43   42 ar
    43   44   43 ar
    44   45   44 1
    45   46   44 ar
    46   47   46 ar
    47   48   47 1
    48   49   42 ar
    49   50   49 1
    50   24   26 ar
    51   34   36 ar
    52   47   49 ar
@<TRIPOS>SUBSTRUCTURE
     1 RES1 1

@<TRIPOS>CRYSIN
  18.4810    6.1674   19.2366  90.0000 109.9020  90.0000 231 1

