# MOL2 file generated by ConQuest
# Please check atom types

@<TRIPOS>MOLECULE
VUXXAN
    35    37     1
SMALL
NO_CHARGES
****
Generated from CSD

@<TRIPOS>ATOM
      1 O1        -1.1146    2.0566    9.5332 O.3       1 RES1    0.0000
      2 N1        -1.6518    2.0224   10.8095 N.2       1 RES1    0.0000
      3 N2         1.2090    5.4345   10.5841 N.2       1 RES1    0.0000
      4 C1        -1.3209    3.0425   11.5015 C.2       1 RES1    0.0000
      5 N3        -0.4817    4.0892   10.9528 N.pl3     1 RES1    0.0000
      6 N4         0.0665    5.9787   10.0121 N.2       1 RES1    0.0000
      7 C2        -0.9355    5.0991   10.2362 C.2       1 RES1    0.0000
      8 C3        -2.3482    5.3155    9.7794 C.3       1 RES1    0.0000
      9 C4         0.8668    4.3094   11.1488 C.2       1 RES1    0.0000
     10 C5         1.7686    3.3943   11.8567 C.ar      1 RES1    0.0000
     11 C6         1.6396    2.0136   11.7661 C.ar      1 RES1    0.0000
     12 C7         2.5251    1.1783   12.3945 C.ar      1 RES1    0.0000
     13 C8         3.5619    1.6883   13.1318 C.ar      1 RES1    0.0000
     14 C9         3.6996    3.0552   13.2347 C.ar      1 RES1    0.0000
     15 C10        2.8164    3.9094   12.6027 C.ar      1 RES1    0.0000
     16 C11       -1.7512    3.1842   12.9077 C.ar      1 RES1    0.0000
     17 C12       -2.5006    2.1870   13.5434 C.ar      1 RES1    0.0000
     18 C13       -2.8763    2.3325   14.8760 C.ar      1 RES1    0.0000
     19 C14       -2.5266    3.4538   15.5767 C.ar      1 RES1    0.0000
     20 C15       -1.7879    4.4663   14.9606 C.ar      1 RES1    0.0000
     21 C16       -1.4040    4.3157   13.6475 C.ar      1 RES1    0.0000
     22 H1        -1.2454    1.1390    9.1375 H         1 RES1    0.0000
     23 H2        -2.9129    4.4929   10.0929 H         1 RES1    0.0000
     24 H3        -2.3627    5.3408    8.7088 H         1 RES1    0.0000
     25 H4        -2.7519    6.2014   10.1419 H         1 RES1    0.0000
     26 H5         0.8386    1.6073   11.2198 H         1 RES1    0.0000
     27 H6         2.4201    0.1392   12.2854 H         1 RES1    0.0000
     28 H7         4.2073    1.0631   13.6450 H         1 RES1    0.0000
     29 H8         4.5069    3.4424   13.7798 H         1 RES1    0.0000
     30 H9         2.9281    4.9485   12.6774 H         1 RES1    0.0000
     31 H10       -2.7646    1.3162   13.0204 H         1 RES1    0.0000
     32 H11       -3.4442    1.5947   15.3354 H         1 RES1    0.0000
     33 H12       -2.8036    3.5563   16.5847 H         1 RES1    0.0000
     34 H13       -1.5246    5.3155   15.4946 H         1 RES1    0.0000
     35 H14       -0.8393    5.0751   13.1918 H         1 RES1    0.0000
@<TRIPOS>BOND
     1    1    2 1
     2    2    4 2
     3    3    6 1
     4    4    5 1
     5    5    7 1
     6    6    7 2
     7    7    8 1
     8    8   23 1
     9    9    3 2
    10   10    9 1
    11   11   10 ar
    12   12   11 ar
    13   13   12 ar
    14   14   13 ar
    15   15   10 ar
    16   16    4 1
    17   17   16 ar
    18   18   17 ar
    19   19   18 ar
    20   20   19 ar
    21   21   16 ar
    22   22    1 1
    23   24    8 1
    24   25    8 1
    25   26   11 1
    26   27   12 1
    27   28   13 1
    28   29   14 1
    29   30   15 1
    30   31   17 1
    31   32   18 1
    32   33   19 1
    33   34   20 1
    34   35   21 1
    35    5    9 1
    36   14   15 ar
    37   20   21 ar
@<TRIPOS>SUBSTRUCTURE
     1 RES1 1

@<TRIPOS>CRYSIN
   9.8690   12.6560   12.9390  90.0000 108.8000  90.0000 231 1

