# MOL2 file generated by ConQuest
# Please check atom types

@<TRIPOS>MOLECULE
VUYKUV
    50    50     2
SMALL
NO_CHARGES
****
Generated from CSD

@<TRIPOS>ATOM
      1 C1         2.7022    6.0020    0.3515 C.2       1 RES1    0.0000
      2 C2         4.2205    6.3758    2.0318 C.ar      1 RES1    0.0000
      3 C3         4.4771    7.1762    3.1484 C.ar      1 RES1    0.0000
      4 C4         5.3588    6.7749    4.1258 C.ar      1 RES1    0.0000
      5 C5         6.0122    5.5808    3.9934 C.ar      1 RES1    0.0000
      6 C6         5.8108    4.7759    2.8908 C.ar      1 RES1    0.0000
      7 C7         4.9279    5.1780    1.9213 C.ar      1 RES1    0.0000
      8 C8         1.2169    5.3189   -1.4340 C.3       1 RES1    0.0000
      9 C9         1.5416    7.7227   -0.8853 C.3       1 RES1    0.0000
     10 N1         1.8416    6.3405   -0.6074 N.3       1 RES1    0.0000
     11 N2         3.3136    6.8582    1.0956 N.2       1 RES1    0.0000
     12 N3         6.9442    5.1424    5.0233 N.pl3     1 RES1    0.0000
     13 O1         7.6434    4.1574    4.8094 O.2       1 RES1    0.0000
     14 O2         6.9940    5.7899    6.0672 O.2       1 RES1    0.0000
     15 C10        1.7242    1.9380   -2.5165 C.2       2 RES2    0.0000
     16 C11        2.4555    1.3666   -0.4120 C.ar      2 RES2    0.0000
     17 C12        2.2253    0.4650    0.6285 C.ar      2 RES2    0.0000
     18 C13        3.2008    0.1886    1.5602 C.ar      2 RES2    0.0000
     19 C14        4.4218    0.8395    1.4734 C.ar      2 RES2    0.0000
     20 C15        4.6647    1.7633    0.4821 C.ar      2 RES2    0.0000
     21 C16        3.6895    2.0274   -0.4409 C.ar      2 RES2    0.0000
     22 C17        1.2143    2.7113   -4.7639 C.3       2 RES2    0.0000
     23 C18       -0.5851    2.3563   -3.0888 C.3       2 RES2    0.0000
     24 N4         0.8201    2.2822   -3.4316 N.3       2 RES2    0.0000
     25 N5         1.4144    1.5913   -1.3139 N.2       2 RES2    0.0000
     26 N6         5.4598    0.5451    2.4481 N.pl3     2 RES2    0.0000
     27 O3         6.4919    1.1988    2.4288 O.2       2 RES2    0.0000
     28 O4         5.2648   -0.3570    3.2641 O.2       2 RES2    0.0000
     29 H1         2.8009    5.0278    0.4558 H         1 RES1    0.0000
     30 H2         4.0184    8.0238    3.1905 H         1 RES1    0.0000
     31 H3         5.5631    7.3405    4.8734 H         1 RES1    0.0000
     32 H4         6.2632    3.9514    2.8662 H         1 RES1    0.0000
     33 H5         4.7806    4.6361    1.1745 H         1 RES1    0.0000
     34 H6         1.5338    5.3904   -2.2965 H         1 RES1    0.0000
     35 H7         0.3034    5.5901   -1.5427 H         1 RES1    0.0000
     36 H8         1.3346    4.4447   -1.1219 H         1 RES1    0.0000
     37 H9         0.6714    7.8614   -0.9028 H         1 RES1    0.0000
     38 H10        1.8862    8.0177   -1.5777 H         1 RES1    0.0000
     39 H11        1.9978    8.3980   -0.2805 H         1 RES1    0.0000
     40 H12        2.6244    1.9317   -2.8487 H         2 RES2    0.0000
     41 H13        1.3338    0.0348    0.7012 H         2 RES2    0.0000
     42 H14        3.0890   -0.5129    2.2877 H         2 RES2    0.0000
     43 H15        5.5269    2.1747    0.4383 H         2 RES2    0.0000
     44 H16        3.8704    2.6775   -1.1395 H         2 RES2    0.0000
     45 H17        0.6780    2.1874   -5.4169 H         2 RES2    0.0000
     46 H18        1.0466    3.8103   -4.9260 H         2 RES2    0.0000
     47 H19        2.2212    2.6005   -4.8997 H         2 RES2    0.0000
     48 H20       -0.8094    1.6318   -2.4192 H         2 RES2    0.0000
     49 H21       -1.0946    2.0994   -3.7865 H         2 RES2    0.0000
     50 H22       -0.8772    3.1835   -2.8662 H         2 RES2    0.0000
@<TRIPOS>BOND
     1    1   10 1
     2    2    3 ar
     3    3    4 ar
     4    4    5 ar
     5    5    6 ar
     6    6    7 ar
     7    7    2 ar
     8    8   10 1
     9    9   10 1
    10   11    1 2
    11   12    5 1
    12   13   12 2
    13   14   12 2
    14   15   24 1
    15   16   17 ar
    16   17   18 ar
    17   18   19 ar
    18   19   20 ar
    19   20   21 ar
    20   21   16 ar
    21   22   24 1
    22   23   24 1
    23   25   15 2
    24   26   19 1
    25   27   26 2
    26   28   26 2
    27   29    1 1
    28   30    3 1
    29   31    4 1
    30   32    6 1
    31   33    7 1
    32   34    8 1
    33   35    8 1
    34   36    8 1
    35   37    9 1
    36   38    9 1
    37   39    9 1
    38   40   15 1
    39   41   17 1
    40   42   18 1
    41   43   20 1
    42   44   21 1
    43   45   22 1
    44   46   22 1
    45   47   22 1
    46   48   23 1
    47   49   23 1
    48   50   23 1
    49    2   11 1
    50   16   25 1
@<TRIPOS>SUBSTRUCTURE
     1 RES1 1
     2 RES2 15

@<TRIPOS>CRYSIN
  10.1150   10.8620    9.0040  99.5600  99.2500  88.8250   2 1

