# MOL2 file generated by ConQuest
# Please check atom types

@<TRIPOS>MOLECULE
VUYLEG
    37    37     1
SMALL
NO_CHARGES
****
Generated from CSD

@<TRIPOS>ATOM
      1 N1        -7.2352    3.9832   12.5359 N.3       1 RES1    0.0000
      2 N2        -5.9704    5.0320   10.8386 N.2       1 RES1    0.0000
      3 N3        -1.8296    1.2663   10.4264 N.pl3     1 RES1    0.0000
      4 O1        -0.6848    1.6544   10.6316 O.2       1 RES1    0.0000
      5 O2        -2.0984    0.0936   10.1944 O.2       1 RES1    0.0000
      6 C1        -7.0669    4.8900   11.5097 C.2       1 RES1    0.0000
      7 C2        -4.9712    4.0670   10.7512 C.ar      1 RES1    0.0000
      8 C3        -3.6415    4.4672   10.8476 C.ar      1 RES1    0.0000
      9 C4        -2.6189    3.5595   10.7369 C.ar      1 RES1    0.0000
     10 C5        -2.9129    2.2321   10.4924 C.ar      1 RES1    0.0000
     11 C6        -4.2108    1.8122   10.3068 C.ar      1 RES1    0.0000
     12 C7        -5.2358    2.7221   10.4335 C.ar      1 RES1    0.0000
     13 C8        -8.4732    3.2605   12.8036 C.3       1 RES1    0.0000
     14 C9        -6.1124    3.4991   13.3105 C.3       1 RES1    0.0000
     15 C10       -8.1963    5.8830   11.1884 C.3       1 RES1    0.0000
     16 C11       -9.0757    5.3136   10.0694 C.3       1 RES1    0.0000
     17 C12       -9.0195    6.2719   12.4217 C.3       1 RES1    0.0000
     18 C13       -7.5595    7.1735   10.6477 C.3       1 RES1    0.0000
     19 H1        -3.4161    5.4292   11.0118 H         1 RES1    0.0000
     20 H2        -1.6935    3.8435   10.8154 H         1 RES1    0.0000
     21 H3        -4.4247    0.8910   10.0837 H         1 RES1    0.0000
     22 H4        -6.1443    2.4390   10.2979 H         1 RES1    0.0000
     23 H5        -9.1978    3.4810   12.2254 H         1 RES1    0.0000
     24 H6        -8.8047    3.4886   13.7067 H         1 RES1    0.0000
     25 H7        -8.2965    2.2729   12.7429 H         1 RES1    0.0000
     26 H8        -5.2892    4.1379   13.1891 H         1 RES1    0.0000
     27 H9        -5.8672    2.5749   13.0463 H         1 RES1    0.0000
     28 H10       -6.3779    3.4810   14.2421 H         1 RES1    0.0000
     29 H11       -9.4965    4.4551   10.3336 H         1 RES1    0.0000
     30 H12       -8.4513    5.2102    9.1378 H         1 RES1    0.0000
     31 H13       -9.8387    5.9124    9.9052 H         1 RES1    0.0000
     32 H14       -9.5527    5.4896   12.7072 H         1 RES1    0.0000
     33 H15       -9.6184    7.0526   12.2432 H         1 RES1    0.0000
     34 H16       -8.3779    6.5090   13.1713 H         1 RES1    0.0000
     35 H17       -7.0183    7.0073    9.7624 H         1 RES1    0.0000
     36 H18       -7.0297    7.5737   11.4222 H         1 RES1    0.0000
     37 H19       -8.3093    7.8002   10.4406 H         1 RES1    0.0000
@<TRIPOS>BOND
     1    1    6 1
     2    2    6 2
     3    3    4 2
     4    5    3 2
     5    6   15 1
     6    7    2 1
     7    8    7 ar
     8    9    8 ar
     9   10    3 1
    10   11   10 ar
    11   12    7 ar
    12   13    1 1
    13   14    1 1
    14   15   16 1
    15   16   29 1
    16   17   15 1
    17   18   15 1
    18   19    8 1
    19   20    9 1
    20   21   11 1
    21   22   12 1
    22   23   13 1
    23   24   13 1
    24   25   13 1
    25   26   14 1
    26   27   14 1
    27   28   14 1
    28   30   16 1
    29   31   16 1
    30   32   17 1
    31   33   17 1
    32   34   17 1
    33   35   18 1
    34   36   18 1
    35   37   18 1
    36    9   10 ar
    37   11   12 ar
@<TRIPOS>SUBSTRUCTURE
     1 RES1 1

@<TRIPOS>CRYSIN
  10.0840    7.5510   19.2340  90.0000 111.8900  90.0000  14 1

