# MOL2 file generated by ConQuest
# Please check atom types

@<TRIPOS>MOLECULE
VUYLAC
    56    56     2
SMALL
NO_CHARGES
****
Generated from CSD

@<TRIPOS>ATOM
      1 C1         6.7810   -4.4401    2.6845 C.2       1 RES1    0.0000
      2 C2         6.6836   -2.1168    3.0689 C.ar      1 RES1    0.0000
      3 C3         7.2119   -1.5276    1.9202 C.ar      1 RES1    0.0000
      4 C4         7.6612   -0.2202    1.9382 C.ar      1 RES1    0.0000
      5 C5         7.5647    0.5106    3.0977 C.ar      1 RES1    0.0000
      6 C6         7.0449   -0.0486    4.2473 C.ar      1 RES1    0.0000
      7 C7         6.6038   -1.3470    4.2167 C.ar      1 RES1    0.0000
      8 C8         6.7587   -6.8640    2.2011 C.3       1 RES1    0.0000
      9 C9         4.6891   -5.6460    2.7457 C.3       1 RES1    0.0000
     10 C10        8.2662   -4.4551    2.4424 C.3       1 RES1    0.0000
     11 N1         6.1190   -5.6028    2.5414 N.pl3     1 RES1    0.0000
     12 N2         6.1238   -3.3928    3.0671 N.2       1 RES1    0.0000
     13 N3         8.0323    1.8813    3.1058 N.pl3     1 RES1    0.0000
     14 O1         7.8579    2.5501    4.1267 O.2       1 RES1    0.0000
     15 O2         8.5960    2.3216    2.1156 O.2       1 RES1    0.0000
     16 C11        4.1295    2.8448    2.4775 C.2       2 RES2    0.0000
     17 C12        2.9932    0.9919    1.5907 C.ar      2 RES2    0.0000
     18 C13        1.6327    0.7799    1.3657 C.ar      2 RES2    0.0000
     19 C14        1.1191   -0.4891    1.2927 C.ar      2 RES2    0.0000
     20 C15        1.9540   -1.5694    1.4188 C.ar      2 RES2    0.0000
     21 C16        3.2985   -1.4080    1.6555 C.ar      2 RES2    0.0000
     22 C17        3.8090   -0.1309    1.7339 C.ar      2 RES2    0.0000
     23 C18        5.4335    4.8146    3.2283 C.3       2 RES2    0.0000
     24 C19        4.8938    4.4724    0.8525 C.3       2 RES2    0.0000
     25 C20        4.1299    2.3599    3.9016 C.3       2 RES2    0.0000
     26 N4         4.7662    4.0110    2.2218 N.pl3     2 RES2    0.0000
     27 N5         3.5151    2.2657    1.5142 N.2       2 RES2    0.0000
     28 N6         1.4168   -2.9153    1.2936 N.pl3     2 RES2    0.0000
     29 O3         2.1339   -3.8528    1.4836 O.2       2 RES2    0.0000
     30 O4         0.2593   -3.0505    0.9561 O.2       2 RES2    0.0000
     31 H1         7.3014   -2.0033    1.0893 H         1 RES1    0.0000
     32 H2         7.9661    0.1666    1.1613 H         1 RES1    0.0000
     33 H3         6.9801    0.4881    5.0683 H         1 RES1    0.0000
     34 H4         6.2496   -1.7617    5.0593 H         1 RES1    0.0000
     35 H5         1.0421    1.5285    1.1973 H         2 RES2    0.0000
     36 H6         0.1887   -0.6758    1.1433 H         2 RES2    0.0000
     37 H7         3.8977   -2.1557    1.7285 H         2 RES2    0.0000
     38 H8         4.7624   -0.0313    1.8365 H         2 RES2    0.0000
     39 H9         7.8156   -6.7781    1.9985 H         1 RES1    0.0000
     40 H10        6.2442   -7.2377    1.3234 H         1 RES1    0.0000
     41 H11        6.6006   -7.5479    3.0248 H         1 RES1    0.0000
     42 H12        4.2908   -6.6423    2.6197 H         1 RES1    0.0000
     43 H13        4.1628   -4.9537    2.1066 H         1 RES1    0.0000
     44 H14        4.5741   -5.3451    3.7720 H         1 RES1    0.0000
     45 H15        8.7504   -3.5372    2.7367 H         1 RES1    0.0000
     46 H16        8.4356   -4.6409    1.3954 H         1 RES1    0.0000
     47 H17        8.6589   -5.2751    3.0248 H         1 RES1    0.0000
     48 H18        5.2307    4.4795    4.2401 H         2 RES2    0.0000
     49 H19        5.0980    5.8361    3.1058 H         2 RES2    0.0000
     50 H20        6.4954    4.7623    3.0428 H         2 RES2    0.0000
     51 H21        5.3712    5.4463    0.8642 H         2 RES2    0.0000
     52 H22        3.9281    4.5508    0.3691 H         2 RES2    0.0000
     53 H23        5.5180    3.7770    0.3061 H         2 RES2    0.0000
     54 H24        3.7117    1.3596    3.8980 H         2 RES2    0.0000
     55 H25        3.5561    2.9845    4.5732 H         2 RES2    0.0000
     56 H26        5.1577    2.3220    4.2311 H         2 RES2    0.0000
@<TRIPOS>BOND
     1    1   10 1
     2    2    3 ar
     3    3    4 ar
     4    4    5 ar
     5    5    6 ar
     6    6    7 ar
     7    7    2 ar
     8    8   11 1
     9    9   11 1
    10   10   45 1
    11   11    1 1
    12   12    1 2
    13   13    5 1
    14   14   13 2
    15   15   13 2
    16   16   25 1
    17   17   18 ar
    18   18   19 ar
    19   19   20 ar
    20   20   21 ar
    21   21   22 ar
    22   22   17 ar
    23   23   26 1
    24   24   26 1
    25   25   54 1
    26   26   16 1
    27   27   16 2
    28   28   20 1
    29   29   28 2
    30   30   28 2
    31   31    3 1
    32   32    4 1
    33   33    6 1
    34   34    7 1
    35   35   18 1
    36   36   19 1
    37   37   21 1
    38   38   22 1
    39   39    8 1
    40   40    8 1
    41   41    8 1
    42   42    9 1
    43   43    9 1
    44   44    9 1
    45   46   10 1
    46   47   10 1
    47   48   23 1
    48   49   23 1
    49   50   23 1
    50   51   24 1
    51   52   24 1
    52   53   24 1
    53   55   25 1
    54   56   25 1
    55    2   12 1
    56   17   27 1
@<TRIPOS>SUBSTRUCTURE
     1 RES1 1
     2 RES2 16

@<TRIPOS>CRYSIN
  10.5230   12.4100    9.5940  96.5900 110.2100  68.3800   2 1

