# MOL2 file generated by ConQuest
# Please check atom types

@<TRIPOS>MOLECULE
VUYWUI
    27    28     1
SMALL
NO_CHARGES
****
Generated from CSD

@<TRIPOS>ATOM
      1 C1         4.0249    1.8449    1.2518 C.ar      1 RES1    0.0000
      2 C2         4.6336    0.7562    1.8382 C.ar      1 RES1    0.0000
      3 H1         5.2765    0.8784    2.4996 H         1 RES1    0.0000
      4 C3         4.2847   -0.5085    1.4414 C.ar      1 RES1    0.0000
      5 H2         4.6801   -1.2432    1.8530 H         1 RES1    0.0000
      6 C4         3.3517   -0.7115    0.4380 C.ar      1 RES1    0.0000
      7 C5         2.7598    0.4235   -0.1577 C.ar      1 RES1    0.0000
      8 C6         3.0740    1.6874    0.2491 C.ar      1 RES1    0.0000
      9 H3         2.6629    2.4268   -0.1354 H         1 RES1    0.0000
     10 N1         4.4028    3.1718    1.6560 N.pl3     1 RES1    0.0000
     11 O1         3.8070    4.1342    1.1835 O.2       1 RES1    0.0000
     12 O2         5.3149    3.3057    2.4664 O.2       1 RES1    0.0000
     13 N2         2.9929   -1.9466    0.0108 N.3       1 RES1    0.0000
     14 H4         3.3478   -2.6445    0.3670 H         1 RES1    0.0000
     15 H5         2.4098   -2.0323   -0.6154 H         1 RES1    0.0000
     16 O3         1.8470    0.1013   -1.1340 O.3       1 RES1    0.0000
     17 C7         1.3523    1.0830   -1.9830 C.ar      1 RES1    0.0000
     18 C8         0.0223    1.3321   -1.9499 C.ar      1 RES1    0.0000
     19 H6        -0.5184    0.8893   -1.3365 H         1 RES1    0.0000
     20 C9        -0.5260    2.2296   -2.8117 C.ar      1 RES1    0.0000
     21 H7        -1.4417    2.3924   -2.7826 H         1 RES1    0.0000
     22 C10        0.2323    2.8790   -3.7000 C.ar      1 RES1    0.0000
     23 H8        -0.1537    3.4978   -4.2775 H         1 RES1    0.0000
     24 C11        1.5818    2.6323   -3.7582 C.ar      1 RES1    0.0000
     25 H9         2.1099    3.0797   -4.3797 H         1 RES1    0.0000
     26 C12        2.1639    1.7094   -2.8855 C.ar      1 RES1    0.0000
     27 H10        3.0761    1.5281   -2.9173 H         1 RES1    0.0000
@<TRIPOS>BOND
     1    1    2 ar
     2    2    3 1
     3    4    2 ar
     4    5    4 1
     5    6    4 ar
     6    7    6 ar
     7    8    1 ar
     8    9    8 1
     9   10    1 1
    10   11   10 2
    11   12   10 2
    12   13    6 1
    13   14   13 1
    14   15   13 1
    15   16    7 1
    16   17   16 1
    17   18   17 ar
    18   19   18 1
    19   20   18 ar
    20   21   20 1
    21   22   20 ar
    22   23   22 1
    23   24   22 ar
    24   25   24 1
    25   26   17 ar
    26   27   26 1
    27    7    8 ar
    28   24   26 ar
@<TRIPOS>SUBSTRUCTURE
     1 RES1 1

@<TRIPOS>CRYSIN
  10.4100   15.6570    6.9600  90.0000 103.4060  90.0000  14 1

