# MOL2 file generated by ConQuest
# Please check atom types

@<TRIPOS>MOLECULE
VUYWES
    32    34     1
SMALL
USER_CHARGES
****
Generated from CSD

@<TRIPOS>ATOM
      1 O1         9.9634    8.8250    0.0845 O.3       1 RES1    0.0000
      2 O2         5.3959    7.8654    1.7668 O.2       1 RES1    0.0000
      3 O3         9.0538    8.7599   -2.0063 O.2       1 RES1    0.0000
      4 N1         6.0991    7.0601    3.8479 N.am      1 RES1    0.0000
      5 N2         7.3326    6.8749    4.4687 N.3       1 RES1    0.0000
      6 N3         8.3918    8.0041    1.2566 N.pl3     1 RES1    1.0000
      7 N4         9.6032    8.5065    1.3768 N.2       1 RES1   -1.0000
      8 C1         3.7040    6.9536    4.1681 C.ar      1 RES1    0.0000
      9 C2         2.5778    7.2296    4.9379 C.ar      1 RES1    0.0000
     10 C3         2.6937    7.8655    6.1707 C.ar      1 RES1    0.0000
     11 C4         3.9466    8.2488    6.6341 C.ar      1 RES1    0.0000
     12 C5         5.0817    7.9953    5.8679 C.ar      1 RES1    0.0000
     13 C6         4.9511    7.3385    4.6451 C.ar      1 RES1    0.0000
     14 C7         8.3156    7.1360    3.5885 C.2       1 RES1    0.0000
     15 C8         7.7282    7.5591    2.4134 C.2       1 RES1    0.0000
     16 C9         6.2970    7.5400    2.5445 C.2       1 RES1    0.0000
     17 C10        8.9199    8.5242   -0.8162 C.2       1 RES1    0.0000
     18 C11        7.9040    7.9805   -0.0013 C.2       1 RES1    0.0000
     19 C12        7.4513    6.0123    5.6439 C.3       1 RES1    0.0000
     20 C13        9.7367    6.9279    3.9541 C.3       1 RES1    0.0000
     21 H1         3.6222    6.4763    3.3152 H         1 RES1    0.0000
     22 H2         1.7043    6.9582    4.6387 H         1 RES1    0.0000
     23 H3         1.9016    8.0315    6.7461 H         1 RES1    0.0000
     24 H4         4.0184    8.7106    7.5096 H         1 RES1    0.0000
     25 H5         5.9596    8.2798    6.1891 H         1 RES1    0.0000
     26 H6         7.0377    7.6679   -0.2081 H         1 RES1    0.0000
     27 H7        10.2522    6.8560    3.1493 H         1 RES1    0.0000
     28 H8        10.0235    7.7030    4.5057 H         1 RES1    0.0000
     29 H9         9.8319    6.1405    4.5042 H         1 RES1    0.0000
     30 H10        7.7847    6.5275    6.3534 H         1 RES1    0.0000
     31 H11        6.5645    5.6849    5.9154 H         1 RES1    0.0000
     32 H12        8.0035    5.2424    5.4585 H         1 RES1    0.0000
@<TRIPOS>BOND
     1    1    7 1
     2    2   16 2
     3    3   17 2
     4    4    5 1
     5    5   14 1
     6    6    7 1
     7    8    9 ar
     8    9   10 ar
     9   10   11 ar
    10   11   12 ar
    11   12   13 ar
    12   13    4 1
    13   14   15 2
    14   15    6 1
    15   16    4 1
    16   17    1 1
    17   18    6 2
    18   19    5 1
    19   20   14 1
    20   21    8 1
    21   22    9 1
    22   23   10 1
    23   24   11 1
    24   25   12 1
    25   26   18 1
    26   27   20 1
    27   28   20 1
    28   29   20 1
    29   30   19 1
    30   31   19 1
    31   32   19 1
    32    8   13 ar
    33   15   16 1
    34   17   18 1
@<TRIPOS>SUBSTRUCTURE
     1 RES1 1

@<TRIPOS>CRYSIN
  10.6525    7.3014   15.6828  90.0000  93.9820  90.0000  14 1

