# MOL2 file generated by ConQuest
# Please check atom types

@<TRIPOS>MOLECULE
VUZJAC
    24    24     1
SMALL
NO_CHARGES
****
Generated from CSD

@<TRIPOS>ATOM
      1 O1         5.0367    7.9810   16.2933 O.3       1 RES1    0.0000
      2 O2         5.5998    9.2006   11.7256 O.3       1 RES1    0.0000
      3 O3         1.2165    3.8287   12.9937 O.3       1 RES1    0.0000
      4 H1         0.9290    3.2444   13.6379 H         1 RES1    0.0000
      5 N1         2.1564    4.6374   13.6622 N.2       1 RES1    0.0000
      6 C1         4.7738    7.8192   14.9589 C.ar      1 RES1    0.0000
      7 C2         5.3163    8.6251   13.9634 C.ar      1 RES1    0.0000
      8 H2         5.9014    9.3385   14.1899 H         1 RES1    0.0000
      9 C3         4.9913    8.3749   12.6268 C.ar      1 RES1    0.0000
     10 C4         4.1016    7.3689   12.2851 C.ar      1 RES1    0.0000
     11 H3         3.8634    7.2215   11.3771 H         1 RES1    0.0000
     12 C5         3.5565    6.5682   13.3082 C.ar      1 RES1    0.0000
     13 C6         3.8889    6.7867   14.6372 C.ar      1 RES1    0.0000
     14 H4         3.5195    6.2404   15.3210 H         1 RES1    0.0000
     15 C7         5.9168    9.0556   16.6528 C.3       1 RES1    0.0000
     16 H5         6.7784    8.9369   16.2005 H         1 RES1    0.0000
     17 H6         6.0546    9.0542   17.6233 H         1 RES1    0.0000
     18 H7         5.5192    9.9084   16.3806 H         1 RES1    0.0000
     19 C8         5.2868    9.0008   10.3418 C.3       1 RES1    0.0000
     20 H8         5.5360    8.0896   10.0786 H         1 RES1    0.0000
     21 H9         5.7851    9.6462    9.7984 H         1 RES1    0.0000
     22 H10        4.3252    9.1301   10.2031 H         1 RES1    0.0000
     23 C9         2.5914    5.5495   12.8803 C.2       1 RES1    0.0000
     24 H11        2.2762    5.5683   11.9848 H         1 RES1    0.0000
@<TRIPOS>BOND
     1    1    6 1
     2    2    9 1
     3    3    4 1
     4    5    3 1
     5    6    7 ar
     6    7    8 1
     7    9    7 ar
     8   10    9 ar
     9   11   10 1
    10   12   10 ar
    11   13    6 ar
    12   14   13 1
    13   15    1 1
    14   16   15 1
    15   17   15 1
    16   18   15 1
    17   19    2 1
    18   20   19 1
    19   21   19 1
    20   22   19 1
    21   23    5 2
    22   24   23 1
    23   12   13 ar
    24   12   23 1
@<TRIPOS>SUBSTRUCTURE
     1 RES1 1

@<TRIPOS>CRYSIN
   4.4027   13.8000   14.3000  90.0000  90.0000  90.0000  19 1

