# MOL2 file generated by ConQuest
# Please check atom types

@<TRIPOS>MOLECULE
VUZLUY
    48    51     1
SMALL
NO_CHARGES
****
Generated from CSD

@<TRIPOS>ATOM
      1 O1         5.3662    1.9388    7.8919 O.3       1 RES1    0.0000
      2 O2        12.0800    4.0592    6.1334 O.3       1 RES1    0.0000
      3 O3         6.1904   -1.0807   10.5589 O.2       1 RES1    0.0000
      4 O4         7.8531   -1.6549   11.7309 O.2       1 RES1    0.0000
      5 N1         7.9842    0.4489    6.1738 N.2       1 RES1    0.0000
      6 N2         7.3864   -1.2517   10.6988 N.pl3     1 RES1    0.0000
      7 C1         7.5375    2.5847    7.3077 C.ar      1 RES1    0.0000
      8 C2         6.4586    2.7085    8.1605 C.ar      1 RES1    0.0000
      9 C3         6.5147    3.5940    9.2668 C.ar      1 RES1    0.0000
     10 H1         5.7815    3.6484    9.8686 H         1 RES1    0.0000
     11 C4         7.6165    4.3647    9.4665 C.ar      1 RES1    0.0000
     12 H2         7.6427    4.9535   10.2116 H         1 RES1    0.0000
     13 C5         8.7221    4.3099    8.5907 C.ar      1 RES1    0.0000
     14 C6         9.8648    5.1377    8.7470 C.ar      1 RES1    0.0000
     15 H3         9.8829    5.7717    9.4539 H         1 RES1    0.0000
     16 C7        10.9345    5.0471    7.9108 C.ar      1 RES1    0.0000
     17 H4        11.6818    5.6206    8.0310 H         1 RES1    0.0000
     18 C8        10.9313    4.0958    6.8600 C.ar      1 RES1    0.0000
     19 C9         9.8309    3.2964    6.6453 C.ar      1 RES1    0.0000
     20 H5         9.8267    2.6827    5.9201 H         1 RES1    0.0000
     21 C10        8.7010    3.3858    7.5036 C.ar      1 RES1    0.0000
     22 C11        7.4615    1.6180    6.1607 C.2       1 RES1    0.0000
     23 C12        6.7601    2.0641    4.9270 C.ar      1 RES1    0.0000
     24 C13        6.6661    3.4243    4.6262 C.ar      1 RES1    0.0000
     25 H6         7.0376    4.0672    5.2186 H         1 RES1    0.0000
     26 C14        6.0298    3.8407    3.4600 C.ar      1 RES1    0.0000
     27 H7         5.9773    4.7662    3.2521 H         1 RES1    0.0000
     28 C15        5.4746    2.9069    2.6045 C.ar      1 RES1    0.0000
     29 H8         5.0302    3.1934    1.8157 H         1 RES1    0.0000
     30 C16        5.5642    1.5533    2.8941 C.ar      1 RES1    0.0000
     31 H9         5.1905    0.9157    2.2980 H         1 RES1    0.0000
     32 C17        6.1996    1.1288    4.0544 C.ar      1 RES1    0.0000
     33 H10        6.2526    0.2018    4.2540 H         1 RES1    0.0000
     34 C18        8.5419   -0.0689    7.3707 C.ar      1 RES1    0.0000
     35 C19        7.7187   -0.3394    8.4623 C.ar      1 RES1    0.0000
     36 H11        6.7959   -0.1122    8.4416 H         1 RES1    0.0000
     37 C20        8.2720   -0.9448    9.5754 C.ar      1 RES1    0.0000
     38 C21        9.6150   -1.2856    9.6702 C.ar      1 RES1    0.0000
     39 H12        9.9704   -1.6820   10.4569 H         1 RES1    0.0000
     40 C22       10.4129   -1.0240    8.5711 C.ar      1 RES1    0.0000
     41 H13       11.3340   -1.2544    8.5985 H         1 RES1    0.0000
     42 C23        9.8901   -0.4284    7.4243 C.ar      1 RES1    0.0000
     43 H14       10.4532   -0.2670    6.6768 H         1 RES1    0.0000
     44 C24       12.1806    3.0872    5.1073 C.3       1 RES1    0.0000
     45 H15       13.0776    3.1179    4.7145 H         1 RES1    0.0000
     46 H16       11.5137    3.2740    4.4141 H         1 RES1    0.0000
     47 H17       12.0196    2.1967    5.4836 H         1 RES1    0.0000
     48 H18        4.8568    1.9904    8.5434 H         1 RES1    0.0000
@<TRIPOS>BOND
     1    1    8 1
     2    2   18 1
     3    3    6 2
     4    4    6 2
     5    5   22 2
     6    6   37 1
     7    7    8 ar
     8    8    9 ar
     9    9   10 1
    10   11    9 ar
    11   12   11 1
    12   13   11 ar
    13   14   13 ar
    14   15   14 1
    15   16   14 ar
    16   17   16 1
    17   18   16 ar
    18   19   18 ar
    19   20   19 1
    20   21    7 ar
    21   22    7 1
    22   23   22 1
    23   24   23 ar
    24   25   24 1
    25   26   24 ar
    26   27   26 1
    27   28   26 ar
    28   29   28 1
    29   30   28 ar
    30   31   30 1
    31   32   23 ar
    32   33   32 1
    33   34    5 1
    34   35   34 ar
    35   36   35 1
    36   37   35 ar
    37   38   37 ar
    38   39   38 1
    39   40   38 ar
    40   41   40 1
    41   42   34 ar
    42   43   42 1
    43   44    2 1
    44   45   44 1
    45   46   44 1
    46   47   44 1
    47   48    1 1
    48   13   21 ar
    49   19   21 ar
    50   30   32 ar
    51   40   42 ar
@<TRIPOS>SUBSTRUCTURE
     1 RES1 1

@<TRIPOS>CRYSIN
   9.6709    9.8345   10.3970  88.6400  89.1940  82.1260   2 1

