# MOL2 file generated by ConQuest
# Please check atom types

@<TRIPOS>MOLECULE
VUZQUC
    31    33     1
SMALL
NO_CHARGES
****
Generated from CSD

@<TRIPOS>ATOM
      1 O1         1.5273    6.6841    0.9675 O.3       1 RES1    0.0000
      2 C1         1.3345    7.0395    2.3711 C.3       1 RES1    0.0000
      3 C2         0.7199    5.9017    3.1606 C.3       1 RES1    0.0000
      4 C3         1.4369    4.5935    2.9174 C.3       1 RES1    0.0000
      5 C4         1.4977    3.0323    0.9198 C.ar      1 RES1    0.0000
      6 C5         1.5182    2.8595   -0.4512 C.ar      1 RES1    0.0000
      7 C6         1.5768    3.9209   -1.3284 C.ar      1 RES1    0.0000
      8 C7         1.5860    5.1859   -0.8121 C.ar      1 RES1    0.0000
      9 C8         1.5365    5.3957    0.5614 C.ar      1 RES1    0.0000
     10 C9         1.5012    4.3109    1.4387 C.ar      1 RES1    0.0000
     11 C10        2.6803    7.4925    2.9149 C.3       1 RES1    0.0000
     12 C11        0.3426    8.1996    2.2533 C.3       1 RES1    0.0000
     13 O2         0.9254    9.2733    1.5690 O.3       1 RES1    0.0000
     14 C12        0.2444    9.6966    0.4035 C.3       1 RES1    0.0000
     15 O3         0.0035    8.5847    3.5616 O.3       1 RES1    0.0000
     16 C13       -1.0477    9.5609    3.6067 C.3       1 RES1    0.0000
     17 O4         0.6860    3.5013    3.5215 O.3       1 RES1    0.0000
     18 C14        0.9092    3.2569    4.8123 C.2       1 RES1    0.0000
     19 O5         1.6856    3.8764    5.4840 O.2       1 RES1    0.0000
     20 C15        0.1010    2.0894    5.3361 C.3       1 RES1    0.0000
     21 O6        -1.0766    1.9660    4.5742 O.3       1 RES1    0.0000
     22 C16       -2.0544    1.1366    5.1908 C.3       1 RES1    0.0000
     23 C17        0.9587    0.8367    5.3035 C.ar      1 RES1    0.0000
     24 C18        1.2158    0.1901    4.1155 C.ar      1 RES1    0.0000
     25 C19        2.0070   -0.9429    4.0980 C.ar      1 RES1    0.0000
     26 C20        2.5595   -1.4180    5.2609 C.ar      1 RES1    0.0000
     27 C21        2.3150   -0.7861    6.4339 C.ar      1 RES1    0.0000
     28 C22        1.5273    0.3468    6.4615 C.ar      1 RES1    0.0000
     29 N1         1.4645    1.5081   -0.9900 N.pl3     1 RES1    0.0000
     30 O7         1.2405    1.3761   -2.1931 O.2       1 RES1    0.0000
     31 O8         1.6354    0.5689   -0.2356 O.2       1 RES1    0.0000
@<TRIPOS>BOND
     1    1    2 1
     2    2    3 1
     3    3    4 1
     4    4   10 1
     5    5    6 ar
     6    6    7 ar
     7    7    8 ar
     8    8    9 ar
     9    9    1 1
    10   10    5 ar
    11   11    2 1
    12   12    2 1
    13   13   12 1
    14   14   13 1
    15   15   12 1
    16   16   15 1
    17   17    4 1
    18   18   17 1
    19   19   18 2
    20   20   18 1
    21   21   20 1
    22   22   21 1
    23   23   20 1
    24   24   23 ar
    25   25   24 ar
    26   26   25 ar
    27   27   26 ar
    28   28   23 ar
    29   29    6 1
    30   30   29 2
    31   31   29 2
    32    9   10 ar
    33   27   28 ar
@<TRIPOS>SUBSTRUCTURE
     1 RES1 1

@<TRIPOS>CRYSIN
   7.0645   12.3414   25.0640  90.0000  90.0000  90.0000  19 1

