# MOL2 file generated by ConQuest
# Please check atom types

@<TRIPOS>MOLECULE
VUZTUG
    61    64     1
SMALL
NO_CHARGES
****
Generated from CSD

@<TRIPOS>ATOM
      1 N1         5.0853   -1.9320   -2.0879 N.pl3     1 RES1    0.0000
      2 N2        11.2588    1.8794    1.6529 N.pl3     1 RES1    0.0000
      3 N3        15.6682    1.2885    4.3690 N.2       1 RES1    0.0000
      4 N4        19.1043    1.0861    5.4757 N.am      1 RES1    0.0000
      5 N5        18.6144    2.1855    6.2099 N.3       1 RES1    0.0000
      6 O1         4.2206   -1.1444   -1.7501 O.2       1 RES1    0.0000
      7 O2         4.9135   -2.7681   -2.9574 O.2       1 RES1    0.0000
      8 O3        10.3182   -0.7650    1.4352 O.3       1 RES1    0.0000
      9 O4        11.8440   -2.8520    2.2661 O.3       1 RES1    0.0000
     10 O5        11.1438    2.8711    2.3833 O.2       1 RES1    0.0000
     11 O6        10.7901    1.8317    0.5805 O.2       1 RES1    0.0000
     12 O7        18.1872   -0.5619    4.1237 O.2       1 RES1    0.0000
     13 C1         7.8422   -0.8222    0.1437 C.ar      1 RES1    0.0000
     14 H1         7.9764   -0.2375    0.8546 H         1 RES1    0.0000
     15 C2         6.5850   -0.9439   -0.4133 C.ar      1 RES1    0.0000
     16 H2         5.8729   -0.4403   -0.0903 H         1 RES1    0.0000
     17 C3         6.4081   -1.8268   -1.4572 C.ar      1 RES1    0.0000
     18 C4         7.4339   -2.5942   -1.9441 C.ar      1 RES1    0.0000
     19 H3         7.2898   -3.1969   -2.6381 H         1 RES1    0.0000
     20 C5         8.6795   -2.4510   -1.3819 C.ar      1 RES1    0.0000
     21 H4         9.3862   -2.9630   -1.7061 H         1 RES1    0.0000
     22 C6         8.9079   -1.5620   -0.3440 C.ar      1 RES1    0.0000
     23 C7        10.3136   -1.4141    0.1690 C.3       1 RES1    0.0000
     24 H5        10.7218   -2.2899    0.2516 H         1 RES1    0.0000
     25 H6        10.8354   -0.8974   -0.4628 H         1 RES1    0.0000
     26 C8        11.5658   -0.5525    1.9584 C.ar      1 RES1    0.0000
     27 C9        12.3676   -1.6002    2.4149 C.ar      1 RES1    0.0000
     28 C10       13.5779   -1.3389    3.0232 C.ar      1 RES1    0.0000
     29 H7        14.1161   -2.0477    3.2928 H         1 RES1    0.0000
     30 C11       14.0100   -0.0334    3.2407 C.ar      1 RES1    0.0000
     31 C12       13.2196    1.0203    2.8165 C.ar      1 RES1    0.0000
     32 H8        13.4813    1.9009    2.9655 H         1 RES1    0.0000
     33 C13       12.0376    0.7410    2.1698 C.ar      1 RES1    0.0000
     34 C14       12.7069   -3.9629    2.5526 C.3       1 RES1    0.0000
     35 H9        13.4443   -3.9629    1.9383 H         1 RES1    0.0000
     36 H10       12.2147   -4.7816    2.4640 H         1 RES1    0.0000
     37 H11       13.0397   -3.8854    3.4508 H         1 RES1    0.0000
     38 C15       15.2855    0.1623    3.9241 C.2       1 RES1    0.0000
     39 H12       15.8428   -0.5728    4.0394 H         1 RES1    0.0000
     40 C16       16.9382    1.3806    4.9486 C.2       1 RES1    0.0000
     41 C17       18.0659    0.4952    4.7547 C.2       1 RES1    0.0000
     42 C18       17.3255    2.3882    5.7700 C.2       1 RES1    0.0000
     43 C19       16.5447    3.5811    6.1917 C.3       1 RES1    0.0000
     44 H13       16.9082    4.3651    5.7729 H         1 RES1    0.0000
     45 H14       16.5950    3.6754    7.1451 H         1 RES1    0.0000
     46 H15       15.6268    3.4725    5.9293 H         1 RES1    0.0000
     47 C20       19.5444    3.3186    6.3379 C.3       1 RES1    0.0000
     48 H16       19.7013    3.7016    5.4729 H         1 RES1    0.0000
     49 H17       20.3746    3.0095    6.7082 H         1 RES1    0.0000
     50 H18       19.1622    3.9820    6.9178 H         1 RES1    0.0000
     51 C21       20.2702    0.3938    5.9196 C.ar      1 RES1    0.0000
     52 C22       20.6254    0.3711    7.2571 C.ar      1 RES1    0.0000
     53 H19       20.1173    0.8293    7.8869 H         1 RES1    0.0000
     54 C23       21.7447   -0.3389    7.6483 C.ar      1 RES1    0.0000
     55 H20       21.9893   -0.3532    8.5448 H         1 RES1    0.0000
     56 C24       22.4989   -1.0203    6.7307 C.ar      1 RES1    0.0000
     57 H21       23.2445   -1.5012    7.0081 H         1 RES1    0.0000
     58 C25       22.1519   -0.9928    5.3988 C.ar      1 RES1    0.0000
     59 H22       22.6651   -1.4546    4.7763 H         1 RES1    0.0000
     60 C26       21.0394   -0.2792    4.9866 C.ar      1 RES1    0.0000
     61 H23       20.8088   -0.2530    4.0862 H         1 RES1    0.0000
@<TRIPOS>BOND
     1    1    6 2
     2    2   10 2
     3    3   38 2
     4    4    5 1
     5    5   42 1
     6    7    1 2
     7    8   23 1
     8    9   27 1
     9   11    2 2
    10   12   41 2
    11   13   14 1
    12   15   13 ar
    13   16   15 1
    14   17    1 1
    15   18   17 ar
    16   19   18 1
    17   20   18 ar
    18   21   20 1
    19   22   13 ar
    20   23   22 1
    21   24   23 1
    22   25   23 1
    23   26    8 1
    24   27   26 ar
    25   28   27 ar
    26   29   28 1
    27   30   28 ar
    28   31   30 ar
    29   32   31 1
    30   33    2 1
    31   34    9 1
    32   35   34 1
    33   36   34 1
    34   37   34 1
    35   38   30 1
    36   39   38 1
    37   40    3 1
    38   41    4 1
    39   42   40 2
    40   43   42 1
    41   44   43 1
    42   45   43 1
    43   46   43 1
    44   47    5 1
    45   48   47 1
    46   49   47 1
    47   50   47 1
    48   51    4 1
    49   52   51 ar
    50   53   52 1
    51   54   52 ar
    52   55   54 1
    53   56   54 ar
    54   57   56 1
    55   58   56 ar
    56   59   58 1
    57   60   51 ar
    58   61   60 1
    59   15   17 ar
    60   20   22 ar
    61   26   33 ar
    62   31   33 ar
    63   40   41 1
    64   58   60 ar
@<TRIPOS>SUBSTRUCTURE
     1 RES1 1

@<TRIPOS>CRYSIN
  25.6710   11.9330   16.6170  90.0000 103.9720  90.0000  15 1

