# MOL2 file generated by ConQuest
# Please check atom types

@<TRIPOS>MOLECULE
VUZVIW
    55    60     1
SMALL
NO_CHARGES
****
Generated from CSD

@<TRIPOS>ATOM
      1 N1         8.0076    8.6015    1.4546 N.2       1 RES1    0.0000
      2 C1         7.6001    6.9306   -0.1941 C.ar      1 RES1    0.0000
      3 C2        11.2629    7.6004    3.4244 C.ar      1 RES1    0.0000
      4 C3        11.4385    8.6403    2.4768 C.ar      1 RES1    0.0000
      5 C4        12.3079    7.3006    4.3564 C.ar      1 RES1    0.0000
      6 C5         8.4890    7.7798    0.5898 C.2       1 RES1    0.0000
      7 C6         5.9054    5.3381   -1.6846 C.ar      1 RES1    0.0000
      8 C7        13.7139    8.9889    3.3609 C.ar      1 RES1    0.0000
      9 O1         3.8105    4.7478   -2.4437 O.2       1 RES1    0.0000
     10 C8        12.6656    9.3539    2.4427 C.ar      1 RES1    0.0000
     11 C9        10.3452    8.9594    1.4555 C.3       1 RES1    0.0000
     12 H1        10.6343    9.7352    0.9320 H         1 RES1    0.0000
     13 N2         9.0335    9.2744    2.0554 N.3       1 RES1    0.0000
     14 C10        9.7201   11.3481    3.0923 C.ar      1 RES1    0.0000
     15 H2        10.5791   11.2369    2.7519 H         1 RES1    0.0000
     16 C11       10.0710    6.8245    3.5266 C.ar      1 RES1    0.0000
     17 H3         9.3796    6.9754    2.9239 H         1 RES1    0.0000
     18 C12        8.1725   12.6184    4.3969 C.ar      1 RES1    0.0000
     19 H4         7.9844   13.3514    4.9379 H         1 RES1    0.0000
     20 C13       14.9702    9.6944    3.2975 C.ar      1 RES1    0.0000
     21 H5        15.6579    9.4508    3.8743 H         1 RES1    0.0000
     22 C14       12.9523   10.4417    1.5622 C.ar      1 RES1    0.0000
     23 H6        12.2920   10.7200    0.9688 H         1 RES1    0.0000
     24 C15        8.7349   10.4152    2.8062 C.ar      1 RES1    0.0000
     25 C16       13.5087    7.9888    4.2893 C.ar      1 RES1    0.0000
     26 H7        14.1914    7.7727    4.8827 H         1 RES1    0.0000
     27 N3         5.0050    4.5092   -2.4970 N.pl3     1 RES1    0.0000
     28 C17        8.0974    5.8917   -0.9688 C.ar      1 RES1    0.0000
     29 H8         9.0135    5.7377   -0.9900 H         1 RES1    0.0000
     30 C18        9.9208    5.8733    4.4788 C.ar      1 RES1    0.0000
     31 H9         9.1332    5.3799    4.5119 H         1 RES1    0.0000
     32 C19        5.3869    6.3586   -0.9477 C.ar      1 RES1    0.0000
     33 H10        4.4711    6.5238   -0.9578 H         1 RES1    0.0000
     34 O2         5.4852    3.6192   -3.1769 O.2       1 RES1    0.0000
     35 C20        9.4305   12.4379    3.8808 C.ar      1 RES1    0.0000
     36 H11       10.0956   13.0598    4.0657 H         1 RES1    0.0000
     37 C21       15.1708   10.6976    2.4243 C.ar      1 RES1    0.0000
     38 H12       15.9918   11.1340    2.3967 H         1 RES1    0.0000
     39 C22        9.9899    7.8257    0.4757 C.3       1 RES1    0.0000
     40 H13       10.2706    8.0388   -0.4287 H         1 RES1    0.0000
     41 H14       10.3926    6.9856    0.7452 H         1 RES1    0.0000
     42 C23       14.1412   11.0850    1.5549 C.ar      1 RES1    0.0000
     43 H15       14.2766   11.7926    0.9670 H         1 RES1    0.0000
     44 C24       10.9352    5.6185    5.4200 C.ar      1 RES1    0.0000
     45 H16       10.8047    4.9843    6.0880 H         1 RES1    0.0000
     46 C25        7.4645   10.6120    3.3149 C.ar      1 RES1    0.0000
     47 H17        6.7895   10.0033    3.1217 H         1 RES1    0.0000
     48 C26        6.2243    7.1477   -0.1868 C.ar      1 RES1    0.0000
     49 H18        5.8686    7.8298    0.3358 H         1 RES1    0.0000
     50 C27       12.0997    6.2995    5.3464 C.ar      1 RES1    0.0000
     51 H19       12.7778    6.1099    5.9536 H         1 RES1    0.0000
     52 C28        7.2587    5.0822   -1.7076 C.ar      1 RES1    0.0000
     53 H20        7.5999    4.3777   -2.2109 H         1 RES1    0.0000
     54 C29        7.1977   11.7049    4.1034 C.ar      1 RES1    0.0000
     55 H21        6.3405   11.8262    4.4429 H         1 RES1    0.0000
@<TRIPOS>BOND
     1    1    6 2
     2    2    6 1
     3    3    4 ar
     4    4   10 ar
     5    5    3 ar
     6    6   39 1
     7    7   27 1
     8    8   10 ar
     9    9   27 2
    10   10   22 ar
    11   11    4 1
    12   12   11 1
    13   13    1 1
    14   14   15 1
    15   16    3 ar
    16   17   16 1
    17   18   19 1
    18   20    8 ar
    19   21   20 1
    20   22   23 1
    21   24   13 1
    22   25    5 ar
    23   26   25 1
    24   27   34 2
    25   28    2 ar
    26   29   28 1
    27   30   16 ar
    28   31   30 1
    29   32    7 ar
    30   33   32 1
    31   35   14 ar
    32   36   35 1
    33   37   20 ar
    34   38   37 1
    35   39   11 1
    36   40   39 1
    37   41   39 1
    38   42   22 ar
    39   43   42 1
    40   44   30 ar
    41   45   44 1
    42   46   24 ar
    43   47   46 1
    44   48    2 ar
    45   49   48 1
    46   50    5 ar
    47   51   50 1
    48   52    7 ar
    49   53   52 1
    50   54   18 ar
    51   55   54 1
    52    8   25 ar
    53   11   13 1
    54   14   24 ar
    55   18   35 ar
    56   28   52 ar
    57   32   48 ar
    58   37   42 ar
    59   44   50 ar
    60   46   54 ar
@<TRIPOS>SUBSTRUCTURE
     1 RES1 1

@<TRIPOS>CRYSIN
  23.0230   10.1950    9.2005  90.0000  90.0000  90.0000  29 1

