# MOL2 file generated by ConQuest
# Please check atom types

@<TRIPOS>MOLECULE
WABGAK
    90    98     2
SMALL
NO_CHARGES
****
Generated from CSD

@<TRIPOS>ATOM
      1 O1         9.4255   -1.1979    9.0809 O.2       1 RES1    0.0000
      2 O2         8.7077   -3.0096    8.1871 O.2       1 RES1    0.0000
      3 N1         2.3918    0.6566   12.5717 N.pl3     1 RES1    0.0000
      4 H1         2.2009    1.4210   12.2259 H         1 RES1    0.0000
      5 N2         6.0332   -1.9965   16.2981 N.pl3     1 RES1    0.0000
      6 H2         6.1716   -1.5769   17.0360 H         1 RES1    0.0000
      7 N3         8.6081   -2.1075    9.0103 N.pl3     1 RES1    0.0000
      8 C1         4.4753   -2.3936   12.9528 C.3       1 RES1    0.0000
      9 H3         3.9983   -3.2381   12.8136 H         1 RES1    0.0000
     10 C2         3.4588   -1.2854   12.9385 C.2       1 RES1    0.0000
     11 C3         3.4785   -0.1121   12.2529 C.2       1 RES1    0.0000
     12 H4         4.1403    0.1345   11.6478 H         1 RES1    0.0000
     13 C4         1.6564    0.0085   13.5341 C.ar      1 RES1    0.0000
     14 C5         0.5231    0.4121   14.2324 C.ar      1 RES1    0.0000
     15 H5         0.1401    1.2470   14.0909 H         1 RES1    0.0000
     16 C6        -0.0025   -0.4666   15.1314 C.ar      1 RES1    0.0000
     17 H6        -0.7557   -0.2189   15.6160 H         1 RES1    0.0000
     18 C7         0.5512   -1.7125   15.3456 C.ar      1 RES1    0.0000
     19 H7         0.1554   -2.2869   15.9606 H         1 RES1    0.0000
     20 C8         1.6875   -2.1289   14.6627 C.ar      1 RES1    0.0000
     21 H8         2.0496   -2.9723   14.8074 H         1 RES1    0.0000
     22 C9         2.2665   -1.2438   13.7530 C.ar      1 RES1    0.0000
     23 C10        5.1952   -2.4833   14.2824 C.2       1 RES1    0.0000
     24 C11        5.1693   -1.5950   15.3067 C.2       1 RES1    0.0000
     25 H9         4.6445   -0.8274   15.3345 H         1 RES1    0.0000
     26 C12        6.6402   -3.1698   15.9301 C.ar      1 RES1    0.0000
     27 C13        7.5988   -3.9364   16.6022 C.ar      1 RES1    0.0000
     28 H10        7.9119   -3.6961   17.4441 H         1 RES1    0.0000
     29 C14        8.0455   -5.0456   15.9646 C.ar      1 RES1    0.0000
     30 H11        8.6881   -5.5762   16.3778 H         1 RES1    0.0000
     31 C15        7.5655   -5.4182   14.6992 C.ar      1 RES1    0.0000
     32 H12        7.8910   -6.1891   14.2915 H         1 RES1    0.0000
     33 C16        6.6170   -4.6485   14.0540 C.ar      1 RES1    0.0000
     34 H13        6.3021   -4.8983   13.2149 H         1 RES1    0.0000
     35 C17        6.1378   -3.5050   14.6639 C.ar      1 RES1    0.0000
     36 C18        5.5124   -2.2570   11.8433 C.ar      1 RES1    0.0000
     37 C19        5.5159   -3.1250   10.7710 C.ar      1 RES1    0.0000
     38 H14        4.8306   -3.7452   10.6782 H         1 RES1    0.0000
     39 C20        6.5410   -3.0801    9.8236 C.ar      1 RES1    0.0000
     40 H15        6.5577   -3.6769    9.1111 H         1 RES1    0.0000
     41 C21        7.5186   -2.1331    9.9716 C.ar      1 RES1    0.0000
     42 C22        7.5113   -1.2171   10.9990 C.ar      1 RES1    0.0000
     43 H16        8.1719   -0.5648   11.0549 H         1 RES1    0.0000
     44 C23        6.5177   -1.2801   11.9345 C.ar      1 RES1    0.0000
     45 H17        6.5066   -0.6705   12.6371 H         1 RES1    0.0000
     46 O3         6.2854   -2.0968   -0.5044 O.2       2 RES2    0.0000
     47 O4         5.5306   -3.3235    1.0719 O.2       2 RES2    0.0000
     48 N4         2.7195    2.4427    6.7421 N.pl3     2 RES2    0.0000
     49 H18        2.0055    2.6061    7.1930 H         2 RES2    0.0000
     50 N5         3.5980    5.2474    1.4787 N.pl3     2 RES2    0.0000
     51 H19        3.6697    6.0225    1.1131 H         2 RES2    0.0000
     52 N6         5.8056   -2.2281    0.6067 N.pl3     2 RES2    0.0000
     53 C24        4.7951    2.5324    3.6669 C.3       2 RES2    0.0000
     54 H20        5.6722    2.9360    3.8346 H         2 RES2    0.0000
     55 C25        4.1481    2.3392    5.0183 C.2       2 RES2    0.0000
     56 C26        2.9084    2.7342    5.4093 C.2       2 RES2    0.0000
     57 H21        2.2799    3.1420    4.8581 H         2 RES2    0.0000
     58 C27        3.8520    1.8513    7.2338 C.ar      2 RES2    0.0000
     59 C28        4.1770    1.4349    8.5325 C.ar      2 RES2    0.0000
     60 H22        3.5609    1.4893    9.2264 H         2 RES2    0.0000
     61 C29        5.4228    0.9534    8.7339 C.ar      2 RES2    0.0000
     62 H23        5.6595    0.6598    9.5841 H         2 RES2    0.0000
     63 C30        6.3583    0.8808    7.7176 C.ar      2 RES2    0.0000
     64 H24        7.2101    0.5594    7.9079 H         2 RES2    0.0000
     65 C31        6.0622    1.2705    6.4340 C.ar      2 RES2    0.0000
     66 H25        6.6935    1.2054    5.7551 H         2 RES2    0.0000
     67 C32        4.7749    1.7701    6.1794 C.ar      2 RES2    0.0000
     68 C33        4.0518    3.4869    2.7671 C.2       2 RES2    0.0000
     69 C34        4.4773    4.6997    2.3515 C.2       2 RES2    0.0000
     70 H26        5.2677    5.1043    2.6275 H         2 RES2    0.0000
     71 C35        2.5788    4.3634    1.2777 C.ar      2 RES2    0.0000
     72 C36        1.4775    4.4328    0.4247 C.ar      2 RES2    0.0000
     73 H27        1.3387    5.1716   -0.1233 H         2 RES2    0.0000
     74 C37        0.6113    3.3823    0.4211 C.ar      2 RES2    0.0000
     75 H28       -0.1288    3.4057   -0.1412 H         2 RES2    0.0000
     76 C38        0.8075    2.2719    1.2396 C.ar      2 RES2    0.0000
     77 H29        0.1925    1.5748    1.2206 H         2 RES2    0.0000
     78 C39        1.8903    2.1908    2.0696 C.ar      2 RES2    0.0000
     79 H30        2.0093    1.4477    2.6152 H         2 RES2    0.0000
     80 C40        2.8110    3.2306    2.0902 C.ar      2 RES2    0.0000
     81 C41        5.0565    1.2320    2.9003 C.ar      2 RES2    0.0000
     82 C42        5.7296    1.3078    1.6841 C.ar      2 RES2    0.0000
     83 H31        6.0150    2.1363    1.3732 H         2 RES2    0.0000
     84 C43        5.9824    0.1804    0.9299 C.ar      2 RES2    0.0000
     85 H32        6.4323    0.2413    0.1182 H         2 RES2    0.0000
     86 C44        5.5554   -1.0303    1.4050 C.ar      2 RES2    0.0000
     87 C45        4.8663   -1.1552    2.5863 C.ar      2 RES2    0.0000
     88 H33        4.5735   -1.9869    2.8797 H         2 RES2    0.0000
     89 C46        4.6184   -0.0235    3.3266 C.ar      2 RES2    0.0000
     90 H34        4.1497   -0.0950    4.1265 H         2 RES2    0.0000
@<TRIPOS>BOND
     1    1    7 2
     2    2    7 2
     3    3    4 1
     4    5    6 1
     5    7   41 1
     6    8    9 1
     7   10    8 1
     8   11    3 1
     9   12   11 1
    10   13    3 1
    11   14   13 ar
    12   15   14 1
    13   16   14 ar
    14   17   16 1
    15   18   16 ar
    16   19   18 1
    17   20   18 ar
    18   21   20 1
    19   22   10 1
    20   23    8 1
    21   24    5 1
    22   25   24 1
    23   26    5 1
    24   27   26 ar
    25   28   27 1
    26   29   27 ar
    27   30   29 1
    28   31   29 ar
    29   32   31 1
    30   33   31 ar
    31   34   33 1
    32   35   23 1
    33   36    8 1
    34   37   36 ar
    35   38   37 1
    36   39   37 ar
    37   40   39 1
    38   41   39 ar
    39   42   41 ar
    40   43   42 1
    41   44   36 ar
    42   45   44 1
    43   46   52 2
    44   47   52 2
    45   48   49 1
    46   50   51 1
    47   52   86 1
    48   53   54 1
    49   55   53 1
    50   56   48 1
    51   57   56 1
    52   58   48 1
    53   59   58 ar
    54   60   59 1
    55   61   59 ar
    56   62   61 1
    57   63   61 ar
    58   64   63 1
    59   65   63 ar
    60   66   65 1
    61   67   55 1
    62   68   53 1
    63   69   50 1
    64   70   69 1
    65   71   50 1
    66   72   71 ar
    67   73   72 1
    68   74   72 ar
    69   75   74 1
    70   76   74 ar
    71   77   76 1
    72   78   76 ar
    73   79   78 1
    74   80   68 1
    75   81   53 1
    76   82   81 ar
    77   83   82 1
    78   84   82 ar
    79   85   84 1
    80   86   84 ar
    81   87   86 ar
    82   88   87 1
    83   89   81 ar
    84   90   89 1
    85   10   11 2
    86   13   22 ar
    87   20   22 ar
    88   23   24 2
    89   26   35 ar
    90   33   35 ar
    91   42   44 ar
    92   55   56 2
    93   58   67 ar
    94   65   67 ar
    95   68   69 2
    96   71   80 ar
    97   78   80 ar
    98   87   89 ar
@<TRIPOS>SUBSTRUCTURE
     1 RES1 1
     2 RES2 46

