# MOL2 file generated by ConQuest
# Please check atom types

@<TRIPOS>MOLECULE
WABJIS
    36    36     1
SMALL
NO_CHARGES
****
Generated from CSD

@<TRIPOS>ATOM
      1 N1         4.6536    1.8830    7.9290 N.3       1 RES1    0.0000
      2 N2         5.5756    1.5754    6.9715 N.2       1 RES1    0.0000
      3 N3         2.5424    2.7149    9.7872 N.pl3     1 RES1    0.0000
      4 N4        -0.4729    3.2804    6.0472 N.pl3     1 RES1    0.0000
      5 C1         6.7114    1.2012    7.4620 C.2       1 RES1    0.0000
      6 C2         7.7588    0.8515    6.5280 C.2       1 RES1    0.0000
      7 C3         9.0087    0.5207    6.8403 C.2       1 RES1    0.0000
      8 C4         9.4724    0.5151    8.1873 C.1       1 RES1    0.0000
      9 C5         9.8435    0.4836    9.2885 C.1       1 RES1    0.0000
     10 C6         9.9780    0.2383    5.7198 C.2       1 RES1    0.0000
     11 C7         3.4022    2.2867    7.4744 C.ar      1 RES1    0.0000
     12 C8         2.3456    2.6848    8.3255 C.ar      1 RES1    0.0000
     13 C9         1.0895    3.0310    7.8820 C.ar      1 RES1    0.0000
     14 C10        0.8845    2.9623    6.5294 C.ar      1 RES1    0.0000
     15 C11        1.8486    2.6203    5.6300 C.ar      1 RES1    0.0000
     16 C12        3.1044    2.3168    6.0818 C.ar      1 RES1    0.0000
     17 O1         9.6558    0.2453    4.5786 O.2       1 RES1    0.0000
     18 O2        11.1808   -0.0084    6.2061 O.3       1 RES1    0.0000
     19 O3         1.6243    3.1641   10.4739 O.2       1 RES1    0.0000
     20 O4         3.6172    2.3407   10.2528 O.2       1 RES1    0.0000
     21 O5        -0.6996    3.0926    4.8798 O.2       1 RES1    0.0000
     22 O6        -1.2586    3.7395    6.8417 O.2       1 RES1    0.0000
     23 C13       12.3569    0.2313    5.0746 C.3       1 RES1    0.0000
     24 C14       12.4032   -1.1493    5.0069 C.3       1 RES1    0.0000
     25 H1         4.7321    2.5229    8.0547 H         1 RES1    0.0000
     26 H2         6.8619    1.1563    8.4498 H         1 RES1    0.0000
     27 H3         7.5201    0.8585    5.5568 H         1 RES1    0.0000
     28 H4        10.1646    0.4744   10.2418 H         1 RES1    0.0000
     29 H5        13.1888    0.6658    5.4117 H         1 RES1    0.0000
     30 H6        12.0547    0.6868    4.2373 H         1 RES1    0.0000
     31 H7        13.0930   -1.4226    4.3368 H         1 RES1    0.0000
     32 H8        11.5093   -1.4997    4.7292 H         1 RES1    0.0000
     33 H9        12.6434   -1.5207    5.9035 H         1 RES1    0.0000
     34 H10        0.3659    3.3162    8.5120 H         1 RES1    0.0000
     35 H11        1.6416    2.5916    4.6518 H         1 RES1    0.0000
     36 H12        3.8266    2.1122    5.4214 H         1 RES1    0.0000
@<TRIPOS>BOND
     1    1    2 1
     2    2    5 2
     3    3   12 1
     4    4   14 1
     5    5    6 1
     6    6    7 2
     7    7    8 1
     8    8    9 3
     9    9   28 1
    10   10    7 1
    11   11    1 1
    12   12   11 ar
    13   13   12 ar
    14   14   13 ar
    15   15   14 ar
    16   16   11 ar
    17   17   10 2
    18   18   10 1
    19   19    3 2
    20   20    3 2
    21   21    4 2
    22   22    4 2
    23   23   18 1
    24   24   23 1
    25   25    1 1
    26   26    5 1
    27   27    6 1
    28   29   23 1
    29   30   23 1
    30   31   24 1
    31   32   24 1
    32   33   24 1
    33   34   13 1
    34   35   15 1
    35   36   16 1
    36   15   16 ar
@<TRIPOS>SUBSTRUCTURE
     1 RES1 1

@<TRIPOS>CRYSIN
  15.9150    7.0080   15.0180  90.0000 113.0800  90.0000  14 1

