# MOL2 file generated by ConQuest
# Please check atom types

@<TRIPOS>MOLECULE
WABZAD
    64    68     1
SMALL
NO_CHARGES
****
Generated from CSD

@<TRIPOS>ATOM
      1 O1         3.7426    3.6031    4.8263 O.3       1 RES1    0.0000
      2 O2         7.6318    6.2433    0.8061 O.2       1 RES1    0.0000
      3 O3         7.8493    4.2049    0.2072 O.2       1 RES1    0.0000
      4 O4         5.1289   -0.6848    1.6783 O.3       1 RES1    0.0000
      5 O5         9.4989   -2.0919    3.2721 O.3       1 RES1    0.0000
      6 O6         7.2865    1.6944    5.0084 O.3       1 RES1    0.0000
      7 N1         7.3790    5.0606    0.9346 N.pl3     1 RES1    0.0000
      8 C1         5.3604    2.8944    3.1706 C.ar      1 RES1    0.0000
      9 C2         6.2624    3.3059    2.2096 C.ar      1 RES1    0.0000
     10 H1         6.7271    2.6739    1.7095 H         1 RES1    0.0000
     11 C3         6.4763    4.6471    1.9876 C.ar      1 RES1    0.0000
     12 C4         5.8454    5.6161    2.7343 C.ar      1 RES1    0.0000
     13 H2         6.0303    6.5177    2.5964 H         1 RES1    0.0000
     14 C5         4.9456    5.2254    3.6797 C.ar      1 RES1    0.0000
     15 H3         4.5043    5.8645    4.1921 H         1 RES1    0.0000
     16 C6         4.6847    3.8802    3.8836 C.ar      1 RES1    0.0000
     17 C7         4.2735    1.2718    4.6994 C.3       1 RES1    0.0000
     18 H4         3.9054    0.3752    4.7464 H         1 RES1    0.0000
     19 H5         4.8800    1.3847    5.4476 H         1 RES1    0.0000
     20 C8         3.1512    2.2808    4.8078 C.3       1 RES1    0.0000
     21 C9         5.0491    1.4301    3.3956 C.3       1 RES1    0.0000
     22 H6         4.4415    1.1596    2.6758 H         1 RES1    0.0000
     23 C10        6.2453    0.5039    3.3238 C.ar      1 RES1    0.0000
     24 C11        7.3468    0.6398    4.1642 C.ar      1 RES1    0.0000
     25 C12        8.4079   -0.2464    4.1323 C.ar      1 RES1    0.0000
     26 H7         9.1271   -0.1415    4.7119 H         1 RES1    0.0000
     27 C13        8.3822   -1.2766    3.2377 C.ar      1 RES1    0.0000
     28 C14        7.3401   -1.4572    2.3852 C.ar      1 RES1    0.0000
     29 H8         7.3447   -2.1572    1.7739 H         1 RES1    0.0000
     30 C15        6.2550   -0.5684    2.4456 C.ar      1 RES1    0.0000
     31 C16        5.0850   -1.6451    0.6397 C.3       1 RES1    0.0000
     32 H9         5.8299   -1.5126    0.0509 H         1 RES1    0.0000
     33 H10        4.2662   -1.5467    0.1483 H         1 RES1    0.0000
     34 H11        5.1272   -2.5273    1.0173 H         1 RES1    0.0000
     35 C17        9.6175   -3.1122    2.3178 C.3       1 RES1    0.0000
     36 H12        8.8866   -3.7278    2.4152 H         1 RES1    0.0000
     37 H13       10.4475   -3.5777    2.4481 H         1 RES1    0.0000
     38 H14        9.5999   -2.7302    1.4368 H         1 RES1    0.0000
     39 C18        8.3617    1.8936    5.9116 C.3       1 RES1    0.0000
     40 H15        8.4658    1.1136    6.4619 H         1 RES1    0.0000
     41 H16        8.1753    2.6534    6.4679 H         1 RES1    0.0000
     42 H17        9.1702    2.0481    5.4176 H         1 RES1    0.0000
     43 C19        2.4027    2.1633    6.1248 C.ar      1 RES1    0.0000
     44 C20        2.1999    3.2380    6.9215 C.ar      1 RES1    0.0000
     45 H18        2.5494    4.0637    6.6716 H         1 RES1    0.0000
     46 C21        1.4892    3.1343    8.0890 C.ar      1 RES1    0.0000
     47 H19        1.3692    3.8864    8.6238 H         1 RES1    0.0000
     48 C22        0.9574    1.9422    8.4739 C.ar      1 RES1    0.0000
     49 H20        0.4742    1.8758    9.2666 H         1 RES1    0.0000
     50 C23        1.1368    0.8716    7.7024 C.ar      1 RES1    0.0000
     51 H21        0.7736    0.0529    7.9556 H         1 RES1    0.0000
     52 C24        1.8573    0.9686    6.5307 C.ar      1 RES1    0.0000
     53 H22        1.9764    0.2115    6.0049 H         1 RES1    0.0000
     54 C25        1.4715    3.3901    3.3015 C.ar      1 RES1    0.0000
     55 H23        1.6762    4.1950    3.7216 H         1 RES1    0.0000
     56 C26        2.1422    2.2382    3.6693 C.ar      1 RES1    0.0000
     57 C27        1.8328    1.0675    3.0338 C.ar      1 RES1    0.0000
     58 H24        2.2700    0.2814    3.2706 H         1 RES1    0.0000
     59 C28        0.8494    1.0471    2.0181 C.ar      1 RES1    0.0000
     60 H25        0.6372    0.2541    1.5821 H         1 RES1    0.0000
     61 C29        0.2219    2.2015    1.6870 C.ar      1 RES1    0.0000
     62 H26       -0.4171    2.1981    1.0113 H         1 RES1    0.0000
     63 C30        0.5094    3.3629    2.3268 C.ar      1 RES1    0.0000
     64 H27        0.0536    4.1422    2.1020 H         1 RES1    0.0000
@<TRIPOS>BOND
     1    1   16 1
     2    2    7 2
     3    3    7 2
     4    4   30 1
     5    5   27 1
     6    6   24 1
     7    7   11 1
     8    8    9 ar
     9    9   10 1
    10   11    9 ar
    11   12   11 ar
    12   13   12 1
    13   14   12 ar
    14   15   14 1
    15   16    8 ar
    16   17   18 1
    17   19   17 1
    18   20    1 1
    19   21    8 1
    20   22   21 1
    21   23   21 1
    22   24   23 ar
    23   25   24 ar
    24   26   25 1
    25   27   25 ar
    26   28   27 ar
    27   29   28 1
    28   30   23 ar
    29   31    4 1
    30   32   31 1
    31   33   31 1
    32   34   31 1
    33   35    5 1
    34   36   35 1
    35   37   35 1
    36   38   35 1
    37   39    6 1
    38   40   39 1
    39   41   39 1
    40   42   39 1
    41   43   20 1
    42   44   43 ar
    43   45   44 1
    44   46   44 ar
    45   47   46 1
    46   48   46 ar
    47   49   48 1
    48   50   48 ar
    49   51   50 1
    50   52   43 ar
    51   53   52 1
    52   54   55 1
    53   56   20 1
    54   57   56 ar
    55   58   57 1
    56   59   57 ar
    57   60   59 1
    58   61   59 ar
    59   62   61 1
    60   63   54 ar
    61   64   63 1
    62   14   16 ar
    63   17   20 1
    64   17   21 1
    65   28   30 ar
    66   50   52 ar
    67   54   56 ar
    68   61   63 ar
@<TRIPOS>SUBSTRUCTURE
     1 RES1 1

@<TRIPOS>CRYSIN
   9.9740   17.0530   15.3190  90.0000 102.0340  90.0000  14 1

