# MOL2 file generated by ConQuest
# Please check atom types

@<TRIPOS>MOLECULE
WACGOW
    37    38     1
SMALL
NO_CHARGES
****
Generated from CSD

@<TRIPOS>ATOM
      1 C1         6.8044    1.6808    6.8659 C.ar      1 RES1    0.0000
      2 C2         6.9223    2.3767    8.0631 C.ar      1 RES1    0.0000
      3 C3         7.7406    2.0172    9.1005 C.ar      1 RES1    0.0000
      4 C4         8.5293    0.9039    8.9347 C.ar      1 RES1    0.0000
      5 C5         8.4639    0.1400    7.7985 C.ar      1 RES1    0.0000
      6 C6         7.5795    0.5354    6.8001 C.ar      1 RES1    0.0000
      7 C7         6.3563    2.1738    4.3448 C.ar      1 RES1    0.0000
      8 C8         7.4878    2.8877    3.9413 C.ar      1 RES1    0.0000
      9 C9         7.9426    2.9725    2.6442 C.ar      1 RES1    0.0000
     10 C10        7.2675    2.2573    1.6994 C.ar      1 RES1    0.0000
     11 C11        6.1460    1.5215    1.9822 C.ar      1 RES1    0.0000
     12 C12        5.7165    1.5203    3.2818 C.ar      1 RES1    0.0000
     13 C13        5.8519    2.1584    5.7870 C.3       1 RES1    0.0000
     14 N1         6.1170    3.5888    8.2959 N.pl3     1 RES1    0.0000
     15 N2         9.4586    0.5213   10.0197 N.pl3     1 RES1    0.0000
     16 N3         7.4759   -0.3955    5.6541 N.pl3     1 RES1    0.0000
     17 N4         8.2701    3.6389    4.9300 N.pl3     1 RES1    0.0000
     18 N5         7.7823    2.2637    0.2987 N.pl3     1 RES1    0.0000
     19 N6         4.4762    0.7576    3.5354 N.pl3     1 RES1    0.0000
     20 O1         6.5040    4.6185    7.8509 O.2       1 RES1    0.0000
     21 O2         5.1576    3.5233    8.8616 O.2       1 RES1    0.0000
     22 O3         9.4171    1.1736   11.0389 O.2       1 RES1    0.0000
     23 O4        10.2115   -0.3942    9.8027 O.2       1 RES1    0.0000
     24 O5         8.4800   -1.0079    5.3408 O.2       1 RES1    0.0000
     25 O6         6.3786   -0.5380    5.1385 O.2       1 RES1    0.0000
     26 O7         9.0960    3.0636    5.5505 O.2       1 RES1    0.0000
     27 O8         8.1267    4.7778    5.0348 O.2       1 RES1    0.0000
     28 O9         8.6923    3.0161    0.0573 O.2       1 RES1    0.0000
     29 O10        7.2816    1.4971   -0.4767 O.2       1 RES1    0.0000
     30 O11        4.3730   -0.3223    2.9990 O.2       1 RES1    0.0000
     31 O12        3.5958    1.2853    4.2107 O.2       1 RES1    0.0000
     32 H1         7.7541    2.5308    9.9514 H         1 RES1    0.0000
     33 H2         9.0323   -0.6728    7.6912 H         1 RES1    0.0000
     34 H3         8.7256    3.5297    2.4028 H         1 RES1    0.0000
     35 H4         5.6681    1.0144    1.2666 H         1 RES1    0.0000
     36 H5         5.5858    3.0880    6.0174 H         1 RES1    0.0000
     37 H6         5.0545    1.5575    5.8126 H         1 RES1    0.0000
@<TRIPOS>BOND
     1    1    2 ar
     2    2    3 ar
     3    3    4 ar
     4    4    5 ar
     5    5    6 ar
     6    6    1 ar
     7    7    8 ar
     8    8    9 ar
     9    9   10 ar
    10   10   11 ar
    11   11   12 ar
    12   12    7 ar
    13   13    1 1
    14   14    2 1
    15   15    4 1
    16   16    6 1
    17   17    8 1
    18   18   10 1
    19   19   12 1
    20   20   14 2
    21   21   14 2
    22   22   15 2
    23   23   15 2
    24   24   16 2
    25   25   16 2
    26   26   17 2
    27   27   17 2
    28   28   18 2
    29   29   18 2
    30   30   19 2
    31   31   19 2
    32   32    3 1
    33   33    5 1
    34   34    9 1
    35   35   11 1
    36   36   13 1
    37   37   13 1
    38    7   13 1
@<TRIPOS>SUBSTRUCTURE
     1 RES1 1

@<TRIPOS>CRYSIN
  10.6710   12.8400   12.3030  90.0000  97.7400  90.0000 231 1

