# MOL2 file generated by ConQuest
# Please check atom types

@<TRIPOS>MOLECULE
WACJUF
    20    20     1
SMALL
NO_CHARGES
****
Generated from CSD

@<TRIPOS>ATOM
      1 O1         2.5429    0.6305   -0.1786 O.3       1 RES1    0.0000
      2 O2         1.7859    2.1496    5.0031 O.3       1 RES1    0.0000
      3 N1         2.2339    1.1397    1.0905 N.2       1 RES1    0.0000
      4 N2         2.1517    1.8650    3.6712 N.2       1 RES1    0.0000
      5 C1         2.2489    0.2270    1.9814 C.2       1 RES1    0.0000
      6 C2         1.9170    0.6425    3.3723 C.2       1 RES1    0.0000
      7 C3         1.3299   -0.3771    4.3065 C.3       1 RES1    0.0000
      8 C4         1.0510   -1.7077    3.6331 C.3       1 RES1    0.0000
      9 C5         2.2710   -2.1508    2.8655 C.3       1 RES1    0.0000
     10 C6         2.4955   -1.2249    1.6727 C.3       1 RES1    0.0000
     11 H1         2.3627    1.2730   -0.6502 H         1 RES1    0.0000
     12 H2         1.9123    3.0503    5.0076 H         1 RES1    0.0000
     13 H3         0.5373    0.0360    4.7011 H         1 RES1    0.0000
     14 H4         1.8965   -0.4563    5.0674 H         1 RES1    0.0000
     15 H5         0.7507   -2.3538    4.3573 H         1 RES1    0.0000
     16 H6         3.0502   -2.1256    3.4904 H         1 RES1    0.0000
     17 H7         3.4216   -1.3330    1.3752 H         1 RES1    0.0000
     18 H8         2.0940   -2.9662    2.5711 H         1 RES1    0.0000
     19 H9         1.7780   -1.4531    1.0389 H         1 RES1    0.0000
     20 H10        0.2687   -1.6092    3.0120 H         1 RES1    0.0000
@<TRIPOS>BOND
     1    1    3 1
     2    2    4 1
     3    3    5 2
     4    4    6 2
     5    5    6 1
     6    6    7 1
     7    7    8 1
     8    8    9 1
     9    9   10 1
    10   10    5 1
    11   11    1 1
    12   12    2 1
    13   13    7 1
    14   14    7 1
    15   15    8 1
    16   16    9 1
    17   17   10 1
    18   18    9 1
    19   19   10 1
    20   20    8 1
@<TRIPOS>SUBSTRUCTURE
     1 RES1 1

@<TRIPOS>CRYSIN
   7.9020   12.0090    7.4740  90.0000  90.0000  90.0000  29 5

