# MOL2 file generated by ConQuest
# Please check atom types

@<TRIPOS>MOLECULE
WACKAM
    23    23     1
SMALL
NO_CHARGES
****
Generated from CSD

@<TRIPOS>ATOM
      1 N1         1.4443    1.7898   10.1246 N.2       1 RES1    0.0000
      2 N2         4.1477    1.7995   10.5134 N.2       1 RES1    0.0000
      3 O1         0.1964    1.6963    9.4706 O.3       1 RES1    0.0000
      4 O2         5.3800    1.7728   11.2145 O.3       1 RES1    0.0000
      5 C1         2.1325    0.7195   10.0384 C.2       1 RES1    0.0000
      6 C2         3.4378    0.7608   10.7297 C.2       1 RES1    0.0000
      7 C3         3.8323   -0.4077   11.5886 C.3       1 RES1    0.0000
      8 C4         4.4658   -1.5265   10.7639 C.3       1 RES1    0.0000
      9 C5         3.4708   -2.2763    9.9180 C.3       1 RES1    0.0000
     10 C6         2.7634   -1.4561    8.8492 C.3       1 RES1    0.0000
     11 C7         1.6720   -0.5303    9.3682 C.3       1 RES1    0.0000
     12 H1         4.4754   -0.0728   12.2491 H         1 RES1    0.0000
     13 H2         2.9720   -0.8494   12.0538 H         1 RES1    0.0000
     14 H3         5.1966   -1.0071   10.1506 H         1 RES1    0.0000
     15 H4         4.8751   -2.1477   11.5821 H         1 RES1    0.0000
     16 H5         2.7634   -2.6209   10.4109 H         1 RES1    0.0000
     17 H6         3.8671   -3.0092    9.4999 H         1 RES1    0.0000
     18 H7         2.2768   -2.1234    8.2636 H         1 RES1    0.0000
     19 H8         3.4760   -0.8615    8.2799 H         1 RES1    0.0000
     20 H9         1.1471   -0.2548    8.5890 H         1 RES1    0.0000
     21 H10        1.0776   -1.0435   10.0205 H         1 RES1    0.0000
     22 H11       -0.1999    2.6452    9.7927 H         1 RES1    0.0000
     23 H12        5.7615    2.6209   10.8501 H         1 RES1    0.0000
@<TRIPOS>BOND
     1    1    3 1
     2    2    4 1
     3    3   22 1
     4    4   23 1
     5    5    1 2
     6    6    2 2
     7    7    6 1
     8    8    7 1
     9    9    8 1
    10   10    9 1
    11   11    5 1
    12   12    7 1
    13   13    7 1
    14   14    8 1
    15   15    8 1
    16   16    9 1
    17   17    9 1
    18   18   10 1
    19   19   10 1
    20   20   11 1
    21   21   11 1
    22    5    6 1
    23   10   11 1
@<TRIPOS>SUBSTRUCTURE
     1 RES1 1

@<TRIPOS>CRYSIN
   8.6900   12.1340   16.2670  90.0000  90.0000  90.0000  61 3

