# MOL2 file generated by ConQuest
# Please check atom types

@<TRIPOS>MOLECULE
WACKIU
    26    26     1
SMALL
NO_CHARGES
****
Generated from CSD

@<TRIPOS>ATOM
      1 C1         5.1173    2.3668    0.4510 C.2       1 RES1    0.0000
      2 C2         5.1784    1.9719    1.8885 C.2       1 RES1    0.0000
      3 C3         4.2526    2.6180    2.8690 C.3       1 RES1    0.0000
      4 C4         4.8517    3.8322    3.6029 C.3       1 RES1    0.0000
      5 C5         5.1216    5.0746    2.7718 C.3       1 RES1    0.0000
      6 C6         6.1968    4.9335    1.7035 C.3       1 RES1    0.0000
      7 C7         5.6614    4.8143    0.2729 C.3       1 RES1    0.0000
      8 C8         4.6316    3.7168    0.0684 C.3       1 RES1    0.0000
      9 N1         5.5146    1.4642   -0.3849 N.2       1 RES1    0.0000
     10 O1         5.4972    1.9514   -1.7113 O.3       1 RES1    0.0000
     11 N2         6.0570    1.0782    2.1980 N.2       1 RES1    0.0000
     12 O2         6.0186    0.7616    3.5703 O.3       1 RES1    0.0000
     13 H1         5.8134    1.2590   -2.0907 H         1 RES1    0.0000
     14 H2         6.5575    0.0680    3.5578 H         1 RES1    0.0000
     15 H3         3.9565    1.8462    3.4754 H         1 RES1    0.0000
     16 H4         3.3888    2.8334    2.4258 H         1 RES1    0.0000
     17 H5         5.7120    3.5771    4.0430 H         1 RES1    0.0000
     18 H6         4.2797    4.0386    4.3851 H         1 RES1    0.0000
     19 H7         5.3627    5.7694    3.4055 H         1 RES1    0.0000
     20 H8         4.3495    5.4233    2.3636 H         1 RES1    0.0000
     21 H9         6.7951    4.1284    1.9049 H         1 RES1    0.0000
     22 H10        6.7601    5.6669    1.7649 H         1 RES1    0.0000
     23 H11        5.2055    5.6541   -0.1011 H         1 RES1    0.0000
     24 H12        6.3933    4.5258   -0.3654 H         1 RES1    0.0000
     25 H13        3.8517    3.8335    0.6065 H         1 RES1    0.0000
     26 H14        4.3146    3.7309   -0.8708 H         1 RES1    0.0000
@<TRIPOS>BOND
     1    1    2 1
     2    2    3 1
     3    3    4 1
     4    4    5 1
     5    5    6 1
     6    6    7 1
     7    7    8 1
     8    8    1 1
     9    9    1 2
    10   10    9 1
    11   11    2 2
    12   12   11 1
    13   13   10 1
    14   14   12 1
    15   15    3 1
    16   16    3 1
    17   17    4 1
    18   18    4 1
    19   19    5 1
    20   20    5 1
    21   21    6 1
    22   22    6 1
    23   23    7 1
    24   24    7 1
    25   25    8 1
    26   26    8 1
@<TRIPOS>SUBSTRUCTURE
     1 RES1 1

@<TRIPOS>CRYSIN
   8.7340   12.8210    7.7750  90.0000  90.0000  90.0000  19 1

