# MOL2 file generated by ConQuest
# Please check atom types

@<TRIPOS>MOLECULE
WACQEY
    23    24     1
SMALL
NO_CHARGES
****
Generated from CSD

@<TRIPOS>ATOM
      1 O1         2.3871    7.4948    0.8947 O.2       1 RES1    0.0000
      2 O2         3.8989    5.9724    1.0597 O.2       1 RES1    0.0000
      3 O3         3.7870    4.2916    5.6350 O.2       1 RES1    0.0000
      4 O4         4.2318    5.6397    7.2434 O.2       1 RES1    0.0000
      5 O5         4.3581    8.1753    6.8250 O.3       1 RES1    0.0000
      6 H1         4.4396    7.5016    7.2852 H         1 RES1    0.0000
      7 N1         3.2401    6.8790    1.5232 N.pl3     1 RES1    0.0000
      8 N2         3.9610    5.4148    6.0609 N.pl3     1 RES1    0.0000
      9 C1         3.8457    8.9053    4.6621 C.ar      1 RES1    0.0000
     10 C2         3.9700   10.2352    5.0904 C.ar      1 RES1    0.0000
     11 H2         4.1321   10.4176    5.9880 H         1 RES1    0.0000
     12 C3         3.8552   11.2647    4.2019 C.ar      1 RES1    0.0000
     13 H3         3.9289   12.1446    4.4951 H         1 RES1    0.0000
     14 C4         3.6291   10.9975    2.8662 C.ar      1 RES1    0.0000
     15 H4         3.5726   11.7046    2.2651 H         1 RES1    0.0000
     16 C5         3.4855    9.7158    2.4044 C.ar      1 RES1    0.0000
     17 H5         3.3288    9.5639    1.5003 H         1 RES1    0.0000
     18 C6         3.5740    8.6273    3.2954 C.ar      1 RES1    0.0000
     19 C7         3.4722    7.2594    2.9227 C.ar      1 RES1    0.0000
     20 C8         3.5987    6.2443    3.8047 C.ar      1 RES1    0.0000
     21 H6         3.5158    5.3625    3.5206 H         1 RES1    0.0000
     22 C9         3.8550    6.5320    5.1461 C.ar      1 RES1    0.0000
     23 C10        4.0204    7.8284    5.5883 C.ar      1 RES1    0.0000
@<TRIPOS>BOND
     1    1    7 2
     2    2    7 2
     3    3    8 2
     4    4    8 2
     5    5    6 1
     6    7   19 1
     7    8   22 1
     8    9   10 ar
     9   10   11 1
    10   12   10 ar
    11   13   12 1
    12   14   12 ar
    13   15   14 1
    14   16   14 ar
    15   17   16 1
    16   18    9 ar
    17   19   18 ar
    18   20   19 ar
    19   21   20 1
    20   22   20 ar
    21   23    5 1
    22    9   23 ar
    23   16   18 ar
    24   22   23 ar
@<TRIPOS>SUBSTRUCTURE
     1 RES1 1

@<TRIPOS>CRYSIN
   7.0512   16.3541    8.7988  90.0000 111.4520  90.0000 231 1

