# MOL2 file generated by ConQuest
# Please check atom types

@<TRIPOS>MOLECULE
WACVOM
    32    33     1
SMALL
NO_CHARGES
****
Generated from CSD

@<TRIPOS>ATOM
      1 O1         1.0481    7.0403    9.3884 O.2       1 RES1    0.0000
      2 O2         1.2813   10.3725   12.5783 O.2       1 RES1    0.0000
      3 N1         3.9374    7.2218   13.4208 N.3       1 RES1    0.0000
      4 N2         0.8209    8.1351   10.0424 N.pl3     1 RES1    0.0000
      5 N3         0.9321    9.7115   11.5392 N.pl3     1 RES1    0.0000
      6 C1         3.0894    8.1974   13.0357 C.2       1 RES1    0.0000
      7 C2         2.4102    7.7603   11.9106 C.2       1 RES1    0.0000
      8 C3         2.8914    6.4479   11.6356 C.2       1 RES1    0.0000
      9 C4         3.8177    6.1594   12.5775 C.2       1 RES1    0.0000
     10 C5         1.4263    8.5013   11.1852 C.2       1 RES1    0.0000
     11 C6        -0.3440    9.0133    9.7137 C.3       1 RES1    0.0000
     12 C7         0.0664   10.3042   10.4697 C.3       1 RES1    0.0000
     13 C8        -1.5675    8.3164   10.3112 C.3       1 RES1    0.0000
     14 C9        -0.5021    9.1688    8.2154 C.3       1 RES1    0.0000
     15 C10       -1.0752   11.0801   11.1083 C.3       1 RES1    0.0000
     16 C11        0.9610   11.2374    9.6558 C.3       1 RES1    0.0000
     17 H1         4.4814    7.2677   14.1653 H         1 RES1    0.0000
     18 H2         3.0037    9.0352   13.5357 H         1 RES1    0.0000
     19 H3         2.6026    5.8908   10.9133 H         1 RES1    0.0000
     20 H4         4.3155    5.3790   12.7401 H         1 RES1    0.0000
     21 H5        -1.6475    7.4061    9.8744 H         1 RES1    0.0000
     22 H6        -2.3622    8.8535   10.1331 H         1 RES1    0.0000
     23 H7        -1.4881    8.2004   11.2725 H         1 RES1    0.0000
     24 H8        -0.6637    8.2927    7.8274 H         1 RES1    0.0000
     25 H9         0.3188    9.5138    7.8042 H         1 RES1    0.0000
     26 H10       -1.2739    9.7834    8.0617 H         1 RES1    0.0000
     27 H11       -1.6737   11.3491   10.3880 H         1 RES1    0.0000
     28 H12       -0.6689   11.8941   11.5351 H         1 RES1    0.0000
     29 H13       -1.5888   10.4654   11.7244 H         1 RES1    0.0000
     30 H14        1.7286   10.7234    9.2667 H         1 RES1    0.0000
     31 H15        1.3679   11.9648   10.2168 H         1 RES1    0.0000
     32 H16        0.4508   11.6995    8.9770 H         1 RES1    0.0000
@<TRIPOS>BOND
     1    1    4 1
     2    2    5 2
     3    3    6 1
     4    4   10 2
     5    5   10 1
     6    6    7 2
     7    7    8 1
     8    8    9 2
     9    9    3 1
    10   10    7 1
    11   11    4 1
    12   12    5 1
    13   13   11 1
    14   14   11 1
    15   15   12 1
    16   16   12 1
    17   17    3 1
    18   18    6 1
    19   19    8 1
    20   20    9 1
    21   21   13 1
    22   22   13 1
    23   23   13 1
    24   24   14 1
    25   25   14 1
    26   26   14 1
    27   27   15 1
    28   28   15 1
    29   29   15 1
    30   30   16 1
    31   31   16 1
    32   32   16 1
    33   11   12 1
@<TRIPOS>SUBSTRUCTURE
     1 RES1 1

@<TRIPOS>CRYSIN
  13.0654   14.4171   12.8740  90.0000  90.0000  90.0000  61 1

