# MOL2 file generated by ConQuest
# Please check atom types

@<TRIPOS>MOLECULE
WACVEC
    32    33     1
SMALL
NO_CHARGES
****
Generated from CSD

@<TRIPOS>ATOM
      1 O1         1.9739   19.5067   -0.9984 O.2       1 RES1    0.0000
      2 O2         3.8435   16.2055    1.6298 O.2       1 RES1    0.0000
      3 N1         1.9673   16.6576   -0.5005 N.pl3     1 RES1    0.0000
      4 N2         2.6765   18.9285   -0.0954 N.pl3     1 RES1    0.0000
      5 N3         3.5403   17.3585    1.1751 N.pl3     1 RES1    0.0000
      6 C1         1.5911   16.6950   -1.8339 C.2       1 RES1    0.0000
      7 C2         0.8808   15.5744   -2.0870 C.2       1 RES1    0.0000
      8 C3         0.7937   14.8352   -0.8935 C.2       1 RES1    0.0000
      9 C4         1.4637   15.4997    0.0627 C.2       1 RES1    0.0000
     10 C5         2.6993   17.6145    0.1637 C.2       1 RES1    0.0000
     11 C6         3.7315   19.6479    0.6945 C.3       1 RES1    0.0000
     12 C7         3.9867   18.6275    1.8310 C.3       1 RES1    0.0000
     13 C8         4.9165   19.8431   -0.2387 C.3       1 RES1    0.0000
     14 C9         3.2192   20.9992    1.1539 C.3       1 RES1    0.0000
     15 C10        3.0901   18.7973    3.0563 C.3       1 RES1    0.0000
     16 C11        5.4341   18.4938    2.2580 C.3       1 RES1    0.0000
     17 H1         1.8255   17.4110   -2.3582 H         1 RES1    0.0000
     18 H2         0.5329   15.3448   -2.9351 H         1 RES1    0.0000
     19 H3         0.3140   13.9976   -0.7644 H         1 RES1    0.0000
     20 H4         1.6156   15.3068    0.9375 H         1 RES1    0.0000
     21 H5         5.6346   20.2625    0.2308 H         1 RES1    0.0000
     22 H6         4.5747   20.3154   -1.0024 H         1 RES1    0.0000
     23 H7         5.2463   18.9401   -0.5048 H         1 RES1    0.0000
     24 H8         2.3724   20.8774    1.5505 H         1 RES1    0.0000
     25 H9         3.0813   21.5964    0.3462 H         1 RES1    0.0000
     26 H10        3.8958   21.4295    1.7452 H         1 RES1    0.0000
     27 H11        3.2899   19.5963    3.5120 H         1 RES1    0.0000
     28 H12        3.2225   18.0722    3.6707 H         1 RES1    0.0000
     29 H13        2.0582   18.9136    2.7476 H         1 RES1    0.0000
     30 H14        5.5055   17.8557    2.9928 H         1 RES1    0.0000
     31 H15        5.7519   19.3897    2.5601 H         1 RES1    0.0000
     32 H16        6.0169   18.2276    1.4495 H         1 RES1    0.0000
@<TRIPOS>BOND
     1    1    4 1
     2    2    5 2
     3    3    6 1
     4    4   10 2
     5    5   10 1
     6    6    7 2
     7    7    8 1
     8    8    9 2
     9    9    3 1
    10   10    3 1
    11   11    4 1
    12   12    5 1
    13   13   11 1
    14   14   11 1
    15   15   12 1
    16   16   12 1
    17   17    6 1
    18   18    7 1
    19   19    8 1
    20   20    9 1
    21   21   13 1
    22   22   13 1
    23   23   13 1
    24   24   14 1
    25   25   14 1
    26   26   14 1
    27   27   15 1
    28   28   15 1
    29   29   15 1
    30   30   16 1
    31   31   16 1
    32   32   16 1
    33   11   12 1
@<TRIPOS>SUBSTRUCTURE
     1 RES1 1

@<TRIPOS>CRYSIN
   9.8453   16.5300    7.2587  90.0000  96.5310  90.0000 231 1

