# MOL2 file generated by ConQuest
# Please check atom types

@<TRIPOS>MOLECULE
WACVIG
    32    33     1
SMALL
NO_CHARGES
****
Generated from CSD

@<TRIPOS>ATOM
      1 O1         1.4392    5.7911    5.7224 O.2       1 RES1    0.0000
      2 O2         1.3051    5.8681    1.1454 O.2       1 RES1    0.0000
      3 N1         2.5702    8.0330    2.2840 N.3       1 RES1    0.0000
      4 N2         1.1948    5.4444    4.5192 N.pl3     1 RES1    0.0000
      5 N3         1.1347    5.4758    2.3472 N.pl3     1 RES1    0.0000
      6 C1         2.2353    7.3850    3.4414 C.2       1 RES1    0.0000
      7 C2         2.6708    8.1630    4.4907 C.2       1 RES1    0.0000
      8 C3         3.2778    9.2935    3.9342 C.2       1 RES1    0.0000
      9 C4         3.2035    9.1854    2.5882 C.2       1 RES1    0.0000
     10 C5         1.5371    6.1383    3.4343 C.2       1 RES1    0.0000
     11 C6         0.5454    4.1378    4.2044 C.3       1 RES1    0.0000
     12 C7         0.4044    4.2171    2.6559 C.3       1 RES1    0.0000
     13 C8         1.4890    3.0578    4.6931 C.3       1 RES1    0.0000
     14 C9        -0.7593    4.0641    4.9767 C.3       1 RES1    0.0000
     15 C10       -1.0181    4.4023    2.1589 C.3       1 RES1    0.0000
     16 C11        1.1019    3.1082    1.8824 C.3       1 RES1    0.0000
     17 H1         2.3847    7.7331    1.4047 H         1 RES1    0.0000
     18 H2         2.5170    7.9660    5.3942 H         1 RES1    0.0000
     19 H3         3.7241   10.0502    4.4289 H         1 RES1    0.0000
     20 H4         3.4966    9.7167    1.9046 H         1 RES1    0.0000
     21 H5         1.0748    2.1615    4.5190 H         1 RES1    0.0000
     22 H6         2.3679    3.1305    4.2216 H         1 RES1    0.0000
     23 H7         1.6066    3.1491    5.7176 H         1 RES1    0.0000
     24 H8        -0.6043    4.1274    5.9867 H         1 RES1    0.0000
     25 H9        -1.2933    4.9101    4.8017 H         1 RES1    0.0000
     26 H10       -1.2615    3.2889    4.7338 H         1 RES1    0.0000
     27 H11       -1.3955    5.1616    2.7527 H         1 RES1    0.0000
     28 H12       -0.9964    4.5933    1.2714 H         1 RES1    0.0000
     29 H13       -1.4644    3.5777    2.3206 H         1 RES1    0.0000
     30 H14        0.7353    2.3665    2.1478 H         1 RES1    0.0000
     31 H15        1.0012    3.2330    0.8641 H         1 RES1    0.0000
     32 H16        1.9462    2.9908    2.0861 H         1 RES1    0.0000
@<TRIPOS>BOND
     1    1    4 1
     2    2    5 2
     3    3    6 1
     4    4   10 2
     5    5   10 1
     6    6    7 2
     7    7    8 1
     8    8    9 2
     9    9    3 1
    10   10    6 1
    11   11    4 1
    12   12    5 1
    13   13   11 1
    14   14   11 1
    15   15   12 1
    16   16   12 1
    17   17    3 1
    18   18    7 1
    19   19    8 1
    20   20    9 1
    21   21   13 1
    22   22   13 1
    23   23   13 1
    24   24   14 1
    25   25   14 1
    26   26   14 1
    27   27   15 1
    28   28   15 1
    29   29   15 1
    30   30   16 1
    31   31   16 1
    32   32   16 1
    33   11   12 1
@<TRIPOS>SUBSTRUCTURE
     1 RES1 1

@<TRIPOS>CRYSIN
   9.9250    9.3170   12.9720  90.0000 107.9050  90.0000  14 1

