# MOL2 file generated by ConQuest
# Please check atom types

@<TRIPOS>MOLECULE
WADBEK
    32    33     1
SMALL
NO_CHARGES
****
Generated from CSD

@<TRIPOS>ATOM
      1 N1        10.9607    2.7513    9.1681 N.am      1 RES1    0.0000
      2 H1        11.4407    3.0873    8.5387 H         1 RES1    0.0000
      3 N2         5.8926    5.3142    6.9478 N.pl3     1 RES1    0.0000
      4 N3        10.2316    5.3535    4.6864 N.pl3     1 RES1    0.0000
      5 N4        13.9727    0.0465   13.0510 N.pl3     1 RES1    0.0000
      6 O1         8.8227    2.5292    9.8572 O.2       1 RES1    0.0000
      7 O2         5.2079    4.8523    7.8513 O.2       1 RES1    0.0000
      8 O3         5.4758    6.0608    6.0887 O.2       1 RES1    0.0000
      9 O4         9.8610    6.3077    4.0129 O.2       1 RES1    0.0000
     10 O5        11.2553    4.7368    4.4874 O.2       1 RES1    0.0000
     11 O6        15.1914    0.0786   12.9491 O.2       1 RES1    0.0000
     12 O7        13.3978   -0.5268   13.9444 O.2       1 RES1    0.0000
     13 C1         9.6257    2.9494    9.0606 C.2       1 RES1    0.0000
     14 C2         9.1554    3.7673    7.8835 C.ar      1 RES1    0.0000
     15 C3         7.8260    4.1562    7.9130 C.ar      1 RES1    0.0000
     16 H2         7.2807    3.9012    8.6229 H         1 RES1    0.0000
     17 C4         7.3148    4.9205    6.8914 C.ar      1 RES1    0.0000
     18 C5         8.0803    5.3479    5.8369 C.ar      1 RES1    0.0000
     19 H3         7.7277    5.8867    5.1662 H         1 RES1    0.0000
     20 C6         9.3916    4.9421    5.8175 C.ar      1 RES1    0.0000
     21 C7         9.9407    4.1514    6.8072 C.ar      1 RES1    0.0000
     22 H4        10.8281    3.8788    6.7514 H         1 RES1    0.0000
     23 C8        11.6632    2.0681   10.1772 C.ar      1 RES1    0.0000
     24 C9        13.0353    1.9574   10.0207 C.ar      1 RES1    0.0000
     25 H5        13.4416    2.3239    9.2692 H         1 RES1    0.0000
     26 C10       13.8040    1.3135   10.9584 C.ar      1 RES1    0.0000
     27 H6        14.7264    1.2518   10.8565 H         1 RES1    0.0000
     28 C11       13.1786    0.7634   12.0514 C.ar      1 RES1    0.0000
     29 C12       11.8187    0.8588   12.2350 C.ar      1 RES1    0.0000
     30 H7        11.4204    0.4779   12.9849 H         1 RES1    0.0000
     31 C13       11.0503    1.5204   11.3030 C.ar      1 RES1    0.0000
     32 H8        10.1313    1.6014   11.4228 H         1 RES1    0.0000
@<TRIPOS>BOND
     1    1    2 1
     2    3    7 2
     3    4    9 2
     4    5   11 2
     5    6   13 2
     6    8    3 2
     7   10    4 2
     8   12    5 2
     9   13    1 1
    10   14   13 1
    11   15   14 ar
    12   16   15 1
    13   17    3 1
    14   18   17 ar
    15   19   18 1
    16   20    4 1
    17   21   14 ar
    18   22   21 1
    19   23    1 1
    20   24   23 ar
    21   25   24 1
    22   26   24 ar
    23   27   26 1
    24   28    5 1
    25   29   28 ar
    26   30   29 1
    27   31   23 ar
    28   32   31 1
    29   15   17 ar
    30   18   20 ar
    31   20   21 ar
    32   26   28 ar
    33   29   31 ar
@<TRIPOS>SUBSTRUCTURE
     1 RES1 1

@<TRIPOS>CRYSIN
   7.8999    8.0190   21.1110  90.0000  94.2850  90.0000  14 1

