# MOL2 file generated by ConQuest
# Please check atom types

@<TRIPOS>MOLECULE
WADCOW
    66    70     2
SMALL
NO_CHARGES
****
Generated from CSD

@<TRIPOS>ATOM
      1 O1         4.0095    2.6027    3.9384 O.2       1 RES1    0.0000
      2 O2         2.3154    1.6029    3.0677 O.2       1 RES1    0.0000
      3 N1         0.4304    7.5271    2.5603 N.pl3     1 RES1    0.0000
      4 H1         0.8935    8.2642    2.7852 H         1 RES1    0.0000
      5 N2         2.8926    2.6307    3.4215 N.pl3     1 RES1    0.0000
      6 C1         1.0077    6.3136    2.7691 C.ar      1 RES1    0.0000
      7 C2         2.2393    6.2501    3.4356 C.ar      1 RES1    0.0000
      8 H2         2.6376    7.0345    3.7375 H         1 RES1    0.0000
      9 C3         2.8600    5.0611    3.6474 C.ar      1 RES1    0.0000
     10 H3         3.6865    5.0283    4.0732 H         1 RES1    0.0000
     11 C4         2.2430    3.8993    3.2189 C.ar      1 RES1    0.0000
     12 C5         1.0211    3.9395    2.5734 C.ar      1 RES1    0.0000
     13 H4         0.6201    3.1442    2.3058 H         1 RES1    0.0000
     14 C6         0.3825    5.1420    2.3183 C.ar      1 RES1    0.0000
     15 C7        -0.9661    5.1733    1.5912 C.3       1 RES1    0.0000
     16 C8        -0.8544    4.3282    0.3058 C.3       1 RES1    0.0000
     17 H5        -0.1982    4.7179   -0.2762 H         1 RES1    0.0000
     18 H6        -0.5910    3.4338    0.5330 H         1 RES1    0.0000
     19 H7        -1.7060    4.3075   -0.1381 H         1 RES1    0.0000
     20 C9        -2.0447    4.6032    2.5258 C.3       1 RES1    0.0000
     21 H8        -1.8465    3.6836    2.7194 H         1 RES1    0.0000
     22 H9        -2.0587    5.1068    3.3442 H         1 RES1    0.0000
     23 H10       -2.9019    4.6633    2.0979 H         1 RES1    0.0000
     24 C10       -1.3409    6.6024    1.2088 C.ar      1 RES1    0.0000
     25 C11       -2.4003    6.8551    0.3489 C.ar      1 RES1    0.0000
     26 H11       -2.8870    6.1397    0.0072 H         1 RES1    0.0000
     27 C12       -2.7530    8.1440   -0.0141 C.ar      1 RES1    0.0000
     28 H12       -3.4594    8.2855   -0.6024 H         1 RES1    0.0000
     29 C13       -2.0596    9.2112    0.4949 C.ar      1 RES1    0.0000
     30 H13       -2.2951   10.0774    0.2512 H         1 RES1    0.0000
     31 C14       -1.0256    9.0021    1.3587 C.ar      1 RES1    0.0000
     32 H14       -0.5640    9.7282    1.7116 H         1 RES1    0.0000
     33 C15       -0.6571    7.7068    1.7152 C.ar      1 RES1    0.0000
     34 O3        -6.9137   12.1451    6.5480 O.2       2 RES2    0.0000
     35 O4        -8.6254   11.1027    7.3408 O.2       2 RES2    0.0000
     36 N3        -4.7528    6.2835    6.4474 N.pl3     2 RES2    0.0000
     37 H15       -5.1952    5.5483    6.5063 H         2 RES2    0.0000
     38 N4        -7.4810   11.1057    6.8867 N.pl3     2 RES2    0.0000
     39 C16       -5.4264    7.4728    6.5230 C.ar      2 RES2    0.0000
     40 C17       -6.7066    7.5111    7.0847 C.ar      2 RES2    0.0000
     41 H16       -7.0984    6.7242    7.3885 H         2 RES2    0.0000
     42 C18       -7.3879    8.6853    7.1919 C.ar      2 RES2    0.0000
     43 H17       -8.2432    8.7058    7.5556 H         2 RES2    0.0000
     44 C19       -6.7811    9.8470    6.7496 C.ar      2 RES2    0.0000
     45 C20       -5.5184    9.8265    6.1768 C.ar      2 RES2    0.0000
     46 H18       -5.1371   10.6215    5.8812 H         2 RES2    0.0000
     47 C21       -4.8202    8.6476    6.0393 C.ar      2 RES2    0.0000
     48 C22       -3.4906    8.5511    5.2781 C.3       2 RES2    0.0000
     49 C23       -3.8252    8.2978    3.7885 C.3       2 RES2    0.0000
     50 H19       -4.2980    7.4665    3.7036 H         2 RES2    0.0000
     51 H20       -4.3734    9.0121    3.4577 H         2 RES2    0.0000
     52 H21       -3.0117    8.2576    3.2804 H         2 RES2    0.0000
     53 C24       -2.6860    9.8463    5.4034 C.3       2 RES2    0.0000
     54 H22       -3.2109   10.5822    5.0805 H         2 RES2    0.0000
     55 H23       -2.4598    9.9951    6.3248 H         2 RES2    0.0000
     56 H24       -1.8819    9.7750    4.8832 H         2 RES2    0.0000
     57 C25       -2.7000    7.3499    5.7792 C.ar      2 RES2    0.0000
     58 C26       -1.3123    7.2652    5.6750 C.ar      2 RES2    0.0000
     59 H25       -0.8367    7.9956    5.3517 H         2 RES2    0.0000
     60 C27       -0.6264    6.1204    6.0413 C.ar      2 RES2    0.0000
     61 H26        0.2997    6.0896    5.9617 H         2 RES2    0.0000
     62 C28       -1.3067    5.0333    6.5198 C.ar      2 RES2    0.0000
     63 H27       -0.8432    4.2653    6.7657 H         2 RES2    0.0000
     64 C29       -2.6804    5.0783    6.6368 C.ar      2 RES2    0.0000
     65 H28       -3.1448    4.3388    6.9561 H         2 RES2    0.0000
     66 C30       -3.3679    6.2301    6.2771 C.ar      2 RES2    0.0000
@<TRIPOS>BOND
     1    1    5 2
     2    2    5 2
     3    3    4 1
     4    5   11 1
     5    6    3 1
     6    7    6 ar
     7    8    7 1
     8    9    7 ar
     9   10    9 1
    10   11    9 ar
    11   12   11 ar
    12   13   12 1
    13   14    6 ar
    14   15   14 1
    15   16   15 1
    16   17   16 1
    17   18   16 1
    18   19   16 1
    19   20   15 1
    20   21   20 1
    21   22   20 1
    22   23   20 1
    23   24   15 1
    24   25   24 ar
    25   26   25 1
    26   27   25 ar
    27   28   27 1
    28   29   27 ar
    29   30   29 1
    30   31   29 ar
    31   32   31 1
    32   33    3 1
    33   34   38 2
    34   35   38 2
    35   36   37 1
    36   38   44 1
    37   39   36 1
    38   40   39 ar
    39   41   40 1
    40   42   40 ar
    41   43   42 1
    42   44   42 ar
    43   45   44 ar
    44   46   45 1
    45   47   39 ar
    46   48   47 1
    47   49   48 1
    48   50   49 1
    49   51   49 1
    50   52   49 1
    51   53   48 1
    52   54   53 1
    53   55   53 1
    54   56   53 1
    55   57   48 1
    56   58   57 ar
    57   59   58 1
    58   60   58 ar
    59   61   60 1
    60   62   60 ar
    61   63   62 1
    62   64   62 ar
    63   65   64 1
    64   66   36 1
    65   12   14 ar
    66   24   33 ar
    67   31   33 ar
    68   45   47 ar
    69   57   66 ar
    70   64   66 ar
@<TRIPOS>SUBSTRUCTURE
     1 RES1 1
     2 RES2 34

@<TRIPOS>CRYSIN
   9.3070   16.5482   32.8832  90.0000  90.0000  90.0000  61 1

