# MOL2 file generated by ConQuest
# Please check atom types

@<TRIPOS>MOLECULE
WADDUB
    76    80     2
SMALL
NO_CHARGES
****
Generated from CSD

@<TRIPOS>ATOM
      1 O1         8.5375    5.5484    0.3283 O.2       1 RES1    0.0000
      2 O2         7.2124    3.5746    4.1788 O.2       1 RES1    0.0000
      3 N1         7.9591    4.2058    3.3455 N.pl3     1 RES1    0.0000
      4 C1         9.0355    7.3299    3.3755 C.ar      1 RES1    0.0000
      5 H1         8.2246    7.1216    3.7798 H         1 RES1    0.0000
      6 C2         9.8730    8.2741    3.9416 C.ar      1 RES1    0.0000
      7 H2         9.6163    8.7087    4.7233 H         1 RES1    0.0000
      8 C3        11.0806    8.5741    3.3590 C.ar      1 RES1    0.0000
      9 H3        11.6354    9.2122    3.7457 H         1 RES1    0.0000
     10 C4        11.4711    7.9316    2.2042 C.ar      1 RES1    0.0000
     11 H4        12.2948    8.1272    1.8188 H         1 RES1    0.0000
     12 C5        10.6407    7.0004    1.6209 C.ar      1 RES1    0.0000
     13 H5        10.9014    6.5739    0.8374 H         1 RES1    0.0000
     14 C6         9.4130    6.6947    2.2002 C.ar      1 RES1    0.0000
     15 C7         8.5205    5.7154    1.5276 C.2       1 RES1    0.0000
     16 C8         7.5131    4.9605    2.3639 C.2       1 RES1    0.0000
     17 C9         6.0815    5.0998    2.0777 C.ar      1 RES1    0.0000
     18 C10        5.5995    6.3164    1.6021 C.ar      1 RES1    0.0000
     19 H6         6.1880    7.0229    1.4608 H         1 RES1    0.0000
     20 C11        4.2493    6.4814    1.3372 C.ar      1 RES1    0.0000
     21 H7         3.9312    7.3056    1.0458 H         1 RES1    0.0000
     22 C12        3.3845    5.4343    1.5021 C.ar      1 RES1    0.0000
     23 H8         2.4801    5.5447    1.3168 H         1 RES1    0.0000
     24 C13        3.8522    4.2191    1.9416 C.ar      1 RES1    0.0000
     25 H9         3.2638    3.5056    2.0329 H         1 RES1    0.0000
     26 C14        5.1816    4.0483    2.2476 C.ar      1 RES1    0.0000
     27 H10        5.4819    3.2288    2.5691 H         1 RES1    0.0000
     28 C15        9.3857    4.0023    3.5352 C.ar      1 RES1    0.0000
     29 C16        9.9570    4.4205    4.7182 C.ar      1 RES1    0.0000
     30 H11        9.4415    4.8233    5.3789 H         1 RES1    0.0000
     31 C17       11.3085    4.2270    4.8974 C.ar      1 RES1    0.0000
     32 H12       11.7147    4.5097    5.6839 H         1 RES1    0.0000
     33 C18       12.0582    3.6210    3.9249 C.ar      1 RES1    0.0000
     34 H13       12.9718    3.5056    4.0526 H         1 RES1    0.0000
     35 C19       11.4696    3.1802    2.7592 C.ar      1 RES1    0.0000
     36 H14       11.9832    2.7532    2.1106 H         1 RES1    0.0000
     37 C20       10.1179    3.3719    2.5528 C.ar      1 RES1    0.0000
     38 H15        9.7105    3.0815    1.7677 H         1 RES1    0.0000
     39 O3         8.0090    2.1780    0.0646 O.2       2 RES2    0.0000
     40 O4         9.5206    0.0368   -3.5954 O.2       2 RES2    0.0000
     41 N2         8.7431    0.7220   -2.8285 N.pl3     2 RES2    0.0000
     42 C21        7.6745    3.8601   -3.0695 C.ar      2 RES2    0.0000
     43 H16        8.4862    3.5939   -3.4388 H         2 RES2    0.0000
     44 C22        6.8976    4.8028   -3.7195 C.ar      2 RES2    0.0000
     45 H17        7.1943    5.1781   -4.5168 H         2 RES2    0.0000
     46 C23        5.6965    5.1850   -3.1940 C.ar      2 RES2    0.0000
     47 H18        5.1766    5.8156   -3.6358 H         2 RES2    0.0000
     48 C24        5.2535    4.6379   -2.0102 C.ar      2 RES2    0.0000
     49 H19        4.4291    4.8925   -1.6635 H         2 RES2    0.0000
     50 C25        6.0265    3.7120   -1.3361 C.ar      2 RES2    0.0000
     51 H20        5.7320    3.3583   -0.5286 H         2 RES2    0.0000
     52 C26        7.2455    3.3120   -1.8692 C.ar      2 RES2    0.0000
     53 C27        8.0895    2.3448   -1.1345 C.2       2 RES2    0.0000
     54 C28        9.1452    1.5673   -1.9047 C.2       2 RES2    0.0000
     55 C29       10.5594    1.7734   -1.5799 C.ar      2 RES2    0.0000
     56 C30       10.9822    3.0362   -1.1887 C.ar      2 RES2    0.0000
     57 H21       10.3670    3.7308   -1.1292 H         2 RES2    0.0000
     58 C31       12.3112    3.2704   -0.8873 C.ar      2 RES2    0.0000
     59 H22       12.5898    4.1269   -0.6574 H         2 RES2    0.0000
     60 C32       13.2169    2.2453   -0.9250 C.ar      2 RES2    0.0000
     61 H23       14.1086    2.4058   -0.7143 H         2 RES2    0.0000
     62 C33       12.8108    0.9859   -1.2740 C.ar      2 RES2    0.0000
     63 H24       13.4250    0.2871   -1.2751 H         2 RES2    0.0000
     64 C34       11.4976    0.7429   -1.6250 C.ar      2 RES2    0.0000
     65 H25       11.2388   -0.1090   -1.8927 H         2 RES2    0.0000
     66 C35        7.3238    0.4625   -3.0182 C.ar      2 RES2    0.0000
     67 C36        6.7423    0.7950   -4.2245 C.ar      2 RES2    0.0000
     68 H26        7.2465    1.1808   -4.9052 H         2 RES2    0.0000
     69 C37        5.4008    0.5436   -4.3982 C.ar      2 RES2    0.0000
     70 H27        4.9897    0.7715   -5.2008 H         2 RES2    0.0000
     71 C38        4.6662   -0.0399   -3.4003 C.ar      2 RES2    0.0000
     72 H28        3.7596   -0.2047   -3.5297 H         2 RES2    0.0000
     73 C39        5.2582   -0.3822   -2.2118 C.ar      2 RES2    0.0000
     74 H29        4.7540   -0.7818   -1.5403 H         2 RES2    0.0000
     75 C40        6.6044   -0.1352   -2.0102 C.ar      2 RES2    0.0000
     76 H30        7.0141   -0.3681   -1.2088 H         2 RES2    0.0000
@<TRIPOS>BOND
     1    1   15 2
     2    2    3 1
     3    3   16 2
     4    4    5 1
     5    6    4 ar
     6    7    6 1
     7    8    6 ar
     8    9    8 1
     9   10    8 ar
    10   11   10 1
    11   12   10 ar
    12   13   12 1
    13   14    4 ar
    14   15   14 1
    15   16   15 1
    16   17   16 1
    17   18   17 ar
    18   19   18 1
    19   20   18 ar
    20   21   20 1
    21   22   20 ar
    22   23   22 1
    23   24   22 ar
    24   25   24 1
    25   26   17 ar
    26   27   26 1
    27   28    3 1
    28   29   28 ar
    29   30   29 1
    30   31   29 ar
    31   32   31 1
    32   33   31 ar
    33   34   33 1
    34   35   33 ar
    35   36   35 1
    36   37   28 ar
    37   38   37 1
    38   39   53 2
    39   40   41 1
    40   41   54 2
    41   42   43 1
    42   44   42 ar
    43   45   44 1
    44   46   44 ar
    45   47   46 1
    46   48   46 ar
    47   49   48 1
    48   50   48 ar
    49   51   50 1
    50   52   42 ar
    51   53   52 1
    52   54   53 1
    53   55   54 1
    54   56   55 ar
    55   57   56 1
    56   58   56 ar
    57   59   58 1
    58   60   58 ar
    59   61   60 1
    60   62   60 ar
    61   63   62 1
    62   64   55 ar
    63   65   64 1
    64   66   41 1
    65   67   66 ar
    66   68   67 1
    67   69   67 ar
    68   70   69 1
    69   71   69 ar
    70   72   71 1
    71   73   71 ar
    72   74   73 1
    73   75   66 ar
    74   76   75 1
    75   12   14 ar
    76   24   26 ar
    77   35   37 ar
    78   50   52 ar
    79   62   64 ar
    80   73   75 ar
@<TRIPOS>SUBSTRUCTURE
     1 RES1 1
     2 RES2 39

@<TRIPOS>CRYSIN
  11.2399   14.7231   19.6858  90.0000 105.7540  90.0000  14 1

