# MOL2 file generated by ConQuest
# Please check atom types

@<TRIPOS>MOLECULE
WADGEP
    57    59     1
SMALL
NO_CHARGES
****
Generated from CSD

@<TRIPOS>ATOM
      1 C1         7.7336   10.6488    6.3596 C.ar      1 RES1    0.0000
      2 C2         8.8071   11.5085    6.2497 C.ar      1 RES1    0.0000
      3 H1         8.7153   12.3016    5.7733 H         1 RES1    0.0000
      4 C3        10.0071   11.2022    6.8368 C.ar      1 RES1    0.0000
      5 H2        10.7238   11.7891    6.7579 H         1 RES1    0.0000
      6 C4        10.1542   10.0373    7.5413 C.ar      1 RES1    0.0000
      7 H3        10.9608    9.8451    7.9629 H         1 RES1    0.0000
      8 C5         9.1050    9.1520    7.6244 C.ar      1 RES1    0.0000
      9 H4         9.2123    8.3453    8.0731 H         1 RES1    0.0000
     10 C6         7.8925    9.4601    7.0419 C.ar      1 RES1    0.0000
     11 H5         7.1816    8.8651    7.1088 H         1 RES1    0.0000
     12 C7         6.4049   11.0010    5.7414 C.3       1 RES1    0.0000
     13 H6         6.5196   11.1294    4.7873 H         1 RES1    0.0000
     14 H7         5.7853   10.2659    5.8725 H         1 RES1    0.0000
     15 C8         6.0148   13.4982    5.9431 C.2       1 RES1    0.0000
     16 C9         5.4193   14.2345    6.9595 C.2       1 RES1    0.0000
     17 C10        5.4631   15.6721    7.1701 C.2       1 RES1    0.0000
     18 C11        4.8733   17.4492    8.6105 C.3       1 RES1    0.0000
     19 H8         4.4265   17.9792    7.9316 H         1 RES1    0.0000
     20 H9         5.7991   17.7331    8.6619 H         1 RES1    0.0000
     21 C12        4.2049   17.6312    9.9295 C.3       1 RES1    0.0000
     22 H10        3.3041   17.3050    9.8792 H         1 RES1    0.0000
     23 H11        4.1956   18.5646   10.1566 H         1 RES1    0.0000
     24 H12        4.6860   17.1434   10.6013 H         1 RES1    0.0000
     25 C13        6.3376   14.6755    3.9786 C.2       1 RES1    0.0000
     26 C14        4.7877   16.2904    2.8724 C.3       1 RES1    0.0000
     27 H13        5.4375   16.2901    2.1379 H         1 RES1    0.0000
     28 C15        3.4111   15.9832    2.3014 C.3       1 RES1    0.0000
     29 H14        3.4112   15.1018    1.9217 H         1 RES1    0.0000
     30 H15        3.1975   16.6250    1.6198 H         1 RES1    0.0000
     31 H16        2.7567   16.0294    3.0016 H         1 RES1    0.0000
     32 C16        4.8375   17.6328    3.5568 C.3       1 RES1    0.0000
     33 H17        4.2134   17.6428    4.2868 H         1 RES1    0.0000
     34 H18        4.6071   18.3214    2.9281 H         1 RES1    0.0000
     35 H19        5.7238   17.7885    3.8910 H         1 RES1    0.0000
     36 C17        8.5710   14.8303    3.1939 C.ar      1 RES1    0.0000
     37 C18        9.2338   14.2092    2.1687 C.ar      1 RES1    0.0000
     38 H20        8.7830   13.9107    1.4117 H         1 RES1    0.0000
     39 C19       10.5991   14.0431    2.3047 C.ar      1 RES1    0.0000
     40 C20       11.2963   14.4693    3.4007 C.ar      1 RES1    0.0000
     41 H21       12.2137   14.3359    3.4667 H         1 RES1    0.0000
     42 C21       10.5967   15.1018    4.4050 C.ar      1 RES1    0.0000
     43 H22       11.0507   15.4062    5.1572 H         1 RES1    0.0000
     44 C22        9.2374   15.2881    4.3103 C.ar      1 RES1    0.0000
     45 H23        8.7726   15.7178    4.9913 H         1 RES1    0.0000
     46 N1         5.8437   12.2163    6.3294 N.pl3     1 RES1    0.0000
     47 N2         5.1645   12.1470    7.5115 N.2       1 RES1    0.0000
     48 N3         4.9063   13.3681    7.8754 N.2       1 RES1    0.0000
     49 N4         6.7469   13.7964    4.8228 N.2       1 RES1    0.0000
     50 N5         5.1435   15.2108    3.8144 N.3       1 RES1    0.0000
     51 H24        4.5669   15.0232    4.3793 H         1 RES1    0.0000
     52 N6        11.3261   13.3920    1.2044 N.pl3     1 RES1    0.0000
     53 O1         6.0624   16.4390    6.4568 O.2       1 RES1    0.0000
     54 O2         4.7990   16.0424    8.2756 O.3       1 RES1    0.0000
     55 O3         7.2130   15.0813    3.0105 O.3       1 RES1    0.0000
     56 O4        10.7125   13.0338    0.2400 O.2       1 RES1    0.0000
     57 O5        12.5258   13.2556    1.3176 O.2       1 RES1    0.0000
@<TRIPOS>BOND
     1    1    2 ar
     2    2    3 1
     3    4    2 ar
     4    5    4 1
     5    6    4 ar
     6    7    6 1
     7    8    6 ar
     8    9    8 1
     9   10    1 ar
    10   11   10 1
    11   12    1 1
    12   13   12 1
    13   14   12 1
    14   15   16 2
    15   16   17 1
    16   17   53 2
    17   18   19 1
    18   20   18 1
    19   21   18 1
    20   22   21 1
    21   23   21 1
    22   24   21 1
    23   25   49 2
    24   26   27 1
    25   28   26 1
    26   29   28 1
    27   30   28 1
    28   31   28 1
    29   32   26 1
    30   33   32 1
    31   34   32 1
    32   35   32 1
    33   36   37 ar
    34   37   38 1
    35   39   37 ar
    36   40   39 ar
    37   41   40 1
    38   42   40 ar
    39   43   42 1
    40   44   36 ar
    41   45   44 1
    42   46   12 1
    43   47   46 1
    44   48   16 1
    45   49   15 1
    46   50   25 1
    47   51   50 1
    48   52   39 1
    49   54   17 1
    50   55   25 1
    51   56   52 2
    52   57   52 2
    53    8   10 ar
    54   15   46 1
    55   18   54 1
    56   26   50 1
    57   36   55 1
    58   42   44 ar
    59   47   48 2
@<TRIPOS>SUBSTRUCTURE
     1 RES1 1

@<TRIPOS>CRYSIN
  11.5019   14.5616   14.1758  90.0000 106.3840  90.0000 231 1

