# MOL2 file generated by ConQuest
# Please check atom types

@<TRIPOS>MOLECULE
WADWUU
    12    12     1
SMALL
NO_CHARGES
****
Generated from CSD

@<TRIPOS>ATOM
      1 O1        -0.3846    5.9945    1.6995 O.2       1 RES1    0.0000
      2 O2         1.9940    3.9639    2.3415 O.2       1 RES1    0.0000
      3 O3         2.7775    5.0227    0.6180 O.2       1 RES1    0.0000
      4 N1        -0.9593    4.8081    1.7744 N.pl3     1 RES1    0.0000
      5 N2         0.8238    4.0056    0.4460 N.pl3     1 RES1    0.0000
      6 N3         1.9261    4.3651    1.1978 N.pl3     1 RES1    0.0000
      7 C1        -0.3442    3.7366    1.1882 C.ar      1 RES1    0.0000
      8 C2        -0.8791    2.4841    1.2774 C.ar      1 RES1    0.0000
      9 C3        -2.0636    2.3090    1.9767 C.ar      1 RES1    0.0000
     10 C4        -2.6774    3.3933    2.5406 C.ar      1 RES1    0.0000
     11 C5        -2.1384    4.6632    2.4450 C.ar      1 RES1    0.0000
     12 C6        -2.8206    5.8333    3.0582 C.3       1 RES1    0.0000
@<TRIPOS>BOND
     1    1    4 1
     2    2    6 2
     3    3    6 2
     4    4    7 ar
     5    5    6 1
     6    7    5 1
     7    8    7 ar
     8    9    8 ar
     9   10    9 ar
    10   11    4 ar
    11   12   11 1
    12   10   11 ar
@<TRIPOS>SUBSTRUCTURE
     1 RES1 1

@<TRIPOS>CRYSIN
   8.1720   11.5970   16.3940  90.0000 103.6900  90.0000  15 1

