# MOL2 file generated by ConQuest
# Please check atom types

@<TRIPOS>MOLECULE
WADYAD
    36    38     1
SMALL
NO_CHARGES
****
Generated from CSD

@<TRIPOS>ATOM
      1 O1         2.2221    1.5625    6.4975 O.2       1 RES1    0.0000
      2 O2         0.4632    2.4330    5.6335 O.2       1 RES1    0.0000
      3 O3         2.0736    0.4075    0.2609 O.2       1 RES1    0.0000
      4 O4         1.8750    1.1393   -1.8251 O.3       1 RES1    0.0000
      5 N1         1.6168    2.0411    5.5629 N.pl3     1 RES1    0.0000
      6 N2         6.1764    3.1171   -0.7302 N.pl3     1 RES1    0.0000
      7 N3         6.2097    3.6156    1.4521 N.2       1 RES1    0.0000
      8 C1         7.3331    3.8087   -0.4937 C.2       1 RES1    0.0000
      9 H1         7.9885    4.0344   -1.1138 H         1 RES1    0.0000
     10 C2         7.3261    4.0959    0.8240 C.2       1 RES1    0.0000
     11 H2         8.0016    4.5659    1.2558 H         1 RES1    0.0000
     12 C3         5.5176    3.0164    0.4857 C.2       1 RES1    0.0000
     13 C4         4.2650    2.3518    0.5356 C.2       1 RES1    0.0000
     14 C5         3.7530    1.8536   -0.6400 C.2       1 RES1    0.0000
     15 C6         4.4606    2.0169   -1.8579 C.2       1 RES1    0.0000
     16 H3         4.0924    1.6928   -2.6480 H         1 RES1    0.0000
     17 C7         5.6470    2.6298   -1.8871 C.2       1 RES1    0.0000
     18 H4         6.1076    2.7228   -2.6893 H         1 RES1    0.0000
     19 C8         2.4883    1.0624   -0.6537 C.2       1 RES1    0.0000
     20 C9         0.6438    0.3718   -1.9535 C.3       1 RES1    0.0000
     21 H5         0.7994   -0.5522   -1.7004 H         1 RES1    0.0000
     22 H6        -0.0395    0.7388   -1.3716 H         1 RES1    0.0000
     23 C10        0.2109    0.4446   -3.3390 C.3       1 RES1    0.0000
     24 H7         0.0857    1.3638   -3.5865 H         1 RES1    0.0000
     25 H8        -0.6168   -0.0301   -3.4410 H         1 RES1    0.0000
     26 H9         0.8789    0.0490   -3.9039 H         1 RES1    0.0000
     27 C11        3.5780    2.2747    1.8537 C.ar      1 RES1    0.0000
     28 C12        4.2125    1.7190    2.9441 C.ar      1 RES1    0.0000
     29 H10        5.0777    1.3907    2.8531 H         1 RES1    0.0000
     30 C13        3.5807    1.6441    4.1690 C.ar      1 RES1    0.0000
     31 H11        4.0074    1.2673    4.9042 H         1 RES1    0.0000
     32 C14        2.3082    2.1387    4.2730 C.ar      1 RES1    0.0000
     33 C15        1.6566    2.7138    3.2183 C.ar      1 RES1    0.0000
     34 H12        0.7976    3.0550    3.3195 H         1 RES1    0.0000
     35 C16        2.3001    2.7772    2.0044 C.ar      1 RES1    0.0000
     36 H13        1.8689    3.1626    1.2765 H         1 RES1    0.0000
@<TRIPOS>BOND
     1    1    5 2
     2    2    5 2
     3    3   19 2
     4    4   19 1
     5    5   32 1
     6    6    8 1
     7    7   10 1
     8    8    9 1
     9   10    8 2
    10   11   10 1
    11   12    6 1
    12   13   12 1
    13   14   13 2
    14   15   14 1
    15   16   15 1
    16   17    6 1
    17   18   17 1
    18   19   14 1
    19   20    4 1
    20   21   20 1
    21   22   20 1
    22   23   20 1
    23   24   23 1
    24   25   23 1
    25   26   23 1
    26   27   13 1
    27   28   27 ar
    28   29   28 1
    29   30   28 ar
    30   31   30 1
    31   32   30 ar
    32   33   32 ar
    33   34   33 1
    34   35   27 ar
    35   36   35 1
    36    7   12 2
    37   15   17 2
    38   33   35 ar
@<TRIPOS>SUBSTRUCTURE
     1 RES1 1

@<TRIPOS>CRYSIN
   8.1890   15.8210   11.8840  90.0000 105.3800  90.0000  14 1

