# MOL2 file generated by ConQuest
# Please check atom types

@<TRIPOS>MOLECULE
WADZUY
    40    42     1
SMALL
NO_CHARGES
****
Generated from CSD

@<TRIPOS>ATOM
      1 O1         2.8776    4.1527    4.3379 O.2       1 RES1    0.0000
      2 O2         4.2222    0.0506    8.6893 O.2       1 RES1    0.0000
      3 O3         3.0696    0.2643    6.8963 O.2       1 RES1    0.0000
      4 N1         3.5668    6.1634    5.0961 N.am      1 RES1    0.0000
      5 H1         3.9224    6.5531    5.7753 H         1 RES1    0.0000
      6 N2         3.7505    0.7539    7.7899 N.pl3     1 RES1    0.0000
      7 N3         4.9028    2.2142   10.0582 N.pl3     1 RES1    0.0000
      8 H2         5.0475    1.3677   10.0128 H         1 RES1    0.0000
      9 C1         2.4872    6.5976    2.9232 C.ar      1 RES1    0.0000
     10 H3         2.1724    5.7242    2.8737 H         1 RES1    0.0000
     11 C2         2.1973    7.4987    1.9234 C.ar      1 RES1    0.0000
     12 H4         1.6617    7.2328    1.2116 H         1 RES1    0.0000
     13 C3         2.6848    8.7858    1.9576 C.ar      1 RES1    0.0000
     14 H5         2.5066    9.3738    1.2598 H         1 RES1    0.0000
     15 C4         3.4350    9.1939    3.0310 C.ar      1 RES1    0.0000
     16 H6         3.7576   10.0650    3.0703 H         1 RES1    0.0000
     17 C5         3.7089    8.3090    4.0511 C.ar      1 RES1    0.0000
     18 H7         4.2082    8.5940    4.7818 H         1 RES1    0.0000
     19 C6         3.2532    7.0039    4.0054 C.ar      1 RES1    0.0000
     20 C7         3.3824    4.8286    5.2196 C.2       1 RES1    0.0000
     21 C8         3.8352    4.2052    6.4972 C.ar      1 RES1    0.0000
     22 C9         4.4115    4.8859    7.5870 C.ar      1 RES1    0.0000
     23 H8         4.5607    5.8022    7.5261 H         1 RES1    0.0000
     24 C10        4.7542    4.2227    8.7327 C.ar      1 RES1    0.0000
     25 H9         5.1301    4.7038    9.4330 H         1 RES1    0.0000
     26 C11        4.5592    2.8398    8.8874 C.ar      1 RES1    0.0000
     27 C12        4.0093    2.1739    7.7735 C.ar      1 RES1    0.0000
     28 C13        3.6606    2.8465    6.6266 C.ar      1 RES1    0.0000
     29 H10        3.2958    2.3687    5.9174 H         1 RES1    0.0000
     30 C14        5.0423    2.8078   11.3259 C.ar      1 RES1    0.0000
     31 C15        4.2409    3.8439   11.7510 C.ar      1 RES1    0.0000
     32 H11        3.6121    4.2145   11.1762 H         1 RES1    0.0000
     33 C16        4.3756    4.3296   13.0324 C.ar      1 RES1    0.0000
     34 H12        3.8398    5.0376   13.3090 H         1 RES1    0.0000
     35 C17        5.2858    3.7894   13.9141 C.ar      1 RES1    0.0000
     36 H13        5.3600    4.1192   14.7807 H         1 RES1    0.0000
     37 C18        6.0882    2.7469   13.4866 C.ar      1 RES1    0.0000
     38 H14        6.7096    2.3704   14.0677 H         1 RES1    0.0000
     39 C19        5.9701    2.2674   12.2039 C.ar      1 RES1    0.0000
     40 H15        6.5183    1.5715   11.9222 H         1 RES1    0.0000
@<TRIPOS>BOND
     1    1   20 2
     2    2    6 2
     3    3    6 2
     4    4    5 1
     5    6   27 1
     6    7    8 1
     7    9   10 1
     8   11    9 ar
     9   12   11 1
    10   13   11 ar
    11   14   13 1
    12   15   13 ar
    13   16   15 1
    14   17   15 ar
    15   18   17 1
    16   19    4 1
    17   20    4 1
    18   21   20 1
    19   22   21 ar
    20   23   22 1
    21   24   22 ar
    22   25   24 1
    23   26    7 1
    24   27   26 ar
    25   28   21 ar
    26   29   28 1
    27   30    7 1
    28   31   30 ar
    29   32   31 1
    30   33   31 ar
    31   34   33 1
    32   35   33 ar
    33   36   35 1
    34   37   35 ar
    35   38   37 1
    36   39   30 ar
    37   40   39 1
    38    9   19 ar
    39   17   19 ar
    40   24   26 ar
    41   27   28 ar
    42   37   39 ar
@<TRIPOS>SUBSTRUCTURE
     1 RES1 1

@<TRIPOS>CRYSIN
   7.7930    8.1580   12.7880  84.7300  83.8200  73.5800   2 1

