# MOL2 file generated by ConQuest
# Please check atom types

@<TRIPOS>MOLECULE
WAFBAI
    27    28     1
SMALL
NO_CHARGES
****
Generated from CSD

@<TRIPOS>ATOM
      1 O1        11.3982    3.1729    4.3748 O.2       1 RES1    0.0000
      2 O2        11.0732    3.2214    2.2539 O.2       1 RES1    0.0000
      3 N1         9.4740    3.8393    6.0362 N.pl3     1 RES1    0.0000
      4 H1        10.2934    3.5994    5.9346 H         1 RES1    0.0000
      5 N2        10.6757    3.3867    3.3960 N.pl3     1 RES1    0.0000
      6 N3         5.9852    5.1290    0.3906 N.1       1 RES1    0.0000
      7 C1         7.8193    3.3720    7.7920 C.ar      1 RES1    0.0000
      8 H2         7.2578    2.9560    7.1782 H         1 RES1    0.0000
      9 C2         7.4722    3.4359    9.1225 C.ar      1 RES1    0.0000
     10 H3         6.6609    3.0778    9.4009 H         1 RES1    0.0000
     11 C3         8.3024    4.0198   10.0437 C.ar      1 RES1    0.0000
     12 H4         8.0594    4.0495   10.9407 H         1 RES1    0.0000
     13 C4         9.4932    4.5584    9.6347 C.ar      1 RES1    0.0000
     14 H5        10.0628    4.9470   10.2589 H         1 RES1    0.0000
     15 C5         9.8545    4.5295    8.3037 C.ar      1 RES1    0.0000
     16 H6        10.6591    4.9069    8.0296 H         1 RES1    0.0000
     17 C6         9.0156    3.9366    7.3801 C.ar      1 RES1    0.0000
     18 C7         8.7850    4.0763    4.9017 C.ar      1 RES1    0.0000
     19 C8         7.4703    4.6112    4.9354 C.ar      1 RES1    0.0000
     20 H7         7.0803    4.7872    5.7606 H         1 RES1    0.0000
     21 C9         6.7629    4.8742    3.8095 C.ar      1 RES1    0.0000
     22 H8         5.9060    5.2293    3.8771 H         1 RES1    0.0000
     23 C10        7.3088    4.6164    2.5455 C.ar      1 RES1    0.0000
     24 C11        8.5890    4.1105    2.4577 C.ar      1 RES1    0.0000
     25 H9         8.9638    3.9374    1.6235 H         1 RES1    0.0000
     26 C12        9.3184    3.8601    3.6060 C.ar      1 RES1    0.0000
     27 C13        6.5674    4.9002    1.3464 C.1       1 RES1    0.0000
@<TRIPOS>BOND
     1    1    5 2
     2    2    5 2
     3    3    4 1
     4    5   26 1
     5    6   27 3
     6    7    8 1
     7    9    7 ar
     8   10    9 1
     9   11    9 ar
    10   12   11 1
    11   13   11 ar
    12   14   13 1
    13   15   13 ar
    14   16   15 1
    15   17    3 1
    16   18    3 1
    17   19   18 ar
    18   20   19 1
    19   21   19 ar
    20   22   21 1
    21   23   21 ar
    22   24   23 ar
    23   25   24 1
    24   26   18 ar
    25   27   23 1
    26    7   17 ar
    27   15   17 ar
    28   24   26 ar
@<TRIPOS>SUBSTRUCTURE
     1 RES1 1

@<TRIPOS>CRYSIN
  14.0660    7.4290   11.6520  90.0000 109.0400  90.0000  14 1

