# MOL2 file generated by ConQuest
# Please check atom types

@<TRIPOS>MOLECULE
WAFPEY
    26    27     1
SMALL
NO_CHARGES
****
Generated from CSD

@<TRIPOS>ATOM
      1 C1         6.6115    6.1607    6.5837 C.ar      1 RES1    0.0000
      2 C2         5.3334    5.7098    6.3388 C.ar      1 RES1    0.0000
      3 C3         4.5494    5.2840    7.4291 C.ar      1 RES1    0.0000
      4 C4         4.9852    5.3739    8.7393 C.ar      1 RES1    0.0000
      5 C5         6.2867    5.8645    8.9695 C.ar      1 RES1    0.0000
      6 C6         7.1100    6.2196    7.8904 C.ar      1 RES1    0.0000
      7 C7         8.4870    6.5865    8.1621 C.2       1 RES1    0.0000
      8 N1         9.0283    6.5261    9.3321 N.2       1 RES1    0.0000
      9 N2         8.2282    6.1047   10.3428 N.am      1 RES1    0.0000
     10 C8         6.8104    6.0119   10.3367 C.2       1 RES1    0.0000
     11 C9         4.8048    5.6509    4.9317 C.3       1 RES1    0.0000
     12 C10        3.2427    4.6209    7.1211 C.2       1 RES1    0.0000
     13 O1         3.1232    3.4362    7.0042 O.2       1 RES1    0.0000
     14 O2         2.2453    5.4888    6.9887 O.3       1 RES1    0.0000
     15 C11        0.9375    4.9318    6.5941 C.3       1 RES1    0.0000
     16 C12        0.8873    4.6975    5.1411 C.3       1 RES1    0.0000
     17 C13        4.0884    4.8964    9.8582 C.3       1 RES1    0.0000
     18 C14        9.4344    6.9977    7.0691 C.3       1 RES1    0.0000
     19 O3         8.9461    8.1750    6.3665 O.3       1 RES1    0.0000
     20 N3         9.2642    9.3891    6.9895 N.pl3     1 RES1    0.0000
     21 O4         8.7676   10.3278    6.4495 O.2       1 RES1    0.0000
     22 O5         9.9930    9.3567    7.9406 O.2       1 RES1    0.0000
     23 N4         8.9522    6.0458   11.5915 N.pl3     1 RES1    0.0000
     24 O6         9.9871    6.6204   11.6365 O.2       1 RES1    0.0000
     25 O7         8.4672    5.4195   12.4577 O.2       1 RES1    0.0000
     26 O8         6.1822    6.0664   11.3535 O.2       1 RES1    0.0000
@<TRIPOS>BOND
     1    1    2 ar
     2    2    3 ar
     3    3    4 ar
     4    4    5 ar
     5    5    6 ar
     6    6    1 ar
     7    7    6 1
     8    8    7 2
     9    9    8 1
    10   10    5 1
    11   11    2 1
    12   12    3 1
    13   13   12 2
    14   14   12 1
    15   15   14 1
    16   16   15 1
    17   17    4 1
    18   18    7 1
    19   19   18 1
    20   20   19 1
    21   21   20 2
    22   22   20 2
    23   23    9 1
    24   24   23 2
    25   25   23 2
    26   26   10 2
    27    9   10 1
@<TRIPOS>SUBSTRUCTURE
     1 RES1 1

@<TRIPOS>CRYSIN
  12.4340   14.7350    8.7610  90.0000  98.9800  90.0000  14 2

