# MOL2 file generated by ConQuest
# Please check atom types

@<TRIPOS>MOLECULE
WAFQOM
    37    39     1
SMALL
NO_CHARGES
****
Generated from CSD

@<TRIPOS>ATOM
      1 O1         0.1969    0.0882    5.2996 O.2       1 RES1    0.0000
      2 O2        -1.2695   -0.9235    3.3823 O.3       1 RES1    0.0000
      3 O3        -3.3885   -1.4760    5.4542 O.3       1 RES1    0.0000
      4 O4        -5.8007    2.2193    2.5367 O.2       1 RES1    0.0000
      5 N1        -1.8511   -0.0454    4.3210 N.am      1 RES1    0.0000
      6 C1        -3.5122    3.4015    9.5476 C.3       1 RES1    0.0000
      7 H1        -4.4526    3.4572    9.3655 H         1 RES1    0.0000
      8 H2        -3.1348    4.2845    9.5580 H         1 RES1    0.0000
      9 H3        -3.3761    2.9854   10.4023 H         1 RES1    0.0000
     10 C2        -2.8401    2.5799    8.4760 C.ar      1 RES1    0.0000
     11 C3        -1.4551    2.3347    8.4929 C.ar      1 RES1    0.0000
     12 C4        -0.8973    1.5725    7.4751 C.ar      1 RES1    0.0000
     13 H4         0.0161    1.3978    7.4864 H         1 RES1    0.0000
     14 C5        -1.6717    1.0681    6.4383 C.ar      1 RES1    0.0000
     15 C6        -3.0495    1.3041    6.4148 C.ar      1 RES1    0.0000
     16 C7        -3.6078    2.0613    7.4402 C.ar      1 RES1    0.0000
     17 H5        -4.5226    2.2250    7.4317 H         1 RES1    0.0000
     18 C8        -0.5829    2.9034    9.5910 C.3       1 RES1    0.0000
     19 H6         0.3284    2.6399    9.4448 H         1 RES1    0.0000
     20 H7        -0.8804    2.5712   10.4410 H         1 RES1    0.0000
     21 H8        -0.6434    3.8622    9.5825 H         1 RES1    0.0000
     22 C9        -1.0084    0.3086    5.3450 C.2       1 RES1    0.0000
     23 C10       -0.8776   -0.1792    2.2282 C.3       1 RES1    0.0000
     24 H9        -0.4833   -0.7717    1.5839 H         1 RES1    0.0000
     25 H10       -0.2377    0.4902    2.4810 H         1 RES1    0.0000
     26 H11       -1.6493    0.2438    1.8442 H         1 RES1    0.0000
     27 C11       -3.9053    0.8208    5.2695 C.3       1 RES1    0.0000
     28 H12       -4.7671    0.5348    5.6374 H         1 RES1    0.0000
     29 C12       -3.2684   -0.3835    4.5799 C.3       1 RES1    0.0000
     30 C13       -3.9299   -0.6975    3.2649 C.2       1 RES1    0.0000
     31 H13       -3.7783   -1.5350    2.8895 H         1 RES1    0.0000
     32 C14       -4.7166    0.1459    2.6065 C.2       1 RES1    0.0000
     33 H14       -5.1108   -0.1326    1.8112 H         1 RES1    0.0000
     34 C15       -4.9813    1.4984    3.0904 C.2       1 RES1    0.0000
     35 C16       -4.1735    1.9507    4.2734 C.3       1 RES1    0.0000
     36 H15       -4.6464    2.6660    4.7262 H         1 RES1    0.0000
     37 H16       -3.3258    2.3058    3.9621 H         1 RES1    0.0000
@<TRIPOS>BOND
     1    1   22 2
     2    2    5 1
     3    3   29 1
     4    4   34 2
     5    5   22 1
     6    6    7 1
     7    8    6 1
     8    9    6 1
     9   10    6 1
    10   11   10 ar
    11   12   11 ar
    12   13   12 1
    13   14   12 ar
    14   15   14 ar
    15   16   10 ar
    16   17   16 1
    17   18   11 1
    18   19   18 1
    19   20   18 1
    20   21   18 1
    21   22   14 1
    22   23    2 1
    23   24   23 1
    24   25   23 1
    25   26   23 1
    26   27   15 1
    27   28   27 1
    28   29    5 1
    29   30   29 1
    30   31   30 1
    31   32   30 2
    32   33   32 1
    33   34   32 1
    34   35   27 1
    35   36   35 1
    36   37   35 1
    37   15   16 ar
    38   27   29 1
    39   34   35 1
@<TRIPOS>SUBSTRUCTURE
     1 RES1 1

@<TRIPOS>CRYSIN
   7.6471   10.1457   10.4036 108.0590 102.0950 102.8830   2 1

