# MOL2 file generated by ConQuest
# Please check atom types

@<TRIPOS>MOLECULE
WAFRUS
    35    36     1
SMALL
NO_CHARGES
****
Generated from CSD

@<TRIPOS>ATOM
      1 O1         3.6446    3.7849    3.1439 O.2       1 RES1    0.0000
      2 O2         3.9724    2.1445    4.4992 O.2       1 RES1    0.0000
      3 O3         6.1936   -0.6510    2.3225 O.2       1 RES1    0.0000
      4 N1         3.9572    2.6284    3.3730 N.pl3     1 RES1    0.0000
      5 C1         4.3623    1.7551    2.2403 C.3       1 RES1    0.0000
      6 H1         5.3290    1.5503    2.3053 H         1 RES1    0.0000
      7 H2         4.2037    2.2251    1.3838 H         1 RES1    0.0000
      8 C2         3.5555    0.4537    2.2729 C.3       1 RES1    0.0000
      9 H3         3.6949    0.0301    3.1676 H         1 RES1    0.0000
     10 C3         4.0586   -0.5275    1.2060 C.3       1 RES1    0.0000
     11 H4         3.9348   -0.1037    0.3090 H         1 RES1    0.0000
     12 C4         5.5175   -0.9267    1.3440 C.2       1 RES1    0.0000
     13 C5         6.0207   -1.8134    0.2389 C.3       1 RES1    0.0000
     14 H5         6.9821   -2.0093    0.3749 H         1 RES1    0.0000
     15 H6         5.9173   -1.3571   -0.6340 H         1 RES1    0.0000
     16 C6         5.2142   -3.1200    0.2453 C.3       1 RES1    0.0000
     17 H7         5.4899   -3.6842   -0.5204 H         1 RES1    0.0000
     18 H8         5.3998   -3.6207    1.0794 H         1 RES1    0.0000
     19 C7         3.7260   -2.8219    0.1488 C.3       1 RES1    0.0000
     20 H9         3.2185   -3.6675    0.2329 H         1 RES1    0.0000
     21 H10        3.5279   -2.4366   -0.7419 H         1 RES1    0.0000
     22 C8         3.2635   -1.8511    1.2278 C.3       1 RES1    0.0000
     23 H11        3.3688   -2.2778    2.1155 H         1 RES1    0.0000
     24 H12        2.3015   -1.6540    1.0975 H         1 RES1    0.0000
     25 C9         2.0702    0.7304    2.1148 C.ar      1 RES1    0.0000
     26 C10        1.5681    1.3524    0.9753 C.ar      1 RES1    0.0000
     27 H13        2.1681    1.6573    0.3045 H         1 RES1    0.0000
     28 C11        0.2118    1.5325    0.8058 C.ar      1 RES1    0.0000
     29 H14       -0.1111    1.9642    0.0239 H         1 RES1    0.0000
     30 C12       -0.6803    1.0927    1.7582 C.ar      1 RES1    0.0000
     31 H15       -1.6143    1.2033    1.6293 H         1 RES1    0.0000
     32 C13       -0.2018    0.4924    2.8969 C.ar      1 RES1    0.0000
     33 H16       -0.8090    0.1932    3.5630 H         1 RES1    0.0000
     34 C14        1.1612    0.3194    3.0810 C.ar      1 RES1    0.0000
     35 H17        1.4785   -0.0861    3.8800 H         1 RES1    0.0000
@<TRIPOS>BOND
     1    1    4 2
     2    2    4 2
     3    3   12 2
     4    4    5 1
     5    5    6 1
     6    7    5 1
     7    8    5 1
     8    9    8 1
     9   10    8 1
    10   11   10 1
    11   12   10 1
    12   13   12 1
    13   14   13 1
    14   15   13 1
    15   16   13 1
    16   17   16 1
    17   18   16 1
    18   19   16 1
    19   20   19 1
    20   21   19 1
    21   22   10 1
    22   23   22 1
    23   24   22 1
    24   25    8 1
    25   26   25 ar
    26   27   26 1
    27   28   26 ar
    28   29   28 1
    29   30   28 ar
    30   31   30 1
    31   32   30 ar
    32   33   32 1
    33   34   25 ar
    34   35   34 1
    35   19   22 1
    36   32   34 ar
@<TRIPOS>SUBSTRUCTURE
     1 RES1 1

@<TRIPOS>CRYSIN
  13.4567    8.3618   11.3668  90.0000  91.7340  90.0000  14 1

