# MOL2 file generated by ConQuest
# Please check atom types

@<TRIPOS>MOLECULE
WAGKEU
    25    25     1
SMALL
NO_CHARGES
****
Generated from CSD

@<TRIPOS>ATOM
      1 O1         0.1744   11.3768    4.1693 O.2       1 RES1    0.0000
      2 O2         0.3501   13.3253    3.2719 O.2       1 RES1    0.0000
      3 O3        -1.1842    7.6283    5.3357 O.2       1 RES1    0.0000
      4 O4        -0.1142    6.0680    4.1201 O.3       1 RES1    0.0000
      5 N1         0.4574   12.1018    3.2331 N.pl3     1 RES1    0.0000
      6 C1         0.9974   10.1020    1.8365 C.ar      1 RES1    0.0000
      7 C2         0.9660   11.4986    1.9978 C.ar      1 RES1    0.0000
      8 C3         1.4193   12.3587    1.0132 C.ar      1 RES1    0.0000
      9 C4         1.9371   11.8392   -0.1628 C.ar      1 RES1    0.0000
     10 C5         2.0153   10.4730   -0.3365 C.ar      1 RES1    0.0000
     11 C6         1.5502    9.6168    0.6437 C.ar      1 RES1    0.0000
     12 C7         0.4742    9.1544    2.7741 C.1       1 RES1    0.0000
     13 C8         0.0506    8.2696    3.4537 C.1       1 RES1    0.0000
     14 C9        -0.4869    7.3163    4.4017 C.2       1 RES1    0.0000
     15 C10       -0.5788    5.0710    5.0915 C.3       1 RES1    0.0000
     16 C11       -0.0454    3.7352    4.6795 C.3       1 RES1    0.0000
     17 H1         1.4185   13.2625    1.1730 H         1 RES1    0.0000
     18 H2         2.2735   12.4633   -0.8138 H         1 RES1    0.0000
     19 H3         2.4104   10.1229   -1.1510 H         1 RES1    0.0000
     20 H4         1.5766    8.6768    0.5425 H         1 RES1    0.0000
     21 H5        -1.6177    5.0614    5.0952 H         1 RES1    0.0000
     22 H6        -0.1660    5.3450    6.0116 H         1 RES1    0.0000
     23 H7        -0.4087    3.4821    3.7829 H         1 RES1    0.0000
     24 H8         1.0100    3.8056    4.6920 H         1 RES1    0.0000
     25 H9        -0.3989    3.0825    5.3591 H         1 RES1    0.0000
@<TRIPOS>BOND
     1    1    5 2
     2    2    5 2
     3    3   14 2
     4    4   14 1
     5    5    7 1
     6    6    7 ar
     7    7    8 ar
     8    8    9 ar
     9    9   10 ar
    10   10   11 ar
    11   11    6 ar
    12   12    6 1
    13   13   12 3
    14   14   13 1
    15   15    4 1
    16   16   15 1
    17   17    8 1
    18   18    9 1
    19   19   10 1
    20   20   11 1
    21   21   15 1
    22   22   15 1
    23   23   16 1
    24   24   16 1
    25   25   16 1
@<TRIPOS>SUBSTRUCTURE
     1 RES1 1

@<TRIPOS>CRYSIN
   7.2990   19.0280    8.1030  90.0000 115.2100  90.0000  14 1

