# MOL2 file generated by ConQuest
# Please check atom types

@<TRIPOS>MOLECULE
WAGLUO
    86    90     2
SMALL
NO_CHARGES
****
Generated from CSD

@<TRIPOS>ATOM
      1 C1         1.5634    6.6883   15.4816 C.ar      1 RES1    0.0000
      2 C2         0.7360    6.4402   16.5556 C.ar      1 RES1    0.0000
      3 H1         0.2306    5.6595   16.5748 H         1 RES1    0.0000
      4 C3         0.6469    7.3342   17.5995 C.ar      1 RES1    0.0000
      5 H2         0.0880    7.1578   18.3229 H         1 RES1    0.0000
      6 C4         1.3880    8.4841   17.5642 C.ar      1 RES1    0.0000
      7 H3         1.3209    9.0922   18.2634 H         1 RES1    0.0000
      8 C5         2.2243    8.7550   16.5200 C.ar      1 RES1    0.0000
      9 H4         2.7301    9.5357   16.5084 H         1 RES1    0.0000
     10 C6         2.3083    7.8519   15.4795 C.ar      1 RES1    0.0000
     11 H5         2.8766    8.0296   14.7639 H         1 RES1    0.0000
     12 C7         1.6309    5.7273   14.3548 C.ar      1 RES1    0.0000
     13 C8         0.4807    5.3301   13.6626 C.ar      1 RES1    0.0000
     14 C9         0.5555    4.3619   12.6739 C.ar      1 RES1    0.0000
     15 H6        -0.2187    4.0754   12.2467 H         1 RES1    0.0000
     16 C10        1.7614    3.8292   12.3289 C.ar      1 RES1    0.0000
     17 C11        2.9175    4.2310   12.9550 C.ar      1 RES1    0.0000
     18 H7         3.7409    3.8813   12.7012 H         1 RES1    0.0000
     19 C12        2.8311    5.1621   13.9636 C.ar      1 RES1    0.0000
     20 H8         3.6097    5.4219   14.4003 H         1 RES1    0.0000
     21 C13       -0.8571    5.9467   13.9063 C.2       1 RES1    0.0000
     22 C14       -2.0162    7.9795   14.2220 C.3       1 RES1    0.0000
     23 H9        -2.7093    7.7509   13.5997 H         1 RES1    0.0000
     24 H10       -1.8496    8.9243   14.1835 H         1 RES1    0.0000
     25 H11       -2.2924    7.7386   15.1100 H         1 RES1    0.0000
     26 C15        2.4402    1.8199   11.2259 C.2       1 RES1    0.0000
     27 C16        2.2374    1.0496    9.9582 C.ar      1 RES1    0.0000
     28 C17        1.5874    1.5764    8.8657 C.ar      1 RES1    0.0000
     29 H12        1.2376    2.4365    8.9045 H         1 RES1    0.0000
     30 C18        1.4544    0.8360    7.7162 C.ar      1 RES1    0.0000
     31 H13        1.0317    1.1922    6.9677 H         1 RES1    0.0000
     32 C19        1.9573   -0.4395    7.6976 C.ar      1 RES1    0.0000
     33 C20        2.6003   -0.9910    8.7699 C.ar      1 RES1    0.0000
     34 H14        2.9405   -1.8557    8.7297 H         1 RES1    0.0000
     35 C21        2.7295   -0.2416    9.8995 C.ar      1 RES1    0.0000
     36 H15        3.1549   -0.6029   10.6420 H         1 RES1    0.0000
     37 N1         1.7973   -1.2482    6.4621 N.pl3     1 RES1    0.0000
     38 O1        -1.8628    5.3138   14.0664 O.2       1 RES1    0.0000
     39 O2        -0.8075    7.2632   13.8836 O.3       1 RES1    0.0000
     40 O3         3.1494    1.4540   12.1107 O.2       1 RES1    0.0000
     41 O4         1.7427    2.9580   11.2157 O.3       1 RES1    0.0000
     42 O5         1.0109   -0.8491    5.6322 O.2       1 RES1    0.0000
     43 O6         2.4104   -2.2841    6.3726 O.2       1 RES1    0.0000
     44 C22        6.4499    0.0169    2.2221 C.ar      2 RES2    0.0000
     45 C23        7.2331   -1.1069    2.3847 C.ar      2 RES2    0.0000
     46 H16        7.6902   -1.2306    3.1849 H         2 RES2    0.0000
     47 C24        7.3540   -2.0471    1.3949 C.ar      2 RES2    0.0000
     48 H17        7.8837   -2.7998    1.5278 H         2 RES2    0.0000
     49 C25        6.6902   -1.8746    0.1958 C.ar      2 RES2    0.0000
     50 H18        6.7765   -2.5016   -0.4860 H         2 RES2    0.0000
     51 C26        5.9042   -0.7709    0.0252 C.ar      2 RES2    0.0000
     52 H19        5.4447   -0.6557   -0.7761 H         2 RES2    0.0000
     53 C27        5.7832    0.1686    1.0156 C.ar      2 RES2    0.0000
     54 H20        5.2473    0.9161    0.8775 H         2 RES2    0.0000
     55 C28        6.3324    1.0333    3.2867 C.ar      2 RES2    0.0000
     56 C29        7.4762    1.6506    3.7754 C.ar      2 RES2    0.0000
     57 H21        8.3077    1.3602    3.4751 H         2 RES2    0.0000
     58 C30        7.4158    2.6774    4.6882 C.ar      2 RES2    0.0000
     59 H22        8.1961    3.0759    4.9994 H         2 RES2    0.0000
     60 C31        6.1788    3.1097    5.1357 C.ar      2 RES2    0.0000
     61 C32        5.0316    2.5166    4.6802 C.ar      2 RES2    0.0000
     62 H23        4.2032    2.8278    4.9679 H         2 RES2    0.0000
     63 C33        5.0994    1.4559    3.7967 C.ar      2 RES2    0.0000
     64 C34        3.8146    0.7970    3.4094 C.2       2 RES2    0.0000
     65 C35        2.8586   -1.2801    2.8315 C.3       2 RES2    0.0000
     66 H24        2.0199   -0.8862    3.0835 H         2 RES2    0.0000
     67 H25        2.8981   -2.1826    3.1569 H         2 RES2    0.0000
     68 H26        2.9375   -1.2808    1.8739 H         2 RES2    0.0000
     69 C36        6.7061    4.2837    7.1292 C.2       2 RES2    0.0000
     70 C37        6.3668    5.5352    7.8808 C.ar      2 RES2    0.0000
     71 C38        6.8584    5.6582    9.1800 C.ar      2 RES2    0.0000
     72 H27        7.3708    4.9759    9.5513 H         2 RES2    0.0000
     73 C39        6.5890    6.7743    9.9051 C.ar      2 RES2    0.0000
     74 H28        6.9184    6.8635   10.7714 H         2 RES2    0.0000
     75 C40        5.8178    7.7796    9.3429 C.ar      2 RES2    0.0000
     76 C41        5.3229    7.6604    8.0588 C.ar      2 RES2    0.0000
     77 H29        4.7964    8.3356    7.6948 H         2 RES2    0.0000
     78 C42        5.6114    6.5398    7.3236 C.ar      2 RES2    0.0000
     79 H30        5.2985    6.4604    6.4502 H         2 RES2    0.0000
     80 N2         5.5395    8.9887   10.1159 N.pl3     2 RES2    0.0000
     81 O7         2.8058    1.3901    3.1629 O.2       2 RES2    0.0000
     82 O8         3.9401   -0.5157    3.4031 O.3       2 RES2    0.0000
     83 O9         7.4635    3.4529    7.5071 O.2       2 RES2    0.0000
     84 O10        6.0354    4.2245    5.9674 O.3       2 RES2    0.0000
     85 O11        4.7117    9.7642    9.6925 O.2       2 RES2    0.0000
     86 O12        6.1626    9.1671   11.1364 O.2       2 RES2    0.0000
@<TRIPOS>BOND
     1    1    2 ar
     2    2    3 1
     3    4    2 ar
     4    5    4 1
     5    6    4 ar
     6    7    6 1
     7    8    6 ar
     8    9    8 1
     9   10    1 ar
    10   11   10 1
    11   12    1 1
    12   13   12 ar
    13   14   13 ar
    14   15   14 1
    15   16   14 ar
    16   17   16 ar
    17   18   17 1
    18   19   12 ar
    19   20   19 1
    20   21   13 1
    21   22   23 1
    22   24   22 1
    23   25   22 1
    24   26   27 1
    25   27   28 ar
    26   28   29 1
    27   30   28 ar
    28   31   30 1
    29   32   30 ar
    30   33   32 ar
    31   34   33 1
    32   35   27 ar
    33   36   35 1
    34   37   32 1
    35   38   21 2
    36   39   21 1
    37   40   26 2
    38   41   16 1
    39   42   37 2
    40   43   37 2
    41   44   45 ar
    42   45   46 1
    43   47   45 ar
    44   48   47 1
    45   49   47 ar
    46   50   49 1
    47   51   49 ar
    48   52   51 1
    49   53   44 ar
    50   54   53 1
    51   55   44 1
    52   56   55 ar
    53   57   56 1
    54   58   56 ar
    55   59   58 1
    56   60   58 ar
    57   61   60 ar
    58   62   61 1
    59   63   55 ar
    60   64   63 1
    61   65   66 1
    62   67   65 1
    63   68   65 1
    64   69   70 1
    65   70   71 ar
    66   71   72 1
    67   73   71 ar
    68   74   73 1
    69   75   73 ar
    70   76   75 ar
    71   77   76 1
    72   78   70 ar
    73   79   78 1
    74   80   75 1
    75   81   64 2
    76   82   64 1
    77   83   69 2
    78   84   60 1
    79   85   80 2
    80   86   80 2
    81    8   10 ar
    82   17   19 ar
    83   22   39 1
    84   26   41 1
    85   33   35 ar
    86   51   53 ar
    87   61   63 ar
    88   65   82 1
    89   69   84 1
    90   76   78 ar
@<TRIPOS>SUBSTRUCTURE
     1 RES1 1
     2 RES2 44

@<TRIPOS>CRYSIN
   8.0698    6.5112   35.0080  90.0000  92.9800  90.0000   4 1

