# MOL2 file generated by ConQuest
# Please check atom types

@<TRIPOS>MOLECULE
WAGZIO
    52    54     1
SMALL
NO_CHARGES
****
Generated from CSD

@<TRIPOS>ATOM
      1 N1        10.0319   -2.9683    2.7313 N.pl3     1 RES1    0.0000
      2 O1         6.0436    5.5245    5.7831 O.3       1 RES1    0.0000
      3 O2         5.4123    6.6884    3.8568 O.3       1 RES1    0.0000
      4 O3         7.2454    2.1953    5.1724 O.3       1 RES1    0.0000
      5 O4         7.0650    0.8486    6.9681 O.2       1 RES1    0.0000
      6 O5        10.3338   -4.0119    3.2885 O.2       1 RES1    0.0000
      7 O6        10.2749   -2.7431    1.5585 O.2       1 RES1    0.0000
      8 C1         6.7576    4.4923    5.0814 C.3       1 RES1    0.0000
      9 C2         8.2155    4.8722    4.9349 C.3       1 RES1    0.0000
     10 C3         8.3343    6.1863    4.1726 C.3       1 RES1    0.0000
     11 C4         7.4835    7.2517    4.8444 C.3       1 RES1    0.0000
     12 C5         6.0719    6.7716    5.0921 C.3       1 RES1    0.0000
     13 C6         4.0443    6.3152    3.9653 C.3       1 RES1    0.0000
     14 C7         6.4846    3.2230    5.8747 C.3       1 RES1    0.0000
     15 C8         5.0217    2.8508    5.9366 C.2       1 RES1    0.0000
     16 C9         4.3242    3.0938    7.1981 C.3       1 RES1    0.0000
     17 H1         4.4750    4.0369    7.4601 H         1 RES1    0.0000
     18 H2         4.7349    2.5242    7.8949 H         1 RES1    0.0000
     19 C10        2.8450    2.8373    7.1850 C.3       1 RES1    0.0000
     20 H3         2.5716    2.5348    8.0867 H         1 RES1    0.0000
     21 H4         2.3802    3.6923    7.0039 H         1 RES1    0.0000
     22 C11        2.3992    1.8705    6.2309 C.3       1 RES1    0.0000
     23 H5         1.4149    1.9468    6.1594 H         1 RES1    0.0000
     24 H6         2.5981    0.9721    6.5930 H         1 RES1    0.0000
     25 C12        2.9567    1.9455    4.8801 C.3       1 RES1    0.0000
     26 H7         2.4546    2.6242    4.3620 H         1 RES1    0.0000
     27 H8         2.8323    1.0707    4.4322 H         1 RES1    0.0000
     28 C13        4.4065    2.2967    4.8599 C.2       1 RES1    0.0000
     29 C14        7.4227    1.0414    5.8333 C.2       1 RES1    0.0000
     30 C15        8.1166    0.0259    4.9899 C.ar      1 RES1    0.0000
     31 C16        8.6032    0.3186    3.7164 C.ar      1 RES1    0.0000
     32 C17        9.2232   -0.6603    2.9659 C.ar      1 RES1    0.0000
     33 C18        9.3567   -1.9190    3.5198 C.ar      1 RES1    0.0000
     34 C19        8.8980   -2.2414    4.7848 C.ar      1 RES1    0.0000
     35 C20        8.2768   -1.2590    5.5209 C.ar      1 RES1    0.0000
     36 H9         6.3359    4.3881    4.2405 H         1 RES1    0.0000
     37 H10        8.6827    4.1303    4.5144 H         1 RES1    0.0000
     38 H11        8.5879    4.9432    5.8366 H         1 RES1    0.0000
     39 H12        8.0081    6.0376    3.2876 H         1 RES1    0.0000
     40 H13        9.2836    6.4323    4.1333 H         1 RES1    0.0000
     41 H14        7.8360    7.4977    5.6937 H         1 RES1    0.0000
     42 H15        7.4413    8.0896    4.3238 H         1 RES1    0.0000
     43 H16        5.5171    7.4056    5.6937 H         1 RES1    0.0000
     44 H17        3.9602    5.3536    4.2881 H         1 RES1    0.0000
     45 H18        3.5907    7.0242    4.5263 H         1 RES1    0.0000
     46 H19        3.6498    6.3139    3.0612 H         1 RES1    0.0000
     47 H20        6.8289    3.3043    6.7657 H         1 RES1    0.0000
     48 H21        4.8779    2.1967    4.0737 H         1 RES1    0.0000
     49 H22        8.5480    1.2365    3.3590 H         1 RES1    0.0000
     50 H23        9.5884   -0.4604    2.0964 H         1 RES1    0.0000
     51 H24        8.9871   -3.1306    5.1338 H         1 RES1    0.0000
     52 H25        7.9550   -1.4759    6.3488 H         1 RES1    0.0000
@<TRIPOS>BOND
     1    1    6 2
     2    2    8 1
     3    3   12 1
     4    4   14 1
     5    5   29 2
     6    7    1 2
     7    8    9 1
     8    9   10 1
     9   10   11 1
    10   11   12 1
    11   12    2 1
    12   13    3 1
    13   14    8 1
    14   15   14 1
    15   16   15 1
    16   17   16 1
    17   18   16 1
    18   19   16 1
    19   20   19 1
    20   21   19 1
    21   22   19 1
    22   23   22 1
    23   24   22 1
    24   25   22 1
    25   26   25 1
    26   27   25 1
    27   28   15 2
    28   29    4 1
    29   30   29 1
    30   31   30 ar
    31   32   31 ar
    32   33    1 1
    33   34   33 ar
    34   35   30 ar
    35   36    8 1
    36   37    9 1
    37   38    9 1
    38   39   10 1
    39   40   10 1
    40   41   11 1
    41   42   11 1
    42   43   12 1
    43   44   13 1
    44   45   13 1
    45   46   13 1
    46   47   14 1
    47   48   28 1
    48   49   31 1
    49   50   32 1
    50   51   34 1
    51   52   35 1
    52   25   28 1
    53   32   33 ar
    54   34   35 ar
@<TRIPOS>SUBSTRUCTURE
     1 RES1 1

@<TRIPOS>CRYSIN
  12.1406   13.1539   12.9650  90.0000 113.2580  90.0000  14 1

