# MOL2 file generated by ConQuest
# Please check atom types

@<TRIPOS>MOLECULE
WAHLEW
    37    39     1
SMALL
NO_CHARGES
****
Generated from CSD

@<TRIPOS>ATOM
      1 O1         1.2714   -1.2199    1.0466 O.3       1 RES1    0.0000
      2 C1         0.6159   -1.1385   -0.2190 C.3       1 RES1    0.0000
      3 N1         0.8663    0.2059   -0.7117 N.3       1 RES1    0.0000
      4 C2         0.9786    0.9802    0.5072 C.3       1 RES1    0.0000
      5 C3         1.5841    2.3599    0.4492 C.3       1 RES1    0.0000
      6 C4         1.7310    2.8577    1.8904 C.3       1 RES1    0.0000
      7 C5         2.4751    1.8836    2.7856 C.3       1 RES1    0.0000
      8 C6         1.8923    0.4840    2.7518 C.3       1 RES1    0.0000
      9 C7         1.8378    0.0753    1.2962 C.3       1 RES1    0.0000
     10 C8        -0.1662    0.6499   -1.6585 C.3       1 RES1    0.0000
     11 C9         1.1437   -2.2093   -1.1529 C.ar      1 RES1    0.0000
     12 C10        0.5141   -3.4170   -1.2592 C.ar      1 RES1    0.0000
     13 C11        0.9935   -4.4110   -2.0981 C.ar      1 RES1    0.0000
     14 C12        2.1416   -4.1621   -2.8001 C.ar      1 RES1    0.0000
     15 C13        2.8021   -2.9745   -2.7212 C.ar      1 RES1    0.0000
     16 C14        2.3062   -1.9912   -1.9016 C.ar      1 RES1    0.0000
     17 N2         2.6551   -5.2038   -3.7196 N.pl3     1 RES1    0.0000
     18 O2         3.7053   -4.9610   -4.3025 O.2       1 RES1    0.0000
     19 O3         2.0238   -6.2209   -3.8371 O.2       1 RES1    0.0000
     20 H1        -0.3192   -1.2906   -0.1449 H         1 RES1    0.0000
     21 H2         0.1156    1.2138    0.8373 H         1 RES1    0.0000
     22 H3         1.0127    2.9499   -0.0483 H         1 RES1    0.0000
     23 H4         2.4328    2.3200    0.0161 H         1 RES1    0.0000
     24 H5         0.8696    3.0113    2.1255 H         1 RES1    0.0000
     25 H6         2.2181    3.6720    1.8678 H         1 RES1    0.0000
     26 H7         2.4163    2.2124    3.6874 H         1 RES1    0.0000
     27 H8         3.3795    1.8437    2.5280 H         1 RES1    0.0000
     28 H9         1.0127    0.4763    3.1238 H         1 RES1    0.0000
     29 H10        2.4438   -0.1075    3.2526 H         1 RES1    0.0000
     30 H11        2.7575    0.0922    1.0466 H         1 RES1    0.0000
     31 H12        0.0330    1.5210   -1.9483 H         1 RES1    0.0000
     32 H13       -1.0127    0.6453   -1.2238 H         1 RES1    0.0000
     33 H14       -0.1816    0.0615   -2.3992 H         1 RES1    0.0000
     34 H15       -0.2697   -3.5798   -0.7407 H         1 RES1    0.0000
     35 H16        0.5394   -5.2391   -2.1899 H         1 RES1    0.0000
     36 H17        3.5941   -2.8270   -3.2204 H         1 RES1    0.0000
     37 H18        2.7575   -1.1523   -1.8356 H         1 RES1    0.0000
@<TRIPOS>BOND
     1    1    2 1
     2    2    3 1
     3    3    4 1
     4    4    5 1
     5    5    6 1
     6    6    7 1
     7    7    8 1
     8    8    9 1
     9    9    1 1
    10   10    3 1
    11   11    2 1
    12   12   11 ar
    13   13   12 ar
    14   14   13 ar
    15   15   14 ar
    16   16   11 ar
    17   17   14 1
    18   18   17 2
    19   19   17 2
    20   20    2 1
    21   21    4 1
    22   22    5 1
    23   23    5 1
    24   24    6 1
    25   25    6 1
    26   26    7 1
    27   27    7 1
    28   28    8 1
    29   29    8 1
    30   30    9 1
    31   31   10 1
    32   32   10 1
    33   33   10 1
    34   34   12 1
    35   35   13 1
    36   36   15 1
    37   37   16 1
    38    4    9 1
    39   15   16 ar
@<TRIPOS>SUBSTRUCTURE
     1 RES1 1

@<TRIPOS>CRYSIN
   5.5040   15.3640   16.1020  90.0000  90.0000  90.0000  19 1

