# MOL2 file generated by ConQuest
# Please check atom types

@<TRIPOS>MOLECULE
WAHPUR
    59    61     1
SMALL
NO_CHARGES
****
Generated from CSD

@<TRIPOS>ATOM
      1 O1         7.2576    3.8859   14.0317 O.3       1 RES1    0.0000
      2 O2         6.3907    1.2713   12.5533 O.2       1 RES1    0.0000
      3 O3         8.4431    2.0416   12.0909 O.3       1 RES1    0.0000
      4 O4         2.6906    5.2982   18.5721 O.2       1 RES1    0.0000
      5 O5         2.7032    6.9743   19.9270 O.2       1 RES1    0.0000
      6 O6         6.8129    9.0870   21.1631 O.2       1 RES1    0.0000
      7 O7         8.2912    9.3001   19.6200 O.2       1 RES1    0.0000
      8 N1         3.2594    6.2481   19.1208 N.pl3     1 RES1    0.0000
      9 N2         7.2903    8.7776   20.0894 N.pl3     1 RES1    0.0000
     10 N3         4.5614    5.2205   16.7504 N.3       1 RES1    0.0000
     11 N4         5.1012    4.8990   15.5311 N.2       1 RES1    0.0000
     12 C1         6.3522    4.3676   13.0285 C.3       1 RES1    0.0000
     13 C2         6.5933    3.5314   11.7242 C.3       1 RES1    0.0000
     14 C3         7.5669    4.1852   10.7240 C.3       1 RES1    0.0000
     15 H1         8.3668    4.4412   11.2097 H         1 RES1    0.0000
     16 H2         7.8268    3.5120   10.0763 H         1 RES1    0.0000
     17 C4         7.0782    5.3862    9.9724 C.2       1 RES1    0.0000
     18 H3         7.3449    5.4221    9.0815 H         1 RES1    0.0000
     19 C5         6.3268    6.4077   10.3691 C.2       1 RES1    0.0000
     20 C6         5.8045    6.5754   11.7643 C.3       1 RES1    0.0000
     21 H4         4.8905    6.2509   11.7871 H         1 RES1    0.0000
     22 H5         5.7811    7.5239   11.9683 H         1 RES1    0.0000
     23 C7         6.5907    5.8688   12.8675 C.3       1 RES1    0.0000
     24 H6         6.3805    6.2998   13.7110 H         1 RES1    0.0000
     25 H7         7.5356    6.0075   12.7002 H         1 RES1    0.0000
     26 C8         4.9021    4.0592   13.3662 C.2       1 RES1    0.0000
     27 C9         4.2809    3.5401   12.3165 C.2       1 RES1    0.0000
     28 H8         3.3745    3.3309   12.3129 H         1 RES1    0.0000
     29 C10        5.1689    3.3232   11.1438 C.3       1 RES1    0.0000
     30 H9         4.9811    3.9646   10.4405 H         1 RES1    0.0000
     31 H10        5.0642    2.4258   10.7887 H         1 RES1    0.0000
     32 C11        5.9199    7.4940    9.4226 C.3       1 RES1    0.0000
     33 H11        5.3834    8.1397    9.8880 H         1 RES1    0.0000
     34 H12        5.4115    7.1163    8.7013 H         1 RES1    0.0000
     35 H13        6.7035    7.9223    9.0708 H         1 RES1    0.0000
     36 C12        4.3060    4.3690   14.6575 C.2       1 RES1    0.0000
     37 C13        7.0986    2.1546   12.1699 C.2       1 RES1    0.0000
     38 C14        9.0243    0.7904   12.5066 C.3       1 RES1    0.0000
     39 H14        9.7053    0.9599   13.1763 H         1 RES1    0.0000
     40 H15        8.3377    0.2367   12.9116 H         1 RES1    0.0000
     41 C15        9.5933    0.1080   11.4318 C.3       1 RES1    0.0000
     42 H16        9.9699   -0.7189   11.7427 H         1 RES1    0.0000
     43 H17       10.2842    0.6470   11.0409 H         1 RES1    0.0000
     44 H18        8.9179   -0.0741   10.7745 H         1 RES1    0.0000
     45 C16        2.8658    4.0786   14.9208 C.3       1 RES1    0.0000
     46 H19        2.6442    4.3425   15.8162 H         1 RES1    0.0000
     47 H20        2.7041    3.1384   14.8160 H         1 RES1    0.0000
     48 H21        2.3217    4.5684   14.2990 H         1 RES1    0.0000
     49 C17        5.2339    6.0115   17.6060 C.ar      1 RES1    0.0000
     50 C18        4.6485    6.5298   18.7863 C.ar      1 RES1    0.0000
     51 C19        5.3269    7.3964   19.6229 C.ar      1 RES1    0.0000
     52 H22        4.9301    7.7142   20.4013 H         1 RES1    0.0000
     53 C20        6.5990    7.7783   19.2788 C.ar      1 RES1    0.0000
     54 C21        7.2277    7.2922   18.1407 C.ar      1 RES1    0.0000
     55 H23        8.0936    7.5595   17.9302 H         1 RES1    0.0000
     56 C22        6.5567    6.4141   17.3292 C.ar      1 RES1    0.0000
     57 H24        6.9856    6.0756   16.5765 H         1 RES1    0.0000
     58 H25        7.0204    4.4062   14.9226 H         1 RES1    0.0000
     59 H26        3.7637    5.0713   17.0544 H         1 RES1    0.0000
@<TRIPOS>BOND
     1    1   12 1
     2    2   37 2
     3    3   37 1
     4    4    8 2
     5    5    8 2
     6    6    9 2
     7    7    9 2
     8    8   50 1
     9    9   53 1
    10   10   11 1
    11   11   36 2
    12   12   13 1
    13   13   14 1
    14   14   15 1
    15   16   14 1
    16   17   14 1
    17   18   17 1
    18   19   17 2
    19   20   19 1
    20   21   20 1
    21   22   20 1
    22   23   12 1
    23   24   23 1
    24   25   23 1
    25   26   12 1
    26   27   26 2
    27   28   27 1
    28   29   13 1
    29   30   29 1
    30   31   29 1
    31   32   19 1
    32   33   32 1
    33   34   32 1
    34   35   32 1
    35   36   26 1
    36   37   13 1
    37   38    3 1
    38   39   38 1
    39   40   38 1
    40   41   38 1
    41   42   41 1
    42   43   41 1
    43   44   41 1
    44   45   36 1
    45   46   45 1
    46   47   45 1
    47   48   45 1
    48   49   10 1
    49   50   49 ar
    50   51   50 ar
    51   52   51 1
    52   53   51 ar
    53   54   53 ar
    54   55   54 1
    55   56   49 ar
    56   57   56 1
    57   58    1 1
    58   59   10 1
    59   20   23 1
    60   27   29 1
    61   54   56 ar
@<TRIPOS>SUBSTRUCTURE
     1 RES1 1

@<TRIPOS>CRYSIN
   7.4600    8.6090   18.3020  77.0200  85.0500  89.8900   2 1

