# MOL2 file generated by ConQuest
# Please check atom types

@<TRIPOS>MOLECULE
WAHQAY
    85    87     1
SMALL
NO_CHARGES
****
Generated from CSD

@<TRIPOS>ATOM
      1 O1         3.9741   18.8205   11.4406 O.3       1 RES1    0.0000
      2 O2        13.8433   10.2662    4.4814 O.3       1 RES1    0.0000
      3 O3        15.7261    9.5510    5.3515 O.2       1 RES1    0.0000
      4 O4        16.6257    9.4535   -0.0764 O.2       1 RES1    0.0000
      5 N1         0.3161   22.4585   14.7906 N.2       1 RES1    0.0000
      6 N2         1.3997   21.9792   15.1443 N.2       1 RES1    0.0000
      7 N3        16.3426    9.0856    1.1234 N.3       1 RES1    0.0000
      8 C1        -1.6834   24.7909   17.6221 C.ar      1 RES1    0.0000
      9 C2        -0.3564   24.4903   17.8009 C.ar      1 RES1    0.0000
     10 C3        -2.3219   24.3466   16.4947 C.ar      1 RES1    0.0000
     11 C4         0.3219   23.7581   16.9187 C.ar      1 RES1    0.0000
     12 C5        -1.6041   23.6305   15.5824 C.ar      1 RES1    0.0000
     13 C6        -0.3055   23.2948   15.7833 C.ar      1 RES1    0.0000
     14 C7         1.9956   21.1565   14.1455 C.ar      1 RES1    0.0000
     15 C8         3.1915   20.5898   14.5132 C.ar      1 RES1    0.0000
     16 C9         1.4669   20.9242   12.8895 C.ar      1 RES1    0.0000
     17 C10        3.9081   19.8026   13.6572 C.ar      1 RES1    0.0000
     18 C11        2.1803   20.1628   12.0053 C.ar      1 RES1    0.0000
     19 C12        3.4114   19.5781   12.4152 C.ar      1 RES1    0.0000
     20 C13        5.2332   18.2285   11.7219 C.3       1 RES1    0.0000
     21 C14        5.6590   17.4655   10.4941 C.3       1 RES1    0.0000
     22 C15        7.0101   16.8068   10.5704 C.3       1 RES1    0.0000
     23 C16        7.3271   16.0517    9.3265 C.3       1 RES1    0.0000
     24 C17        8.6711   15.3633    9.3426 C.3       1 RES1    0.0000
     25 C18        8.9700   14.6009    8.0665 C.3       1 RES1    0.0000
     26 C19       10.3344   13.9357    8.0424 C.3       1 RES1    0.0000
     27 C20       10.6049   13.1160    6.8226 C.3       1 RES1    0.0000
     28 C21       11.9845   12.4793    6.8185 C.3       1 RES1    0.0000
     29 C22       12.2920   11.6470    5.5786 C.3       1 RES1    0.0000
     30 C23       13.6085   10.9739    5.7133 C.3       1 RES1    0.0000
     31 C24       14.9806    9.5952    4.4573 C.2       1 RES1    0.0000
     32 C25       15.2053    8.9349    3.1249 C.3       1 RES1    0.0000
     33 C26       16.3262    7.9520    3.1068 C.3       1 RES1    0.0000
     34 C27       16.7167    7.7712    1.6720 C.3       1 RES1    0.0000
     35 C28       15.5608    9.9435    2.0237 C.3       1 RES1    0.0000
     36 C29       18.1791    7.5085    1.4429 C.3       1 RES1    0.0000
     37 C30       15.9364    6.7505    0.9405 C.3       1 RES1    0.0000
     38 C31       16.4607   11.0903    2.4839 C.3       1 RES1    0.0000
     39 C32       14.3393   10.5133    1.3022 C.3       1 RES1    0.0000
     40 H1        -2.2331   25.4100   18.2008 H         1 RES1    0.0000
     41 H2         0.1114   24.9032   18.7073 H         1 RES1    0.0000
     42 H3        -3.3655   24.5615   16.3279 H         1 RES1    0.0000
     43 H4         1.3464   23.5477   17.1056 H         1 RES1    0.0000
     44 H5        -2.1438   23.2822   14.7082 H         1 RES1    0.0000
     45 H6         3.5567   20.7844   15.4236 H         1 RES1    0.0000
     46 H7         0.5637   21.4188   12.6142 H         1 RES1    0.0000
     47 H8         4.7351   19.3135   13.9465 H         1 RES1    0.0000
     48 H9         1.7771   19.9741   11.1311 H         1 RES1    0.0000
     49 H10        6.0050   18.7844   12.0194 H         1 RES1    0.0000
     50 H11        5.2579   17.4938   12.4494 H         1 RES1    0.0000
     51 H12        5.0210   16.8539   10.1524 H         1 RES1    0.0000
     52 H13        5.7102   18.1681    9.7003 H         1 RES1    0.0000
     53 H14        7.7090   17.5249   10.7935 H         1 RES1    0.0000
     54 H15        7.0237   16.2714   11.3984 H         1 RES1    0.0000
     55 H16        6.6340   15.4426    9.1898 H         1 RES1    0.0000
     56 H17        7.2832   16.7090    8.5709 H         1 RES1    0.0000
     57 H18        9.3924   16.0563    9.5154 H         1 RES1    0.0000
     58 H19        8.7415   14.7840   10.1183 H         1 RES1    0.0000
     59 H20        8.3582   13.9478    7.9278 H         1 RES1    0.0000
     60 H21        8.9755   15.2295    7.3109 H         1 RES1    0.0000
     61 H22       11.0812   14.5959    8.0645 H         1 RES1    0.0000
     62 H23       10.4847   13.3620    8.7920 H         1 RES1    0.0000
     63 H24        9.9346   12.3827    6.7462 H         1 RES1    0.0000
     64 H25       10.4733   13.6321    6.0006 H         1 RES1    0.0000
     65 H26       12.6311   13.2486    6.8406 H         1 RES1    0.0000
     66 H27       12.0938   12.0044    7.5942 H         1 RES1    0.0000
     67 H28       11.4969   11.0396    5.4239 H         1 RES1    0.0000
     68 H29       12.2540   12.2130    4.7487 H         1 RES1    0.0000
     69 H30       13.4630   10.3670    6.5653 H         1 RES1    0.0000
     70 H31       14.2209   11.6266    6.0690 H         1 RES1    0.0000
     71 H32       14.3205    8.4374    2.7551 H         1 RES1    0.0000
     72 H33       17.0424    8.2346    3.7097 H         1 RES1    0.0000
     73 H34       16.0941    7.0283    3.4846 H         1 RES1    0.0000
     74 H35       18.6494    7.6353    2.2608 H         1 RES1    0.0000
     75 H36       18.3094    6.6241    1.1334 H         1 RES1    0.0000
     76 H37       18.5074    8.1198    0.7938 H         1 RES1    0.0000
     77 H38       15.4169    6.2561    1.5635 H         1 RES1    0.0000
     78 H39       15.3619    7.1590    0.3034 H         1 RES1    0.0000
     79 H40       16.5373    6.1646    0.4944 H         1 RES1    0.0000
     80 H41       16.4964   11.1597    3.5108 H         1 RES1    0.0000
     81 H42       17.3982   10.8975    2.2749 H         1 RES1    0.0000
     82 H43       16.2986   11.9902    2.2146 H         1 RES1    0.0000
     83 H44       13.6365   11.0189    1.7946 H         1 RES1    0.0000
     84 H45       14.4985   11.0325    0.5044 H         1 RES1    0.0000
     85 H46       13.7562    9.7371    0.9284 H         1 RES1    0.0000
@<TRIPOS>BOND
     1    1   19 1
     2    2   30 1
     3    3   31 2
     4    4    7 1
     5    5    6 2
     6    6   14 1
     7    7   34 1
     8    8    9 ar
     9    9   11 ar
    10   10    8 ar
    11   11   13 ar
    12   12   10 ar
    13   13    5 1
    14   14   15 ar
    15   15   17 ar
    16   16   14 ar
    17   17   19 ar
    18   18   16 ar
    19   19   18 ar
    20   20    1 1
    21   21   20 1
    22   22   21 1
    23   23   22 1
    24   24   23 1
    25   25   24 1
    26   26   25 1
    27   27   26 1
    28   28   27 1
    29   29   28 1
    30   30   29 1
    31   31    2 1
    32   32   31 1
    33   33   32 1
    34   34   33 1
    35   35    7 1
    36   36   34 1
    37   37   34 1
    38   38   35 1
    39   39   35 1
    40   40    8 1
    41   41    9 1
    42   42   10 1
    43   43   11 1
    44   44   12 1
    45   45   15 1
    46   46   16 1
    47   47   17 1
    48   48   18 1
    49   49   20 1
    50   50   20 1
    51   51   21 1
    52   52   21 1
    53   53   22 1
    54   54   22 1
    55   55   23 1
    56   56   23 1
    57   57   24 1
    58   58   24 1
    59   59   25 1
    60   60   25 1
    61   61   26 1
    62   62   26 1
    63   63   27 1
    64   64   27 1
    65   65   28 1
    66   66   28 1
    67   67   29 1
    68   68   29 1
    69   69   30 1
    70   70   30 1
    71   71   32 1
    72   72   33 1
    73   73   33 1
    74   74   36 1
    75   75   36 1
    76   76   36 1
    77   77   37 1
    78   78   37 1
    79   79   37 1
    80   80   38 1
    81   81   38 1
    82   82   38 1
    83   83   39 1
    84   84   39 1
    85   85   39 1
    86   12   13 ar
    87   32   35 1
@<TRIPOS>SUBSTRUCTURE
     1 RES1 1

@<TRIPOS>CRYSIN
   6.6750   11.8500   20.8110  75.7560  81.8130  75.5570   2 1

