# MOL2 file generated by ConQuest
# Please check atom types

@<TRIPOS>MOLECULE
WAHQEC
    88    90     1
SMALL
NO_CHARGES
****
Generated from CSD

@<TRIPOS>ATOM
      1 O1         1.0419   -1.4173   18.3519 O.3       1 RES1    0.0000
      2 O2        -7.5017    5.8316    8.6824 O.3       1 RES1    0.0000
      3 O3        -9.1771    4.8113    7.6370 O.2       1 RES1    0.0000
      4 O4       -11.8482   10.1562    6.7105 O.2       1 RES1    0.0000
      5 N1         4.2554   -4.8027   22.3726 N.2       1 RES1    0.0000
      6 N2         3.2544   -5.1827   21.9087 N.2       1 RES1    0.0000
      7 N3       -11.0790    9.1914    6.9747 N.3       1 RES1    0.0000
      8 C1         5.7848   -7.7484   24.9765 C.ar      1 RES1    0.0000
      9 C2         6.5293   -6.6683   24.6984 C.ar      1 RES1    0.0000
     10 C3         4.5727   -8.0259   24.3950 C.ar      1 RES1    0.0000
     11 C4         5.9960   -5.7505   23.8389 C.ar      1 RES1    0.0000
     12 C5         4.1075   -7.0654   23.5229 C.ar      1 RES1    0.0000
     13 C6         4.7876   -5.9084   23.2701 C.ar      1 RES1    0.0000
     14 C7         2.7601   -4.0685   21.0328 C.ar      1 RES1    0.0000
     15 C8         3.3457   -2.8731   20.7421 C.ar      1 RES1    0.0000
     16 C9         1.5802   -4.3716   20.4387 C.ar      1 RES1    0.0000
     17 C10        2.7234   -1.9937   19.8472 C.ar      1 RES1    0.0000
     18 C11        0.9190   -3.5177   19.5287 C.ar      1 RES1    0.0000
     19 C12        1.5201   -2.3437   19.2506 C.ar      1 RES1    0.0000
     20 C13       -0.1598   -1.7461   17.7148 C.3       1 RES1    0.0000
     21 C14       -0.3858   -0.4696   16.8414 C.3       1 RES1    0.0000
     22 C15       -1.7096   -0.5336   15.9933 C.3       1 RES1    0.0000
     23 C16       -1.9115    0.7087   15.1502 C.3       1 RES1    0.0000
     24 C17       -3.1582    0.7684   14.3374 C.3       1 RES1    0.0000
     25 C18       -3.3155    1.9979   13.5121 C.3       1 RES1    0.0000
     26 C19       -4.5505    2.0919   12.7322 C.3       1 RES1    0.0000
     27 C20       -4.7138    3.3384   11.9068 C.3       1 RES1    0.0000
     28 C21       -5.8935    3.4025   11.0549 C.3       1 RES1    0.0000
     29 C22       -6.1331    4.6576   10.2219 C.3       1 RES1    0.0000
     30 C23       -7.2133    4.5722    9.2524 C.3       1 RES1    0.0000
     31 C24       -8.5736    5.8060    7.9252 C.2       1 RES1    0.0000
     32 C25       -9.0113    7.2148    7.4841 C.3       1 RES1    0.0000
     33 C26       -9.8729    7.7612    8.6179 C.3       1 RES1    0.0000
     34 C27       -9.8895    7.1635    6.2302 C.3       1 RES1    0.0000
     35 C28      -10.4849    9.1273    8.3107 C.3       1 RES1    0.0000
     36 C29      -10.4680    8.5040    5.8396 C.3       1 RES1    0.0000
     37 C30       -9.4119   10.2202    8.4510 C.3       1 RES1    0.0000
     38 C31      -11.5526    9.4432    9.3320 C.3       1 RES1    0.0000
     39 C32      -11.5450    8.2308    4.7880 C.3       1 RES1    0.0000
     40 C33       -9.4098    9.3323    5.1912 C.3       1 RES1    0.0000
     41 H1         6.1440   -8.5809   25.4669 H         1 RES1    0.0000
     42 H2         7.4542   -6.4720   25.2659 H         1 RES1    0.0000
     43 H3         3.9290   -8.7303   24.5353 H         1 RES1    0.0000
     44 H4         6.5267   -4.8412   23.7377 H         1 RES1    0.0000
     45 H5         3.1960   -7.1123   22.9920 H         1 RES1    0.0000
     46 H6         4.1482   -2.3139   20.9848 H         1 RES1    0.0000
     47 H7         1.1792   -5.2980   20.7168 H         1 RES1    0.0000
     48 H8         2.9650   -1.0630   19.5691 H         1 RES1    0.0000
     49 H9         0.0320   -3.8678   19.1267 H         1 RES1    0.0000
     50 H10       -0.1639   -1.8955   16.6657 H         1 RES1    0.0000
     51 H11       -1.1033   -1.4600   17.8197 H         1 RES1    0.0000
     52 H12       -0.9090    0.3245   17.2269 H         1 RES1    0.0000
     53 H13       -0.0883   -0.2177   16.0274 H         1 RES1    0.0000
     54 H14       -1.8630   -1.1868   15.3461 H         1 RES1    0.0000
     55 H15       -2.6317   -0.4440   16.4685 H         1 RES1    0.0000
     56 H16       -1.9120    1.5966   15.5939 H         1 RES1    0.0000
     57 H17       -1.1858    0.8367   14.4525 H         1 RES1    0.0000
     58 H18       -3.2808   -0.0683   13.6789 H         1 RES1    0.0000
     59 H19       -4.0267    0.5635   14.8810 H         1 RES1    0.0000
     60 H20       -3.2457    2.7578   14.2262 H         1 RES1    0.0000
     61 H21       -2.4674    2.1303   13.0393 H         1 RES1    0.0000
     62 H22       -4.5352    1.2978   12.1419 H         1 RES1    0.0000
     63 H23       -5.3033    1.9681   13.3123 H         1 RES1    0.0000
     64 H24       -4.6282    4.1154   12.5363 H         1 RES1    0.0000
     65 H25       -3.8540    3.4537   11.3683 H         1 RES1    0.0000
     66 H26       -5.9150    2.6170   10.4823 H         1 RES1    0.0000
     67 H27       -6.6875    3.2872   11.6477 H         1 RES1    0.0000
     68 H28       -6.1594    5.4516   10.8236 H         1 RES1    0.0000
     69 H29       -5.1969    4.8540    9.7643 H         1 RES1    0.0000
     70 H30       -7.8720    4.1026    9.8819 H         1 RES1    0.0000
     71 H31       -6.8974    3.7952    8.7152 H         1 RES1    0.0000
     72 H32       -8.2669    7.8295    7.2161 H         1 RES1    0.0000
     73 H33      -10.6688    7.1934    8.7380 H         1 RES1    0.0000
     74 H34       -9.3813    7.6758    9.4572 H         1 RES1    0.0000
     75 H35       -9.3370    6.6043    5.4680 H         1 RES1    0.0000
     76 H36      -10.5916    6.4463    6.3667 H         1 RES1    0.0000
     77 H37       -9.2393   10.6343    9.3965 H         1 RES1    0.0000
     78 H38       -8.5117   10.0537    8.1578 H         1 RES1    0.0000
     79 H39       -9.6682   11.0698    7.9720 H         1 RES1    0.0000
     80 H40      -11.3832    9.4134   10.2889 H         1 RES1    0.0000
     81 H41      -11.9468   10.3782    9.2132 H         1 RES1    0.0000
     82 H42      -12.3037    8.8669    9.1665 H         1 RES1    0.0000
     83 H43      -12.4380    8.1967    5.2708 H         1 RES1    0.0000
     84 H44      -11.6983    8.9950    4.1661 H         1 RES1    0.0000
     85 H45      -11.5867    7.4496    4.2116 H         1 RES1    0.0000
     86 H46       -8.9070    9.9000    5.8219 H         1 RES1    0.0000
     87 H47       -8.5823    8.9096    4.6717 H         1 RES1    0.0000
     88 H48       -9.6965    9.9769    4.4897 H         1 RES1    0.0000
@<TRIPOS>BOND
     1    1   19 1
     2    2   30 1
     3    3   31 2
     4    4    7 1
     5    5    6 2
     6    6   14 1
     7    7   35 1
     8    8    9 ar
     9    9   11 ar
    10   10    8 ar
    11   11   13 ar
    12   12   10 ar
    13   13    5 1
    14   14   15 ar
    15   15   17 ar
    16   16   14 ar
    17   17   19 ar
    18   18   16 ar
    19   19   18 ar
    20   20    1 1
    21   21   20 1
    22   22   21 1
    23   23   22 1
    24   24   23 1
    25   25   24 1
    26   26   25 1
    27   27   26 1
    28   28   27 1
    29   29   28 1
    30   30   29 1
    31   31    2 1
    32   32   31 1
    33   33   32 1
    34   34   32 1
    35   35   33 1
    36   36    7 1
    37   37   35 1
    38   38   35 1
    39   39   36 1
    40   40   36 1
    41   41    8 1
    42   42    9 1
    43   43   10 1
    44   44   11 1
    45   45   12 1
    46   46   15 1
    47   47   16 1
    48   48   17 1
    49   49   18 1
    50   50   20 1
    51   51   20 1
    52   52   21 1
    53   53   21 1
    54   54   22 1
    55   55   22 1
    56   56   23 1
    57   57   23 1
    58   58   24 1
    59   59   24 1
    60   60   25 1
    61   61   25 1
    62   62   26 1
    63   63   26 1
    64   64   27 1
    65   65   27 1
    66   66   28 1
    67   67   28 1
    68   68   29 1
    69   69   29 1
    70   70   30 1
    71   71   30 1
    72   72   32 1
    73   73   33 1
    74   74   33 1
    75   75   34 1
    76   76   34 1
    77   77   37 1
    78   78   37 1
    79   79   37 1
    80   80   38 1
    81   81   38 1
    82   82   38 1
    83   83   39 1
    84   84   39 1
    85   85   39 1
    86   86   40 1
    87   87   40 1
    88   88   40 1
    89   12   13 ar
    90   34   36 1
@<TRIPOS>SUBSTRUCTURE
     1 RES1 1

@<TRIPOS>CRYSIN
   5.9730   42.6910   12.8560  90.0000 100.5200  90.0000 231 1

