# MOL2 file generated by ConQuest
# Please check atom types

@<TRIPOS>MOLECULE
WAHYAI
    96   100     2
SMALL
NO_CHARGES
****
Generated from CSD

@<TRIPOS>ATOM
      1 O1         6.0307   -2.3424    5.2007 O.2       1 RES1    0.0000
      2 O2         4.3823   -1.4852    6.3118 O.2       1 RES1    0.0000
      3 O3        10.1401    2.8129    7.2708 O.2       1 RES1    0.0000
      4 O4         8.3083    3.8156    8.1270 O.3       1 RES1    0.0000
      5 N1         5.5390   -1.4735    5.9081 N.pl3     1 RES1    0.0000
      6 N2        10.0345    7.9583    7.1324 N.2       1 RES1    0.0000
      7 N3        10.3383    6.7485    7.1670 N.2       1 RES1    0.0000
      8 C1         6.4084   -0.3440    6.3039 C.ar      1 RES1    0.0000
      9 C2         7.7305   -0.3608    5.9170 C.ar      1 RES1    0.0000
     10 H1         8.0677   -1.0586    5.4045 H         1 RES1    0.0000
     11 C3         8.5462    0.6864    6.3100 C.ar      1 RES1    0.0000
     12 H2         9.4423    0.6980    6.0613 H         1 RES1    0.0000
     13 C4         8.0204    1.7270    7.0805 C.ar      1 RES1    0.0000
     14 C5         6.6755    1.7268    7.4311 C.ar      1 RES1    0.0000
     15 H3         6.3275    2.4320    7.9286 H         1 RES1    0.0000
     16 C6         5.8523    0.6842    7.0456 C.ar      1 RES1    0.0000
     17 H4         4.9523    0.6746    7.2770 H         1 RES1    0.0000
     18 C7         8.9521    2.8209    7.4882 C.2       1 RES1    0.0000
     19 C8         9.1065    5.0091    8.4215 C.3       1 RES1    0.0000
     20 H5        10.0077    4.7887    8.7391 H         1 RES1    0.0000
     21 C9         8.3265    5.8293    9.4223 C.3       1 RES1    0.0000
     22 H6         8.9008    6.4780    9.8588 H         1 RES1    0.0000
     23 H7         7.9277    5.2593   10.0981 H         1 RES1    0.0000
     24 C10        7.2489    6.5271    8.5980 C.3       1 RES1    0.0000
     25 H8         6.9709    7.3539    9.0238 H         1 RES1    0.0000
     26 H9         6.4733    5.9536    8.4893 H         1 RES1    0.0000
     27 C11        7.9159    6.8111    7.2329 C.3       1 RES1    0.0000
     28 H10        7.2916    6.6319    6.4980 H         1 RES1    0.0000
     29 C12        8.5634    8.1876    7.0674 C.3       1 RES1    0.0000
     30 H11        8.2924    8.7652    7.8116 H         1 RES1    0.0000
     31 C13        9.1256    5.8700    7.1579 C.3       1 RES1    0.0000
     32 H12        9.0944    5.3156    6.3495 H         1 RES1    0.0000
     33 C14        8.2332    8.8788    5.7446 C.3       1 RES1    0.0000
     34 H13        8.8485    9.6171    5.6106 H         1 RES1    0.0000
     35 H14        8.3607    8.2494    5.0185 H         1 RES1    0.0000
     36 C15        6.8071    9.4065    5.7004 C.3       1 RES1    0.0000
     37 H15        6.7136   10.1150    6.3565 H         1 RES1    0.0000
     38 H16        6.1996    8.6915    5.9478 H         1 RES1    0.0000
     39 C16        6.4082    9.9440    4.3336 C.3       1 RES1    0.0000
     40 H17        7.0614   10.6022    4.0490 H         1 RES1    0.0000
     41 H18        6.4210    9.2170    3.6909 H         1 RES1    0.0000
     42 C17        5.0295   10.5813    4.3315 C.3       1 RES1    0.0000
     43 H19        4.3689    9.9031    4.5434 H         1 RES1    0.0000
     44 H20        4.9945   11.2575    5.0272 H         1 RES1    0.0000
     45 C18        4.6679   11.2209    3.0060 C.3       1 RES1    0.0000
     46 H21        5.2869   11.9296    2.8140 H         1 RES1    0.0000
     47 H22        3.7780   11.5777    3.0551 H         1 RES1    0.0000
     48 H23        4.7106   10.5603    2.3092 H         1 RES1    0.0000
     49 O5        10.0707   -1.5905    0.3350 O.2       2 RES2    0.0000
     50 O6         8.3522   -2.6951   -0.3771 O.2       2 RES2    0.0000
     51 O7         4.2444    1.0796    3.7150 O.2       2 RES2    0.0000
     52 O8         5.9501    2.5458    3.8932 O.3       2 RES2    0.0000
     53 N4         8.8658   -1.8202    0.3158 N.pl3     2 RES2    0.0000
     54 N5         2.9704    6.0436    3.8342 N.2       2 RES2    0.0000
     55 N6         3.0242    4.8018    3.9367 N.2       2 RES2    0.0000
     56 C19        7.9824   -1.0012    1.1707 C.ar      2 RES2    0.0000
     57 C20        8.5366    0.0839    1.8275 C.ar      2 RES2    0.0000
     58 H24        9.4435    0.2772    1.7538 H         2 RES2    0.0000
     59 C21        7.6956    0.8761    2.6011 C.ar      2 RES2    0.0000
     60 H25        8.0332    1.6236    3.0376 H         2 RES2    0.0000
     61 C22        6.3521    0.5499    2.7204 C.ar      2 RES2    0.0000
     62 C23        5.8384   -0.5737    2.0774 C.ar      2 RES2    0.0000
     63 H26        4.9436   -0.8014    2.1870 H         2 RES2    0.0000
     64 C24        6.6556   -1.3529    1.2750 C.ar      2 RES2    0.0000
     65 H27        6.3179   -2.0916    0.8210 H         2 RES2    0.0000
     66 C25        5.3926    1.3939    3.4972 C.2       2 RES2    0.0000
     67 C26        5.0382    3.5126    4.5065 C.3       2 RES2    0.0000
     68 H28        4.4284    3.0963    5.1512 H         2 RES2    0.0000
     69 C27        5.8945    4.5934    5.1343 C.3       2 RES2    0.0000
     70 H29        6.6500    4.2072    5.6054 H         2 RES2    0.0000
     71 H30        5.3772    5.1301    5.7556 H         2 RES2    0.0000
     72 C28        6.3625    5.4333    3.9421 C.3       2 RES2    0.0000
     73 H31        7.1334    5.0279    3.5163 H         2 RES2    0.0000
     74 H32        6.5962    6.3319    4.2237 H         2 RES2    0.0000
     75 C29        5.1528    5.4554    2.9835 C.3       2 RES2    0.0000
     76 H33        5.4439    5.3870    2.0507 H         2 RES2    0.0000
     77 C30        4.1744    6.6259    3.1704 C.3       2 RES2    0.0000
     78 H34        4.5791    7.2919    3.7660 H         2 RES2    0.0000
     79 C31        4.2938    4.2423    3.3847 C.3       2 RES2    0.0000
     80 H35        4.1243    3.6518    2.6202 H         2 RES2    0.0000
     81 C32        3.7606    7.3065    1.8654 C.3       2 RES2    0.0000
     82 H36        4.5186    7.8095    1.5284 H         2 RES2    0.0000
     83 H37        3.5553    6.6188    1.2140 H         2 RES2    0.0000
     84 C33        2.5645    8.2483    1.9648 C.3       2 RES2    0.0000
     85 H38        1.7796    7.7391    2.2219 H         2 RES2    0.0000
     86 H39        2.7332    8.9046    2.6586 H         2 RES2    0.0000
     87 C34        2.2860    8.9688    0.6522 C.3       2 RES2    0.0000
     88 H40        2.1889    8.3086   -0.0524 H         2 RES2    0.0000
     89 H41        3.0510    9.5224    0.4315 H         2 RES2    0.0000
     90 C35        1.0393    9.8437    0.6790 C.3       2 RES2    0.0000
     91 H42        0.2734    9.2956    0.9101 H         2 RES2    0.0000
     92 H43        1.1407   10.5165    1.3695 H         2 RES2    0.0000
     93 C36        0.7719   10.5349   -0.6500 C.3       2 RES2    0.0000
     94 H44        1.5185   11.0942   -0.8769 H         2 RES2    0.0000
     95 H45       -0.0198   11.0722   -0.5764 H         2 RES2    0.0000
     96 H46        0.6481    9.8736   -1.3345 H         2 RES2    0.0000
@<TRIPOS>BOND
     1    1    5 2
     2    2    5 2
     3    3   18 2
     4    4   18 1
     5    5    8 1
     6    6    7 2
     7    7   31 1
     8    8    9 ar
     9    9   10 1
    10   11    9 ar
    11   12   11 1
    12   13   11 ar
    13   14   13 ar
    14   15   14 1
    15   16    8 ar
    16   17   16 1
    17   18   13 1
    18   19    4 1
    19   20   19 1
    20   21   19 1
    21   22   21 1
    22   23   21 1
    23   24   21 1
    24   25   24 1
    25   26   24 1
    26   27   24 1
    27   28   27 1
    28   29    6 1
    29   30   29 1
    30   31   19 1
    31   32   31 1
    32   33   29 1
    33   34   33 1
    34   35   33 1
    35   36   33 1
    36   37   36 1
    37   38   36 1
    38   39   36 1
    39   40   39 1
    40   41   39 1
    41   42   39 1
    42   43   42 1
    43   44   42 1
    44   45   42 1
    45   46   45 1
    46   47   45 1
    47   48   45 1
    48   49   53 2
    49   50   53 2
    50   51   66 2
    51   52   66 1
    52   53   56 1
    53   54   55 2
    54   55   79 1
    55   56   57 ar
    56   57   58 1
    57   59   57 ar
    58   60   59 1
    59   61   59 ar
    60   62   61 ar
    61   63   62 1
    62   64   56 ar
    63   65   64 1
    64   66   61 1
    65   67   52 1
    66   68   67 1
    67   69   67 1
    68   70   69 1
    69   71   69 1
    70   72   69 1
    71   73   72 1
    72   74   72 1
    73   75   72 1
    74   76   75 1
    75   77   54 1
    76   78   77 1
    77   79   67 1
    78   80   79 1
    79   81   77 1
    80   82   81 1
    81   83   81 1
    82   84   81 1
    83   85   84 1
    84   86   84 1
    85   87   84 1
    86   88   87 1
    87   89   87 1
    88   90   87 1
    89   91   90 1
    90   92   90 1
    91   93   90 1
    92   94   93 1
    93   95   93 1
    94   96   93 1
    95   14   16 ar
    96   27   29 1
    97   27   31 1
    98   62   64 ar
    99   75   77 1
   100   75   79 1
@<TRIPOS>SUBSTRUCTURE
     1 RES1 1
     2 RES2 49

@<TRIPOS>CRYSIN
   6.7889   15.1416   17.9178  80.9060  79.6860  81.2950   2 1

