# MOL2 file generated by ConQuest
# Please check atom types

@<TRIPOS>MOLECULE
WAHYIP
    32    35     1
SMALL
NO_CHARGES
****
Generated from CSD

@<TRIPOS>ATOM
      1 C1         5.7160    2.1793   -0.1880 C.2       1 RES1    0.0000
      2 C2         5.7218    3.1127   -1.3322 C.2       1 RES1    0.0000
      3 C3         4.3638    3.4727   -1.8277 C.ar      1 RES1    0.0000
      4 C4         4.2726    4.3453   -2.8969 C.ar      1 RES1    0.0000
      5 H1         5.0533    4.7109   -3.2707 H         1 RES1    0.0000
      6 C5         3.0314    4.6846   -3.4196 C.ar      1 RES1    0.0000
      7 H2         2.9753    5.2828   -4.1433 H         1 RES1    0.0000
      8 C6         1.8736    4.1434   -2.8784 C.ar      1 RES1    0.0000
      9 H3         1.0343    4.3619   -3.2414 H         1 RES1    0.0000
     10 C7         1.9632    3.2803   -1.8027 C.ar      1 RES1    0.0000
     11 H4         1.1767    2.9243   -1.4300 H         1 RES1    0.0000
     12 C8         3.1855    2.9321   -1.2637 C.ar      1 RES1    0.0000
     13 C9         3.2156    2.0114   -0.0978 C.2       1 RES1    0.0000
     14 C10        4.5584    1.6956    0.3857 C.2       1 RES1    0.0000
     15 C11        8.1491    0.2576    2.2482 C.2       1 RES1    0.0000
     16 H5         8.5402    0.8381    1.6212 H         1 RES1    0.0000
     17 C12        8.9782   -0.5018    3.1392 C.2       1 RES1    0.0000
     18 C13       10.3399   -0.5110    3.3066 C.2       1 RES1    0.0000
     19 H6        10.9709    0.0117    2.8458 H         1 RES1    0.0000
     20 C14       10.5979   -1.4647    4.3095 C.2       1 RES1    0.0000
     21 H7        11.4375   -1.7156    4.6485 H         1 RES1    0.0000
     22 C15        9.3914   -1.9457    4.6844 C.2       1 RES1    0.0000
     23 N1         6.7813    1.6711    0.4477 N.2       1 RES1    0.0000
     24 N2         6.2062    0.9132    1.3822 N.pl3     1 RES1    0.0000
     25 N3         6.8728    0.1413    2.3091 N.2       1 RES1    0.0000
     26 N4         4.8752    0.8826    1.4050 N.2       1 RES1    0.0000
     27 N5         9.0597   -2.9644    5.6200 N.pl3     1 RES1    0.0000
     28 O1         6.7543    3.5466   -1.8244 O.2       1 RES1    0.0000
     29 O2         2.2048    1.5315    0.3977 O.2       1 RES1    0.0000
     30 O3         8.3835   -1.3930    3.9976 O.3       1 RES1    0.0000
     31 O4         7.8594   -3.2206    5.7656 O.2       1 RES1    0.0000
     32 O5         9.9726   -3.4909    6.2176 O.2       1 RES1    0.0000
@<TRIPOS>BOND
     1    1    2 1
     2    2    3 1
     3    3    4 ar
     4    4    5 1
     5    6    4 ar
     6    7    6 1
     7    8    6 ar
     8    9    8 1
     9   10    8 ar
    10   11   10 1
    11   12    3 ar
    12   13   12 1
    13   14    1 1
    14   15   16 1
    15   17   15 1
    16   18   17 2
    17   19   18 1
    18   20   18 1
    19   21   20 1
    20   22   20 2
    21   23    1 2
    22   24   23 1
    23   25   15 2
    24   26   14 2
    25   27   22 1
    26   28    2 2
    27   29   13 2
    28   30   17 1
    29   31   27 2
    30   32   27 2
    31   10   12 ar
    32   13   14 1
    33   22   30 1
    34   24   25 1
    35   24   26 1
@<TRIPOS>SUBSTRUCTURE
     1 RES1 1

@<TRIPOS>CRYSIN
   8.0731    8.4860   11.0043  97.0050  93.0840 109.5550   2 1

