# MOL2 file generated by ConQuest
# Please check atom types

@<TRIPOS>MOLECULE
WAHZUA
    81    86     4
SMALL
NO_CHARGES
****
Generated from CSD

@<TRIPOS>ATOM
      1 C1         1.8974    2.4829    7.0891 C.ar      1 RES1    0.0000
      2 C2         0.6856    2.8762    7.6058 C.ar      1 RES1    0.0000
      3 C3        -0.4615    2.5998    6.9390 C.ar      1 RES1    0.0000
      4 N1        -0.4262    1.9088    5.7366 N.pl3     1 RES1    0.0000
      5 O1        -1.6071    1.7352    5.0661 O.2       1 RES1    0.0000
      6 C4         0.7946    1.4293    5.2237 C.ar      1 RES1    0.0000
      7 C5         0.9003    0.6768    3.9624 C.ar      1 RES1    0.0000
      8 C6        -0.0465   -0.2067    3.5123 C.ar      1 RES1    0.0000
      9 O2        -1.1193   -0.5115    4.2455 O.3       1 RES1    0.0000
     10 C7         0.0768   -0.8422    2.3402 C.ar      1 RES1    0.0000
     11 C8         1.1898   -0.6733    1.5633 C.ar      1 RES1    0.0000
     12 C9         2.2133    0.1181    2.0230 C.ar      1 RES1    0.0000
     13 C10        2.0840    0.7855    3.2254 C.ar      1 RES1    0.0000
     14 C11        3.2214    1.5793    3.8048 C.3       1 RES1    0.0000
     15 C12        3.2661    1.3442    5.3035 C.3       1 RES1    0.0000
     16 C13        1.9625    1.7635    5.9133 C.ar      1 RES1    0.0000
     17 C14        1.2941    2.6270   13.4070 C.ar      2 RES2    0.0000
     18 C15        2.3765    3.1940   14.0547 C.ar      2 RES2    0.0000
     19 C16        3.6261    3.0227   13.5912 C.ar      2 RES2    0.0000
     20 N2         3.8505    2.2632   12.4686 N.pl3     2 RES2    0.0000
     21 O3         5.1437    2.0116   12.1457 O.2       2 RES2    0.0000
     22 C17        2.7980    1.7305   11.7335 C.ar      2 RES2    0.0000
     23 C18        3.0098    0.9402   10.5121 C.ar      2 RES2    0.0000
     24 C19        4.0672    1.1021    9.6307 C.ar      2 RES2    0.0000
     25 O4         4.9169    2.1415    9.7294 O.3       2 RES2    0.0000
     26 C20        4.2449    0.2646    8.5612 C.ar      2 RES2    0.0000
     27 C21        3.3316   -0.7111    8.3067 C.ar      2 RES2    0.0000
     28 C22        2.2118   -0.8505    9.0969 C.ar      2 RES2    0.0000
     29 C23        2.0392   -0.0366   10.2062 C.ar      2 RES2    0.0000
     30 C24        0.8224   -0.1358   11.0743 C.3       2 RES2    0.0000
     31 C25        0.3881    1.2344   11.5378 C.3       2 RES2    0.0000
     32 C26        1.5050    1.9029   12.2577 C.ar      2 RES2    0.0000
     33 C27        2.8206   -0.4878   15.1222 C.ar      3 RES3    0.0000
     34 C28        3.9346   -0.5351   14.3358 C.ar      3 RES3    0.0000
     35 C29        5.0288    0.1795   14.6967 C.ar      3 RES3    0.0000
     36 N3         5.0426    0.9142   15.8479 N.pl3     3 RES3    0.0000
     37 O5         6.1134    1.6974   16.0587 O.2       3 RES3    0.0000
     38 C30        3.9715    0.9013   16.7179 C.ar      3 RES3    0.0000
     39 C31        3.9829    1.6182   18.0057 C.ar      3 RES3    0.0000
     40 C32        5.1105    1.8344   18.8036 C.ar      3 RES3    0.0000
     41 O6         6.3381    1.3997   18.4692 O.3       3 RES3    0.0000
     42 C33        5.0002    2.4793   20.0193 C.ar      3 RES3    0.0000
     43 C34        3.7864    2.8750   20.4789 C.ar      3 RES3    0.0000
     44 C35        2.6379    2.6589   19.7229 C.ar      3 RES3    0.0000
     45 C36        2.7256    2.0222   18.5148 C.ar      3 RES3    0.0000
     46 C37        1.4918    1.7057   17.7284 C.3       3 RES3    0.0000
     47 C38        1.6023    0.3059   17.1699 C.3       3 RES3    0.0000
     48 C39        2.8205    0.2067   16.3019 C.ar      3 RES3    0.0000
     49 H1         0.6279    3.3664    8.3580 H         1 RES1    0.0000
     50 H2        -1.3846    2.8939    7.2942 H         1 RES1    0.0000
     51 H3         2.6872    2.6459    7.4652 H         1 RES1    0.0000
     52 H4        -1.4639    0.4843    4.4829 H         1 RES1    0.0000
     53 H5        -0.5874   -1.4411    2.1655 H         1 RES1    0.0000
     54 H6         1.2489   -1.1221    0.6838 H         1 RES1    0.0000
     55 H7         3.0344    0.2362    1.5766 H         1 RES1    0.0000
     56 H8         4.0516    1.2875    3.4002 H         1 RES1    0.0000
     57 H9         3.0141    2.5632    3.6661 H         1 RES1    0.0000
     58 H10        3.4840    0.3307    5.5087 H         1 RES1    0.0000
     59 H11        3.9796    1.8309    5.7176 H         1 RES1    0.0000
     60 H12        2.2489    3.7326   14.8354 H         2 RES2    0.0000
     61 H13        4.4520    3.4019   13.9996 H         2 RES2    0.0000
     62 H14        0.4000    2.7049   13.7717 H         2 RES2    0.0000
     63 H15        5.1028    2.1970   10.8654 Du        4 SUP4    0.0000
     64 H16        5.1250    0.4134    7.9971 H         2 RES2    0.0000
     65 H17        3.3860   -1.2757    7.5602 H         2 RES2    0.0000
     66 H18        1.4317   -1.4765    8.8709 H         2 RES2    0.0000
     67 H19        1.1006   -0.7205   11.9481 H         2 RES2    0.0000
     68 H20        0.1025   -0.5434   10.5804 H         2 RES2    0.0000
     69 H21       -0.4468    1.2048   12.1381 H         2 RES2    0.0000
     70 H22        0.1291    1.6655   10.7134 H         2 RES2    0.0000
     71 H23        3.9639   -0.9213   13.4677 H         3 RES3    0.0000
     72 H24        5.8809    0.3307   14.1516 H         3 RES3    0.0000
     73 H25        2.0559   -0.9213   14.8544 H         3 RES3    0.0000
     74 H26        6.3523    1.4765   17.6277 H         3 RES3    0.0000
     75 H27        5.8528    2.5750   20.4960 H         3 RES3    0.0000
     76 H28        3.6715    3.3310   21.2559 H         3 RES3    0.0000
     77 H29        1.7006    2.8703   20.0591 H         3 RES3    0.0000
     78 H30        0.6438    1.8072   18.3496 H         3 RES3    0.0000
     79 H31        1.3867    2.3033   17.0199 H         3 RES3    0.0000
     80 H32        0.8938    0.0827   16.6590 H         3 RES3    0.0000
     81 H33        1.6976   -0.3898   17.9317 H         3 RES3    0.0000
@<TRIPOS>BOND
     1    1    2 ar
     2    2    3 ar
     3    3    4 ar
     4    4    5 1
     5    6    4 ar
     6    7    6 1
     7    8    7 ar
     8    9    8 1
     9   10    8 ar
    10   11   10 ar
    11   12   11 ar
    12   13    7 ar
    13   14   13 1
    14   15   14 1
    15   16    1 ar
    16   17   18 ar
    17   18   19 ar
    18   19   20 ar
    19   20   21 1
    20   22   20 ar
    21   23   22 1
    22   24   23 ar
    23   25   24 1
    24   26   24 ar
    25   27   26 ar
    26   28   27 ar
    27   29   23 ar
    28   30   29 1
    29   31   30 1
    30   32   17 ar
    31   33   34 ar
    32   34   35 ar
    33   35   36 ar
    34   36   37 1
    35   38   36 ar
    36   39   38 1
    37   40   39 ar
    38   41   40 1
    39   42   40 ar
    40   43   42 ar
    41   44   43 ar
    42   45   39 ar
    43   46   45 1
    44   47   46 1
    45   48   33 ar
    46   49    2 1
    47   50    3 1
    48   51    1 1
    49   52    9 1
    50   53   10 1
    51   54   11 1
    52   55   12 1
    53   56   14 1
    54   57   14 1
    55   58   15 1
    56   59   15 1
    57   60   18 1
    58   61   19 1
    59   62   17 1
    60   64   26 1
    61   65   27 1
    62   66   28 1
    63   67   30 1
    64   68   30 1
    65   69   31 1
    66   70   31 1
    67   71   34 1
    68   72   35 1
    69   73   33 1
    70   74   41 1
    71   75   42 1
    72   76   43 1
    73   77   44 1
    74   78   46 1
    75   79   46 1
    76   80   47 1
    77   81   47 1
    78    6   16 ar
    79   12   13 ar
    80   15   16 1
    81   22   32 ar
    82   28   29 ar
    83   31   32 1
    84   38   48 ar
    85   44   45 ar
    86   47   48 1
@<TRIPOS>SUBSTRUCTURE
     1 RES1 1
     2 RES2 17
     3 RES3 33
     4 SUP4 63

@<TRIPOS>CRYSIN
  13.6340   11.8120   19.1050  90.0000  96.1400  90.0000  14 2

