# MOL2 file generated by ConQuest
# Please check atom types

@<TRIPOS>MOLECULE
WAJGAS
    92    98     2
SMALL
NO_CHARGES
****
Generated from CSD

@<TRIPOS>ATOM
      1 O1         2.9660    3.7342    7.0444 O.3       1 RES1    0.0000
      2 O2         5.1117    6.9547    7.9367 O.2       1 RES1    0.0000
      3 N1         0.7606    5.4005    6.4113 N.pl3     1 RES1    0.0000
      4 N2         1.4358    5.5070    7.6520 N.3       1 RES1    0.0000
      5 O3         2.7395    4.4865   13.9182 O.2       1 RES1    0.0000
      6 N3         3.5551    5.1206   13.2752 N.pl3     1 RES1    0.0000
      7 N4         4.4880    7.1927    8.9643 N.pl3     1 RES1    0.0000
      8 N5         0.0190    5.8505    4.4042 N.2       1 RES1    0.0000
      9 N6        -0.2361    3.2776    8.1440 N.ar      1 RES1    0.0000
     10 N7        -0.5706    4.6724    4.8172 N.2       1 RES1    0.0000
     11 C1        -0.0990    4.4092    6.0210 C.2       1 RES1    0.0000
     12 N8         1.8857    7.9326    4.0479 N.ar      1 RES1    0.0000
     13 C2         0.8089    6.2890    5.3694 C.2       1 RES1    0.0000
     14 C3         3.4995    5.0544   11.8041 C.ar      1 RES1    0.0000
     15 C4         3.2578    5.0094    9.0368 C.ar      1 RES1    0.0000
     16 C5         2.8387    5.0259    7.5692 C.3       1 RES1    0.0000
     17 H1         3.4002    5.6716    7.0508 H         1 RES1    0.0000
     18 C6         2.8005    3.9418    9.8276 C.ar      1 RES1    0.0000
     19 H2         2.3985    3.1917    9.4056 H         1 RES1    0.0000
     20 O4         4.3276    8.3177    9.4289 O.2       1 RES1    0.0000
     21 C7        -0.8582    2.0452    6.1794 C.ar      1 RES1    0.0000
     22 H3        -0.9958    2.0254    5.2393 H         1 RES1    0.0000
     23 O5         4.4122    5.8392   13.7736 O.2       1 RES1    0.0000
     24 C8        -0.4143    3.2018    6.8105 C.ar      1 RES1    0.0000
     25 C9         3.8952    6.0510    9.6994 C.ar      1 RES1    0.0000
     26 C10        4.0167    6.1089   11.0827 C.ar      1 RES1    0.0000
     27 H4         4.4380    6.8436   11.5121 H         1 RES1    0.0000
     28 C11        2.9193    3.9563   11.2109 C.ar      1 RES1    0.0000
     29 H5         2.6089    3.2262   11.7346 H         1 RES1    0.0000
     30 C12        2.9320    9.2628    6.2719 C.ar      1 RES1    0.0000
     31 H6         3.2790    9.7241    7.0266 H         1 RES1    0.0000
     32 C13        2.1121    8.1568    6.4337 C.ar      1 RES1    0.0000
     33 H7         1.8785    7.8492    7.3027 H         1 RES1    0.0000
     34 C14       -0.4746    2.1761    8.8700 C.ar      1 RES1    0.0000
     35 H8        -0.3407    2.2173    9.8093 H         1 RES1    0.0000
     36 C15        1.6359    7.5055    5.2975 C.ar      1 RES1    0.0000
     37 C16       -0.9073    0.9853    8.3210 C.ar      1 RES1    0.0000
     38 H9        -1.0727    0.2272    8.8691 H         1 RES1    0.0000
     39 C17        2.6720    9.0095    3.9205 C.ar      1 RES1    0.0000
     40 H10        2.8534    9.3313    3.0449 H         1 RES1    0.0000
     41 C18        3.2316    9.6775    4.9887 C.ar      1 RES1    0.0000
     42 H11        3.8163   10.4126    4.8443 H         1 RES1    0.0000
     43 C19       -1.0934    0.9260    6.9514 C.ar      1 RES1    0.0000
     44 H12       -1.3816    0.1179    6.5436 H         1 RES1    0.0000
     45 H13        3.0411    3.7786    6.2106 H         1 RES1    0.0000
     46 H14        1.0024    5.0292    8.1721 H         1 RES1    0.0000
     47 O6        -0.3467    5.9000    1.6413 O.3       2 RES2    0.0000
     48 N9         1.6909    4.7787    0.9630 N.3       2 RES2    0.0000
     49 O7         1.8569    7.7125   -5.0518 O.2       2 RES2    0.0000
     50 N10       -0.0328    2.6175    0.4287 N.ar      2 RES2    0.0000
     51 N11        1.7511    4.0596    2.1917 N.pl3     2 RES2    0.0000
     52 N12        2.3740    3.4256    4.1968 N.2       2 RES2    0.0000
     53 N13        1.3972    2.5569    3.7605 N.2       2 RES2    0.0000
     54 N14        1.0164    6.9445   -4.6022 N.pl3     2 RES2    0.0000
     55 N15        2.7009    8.1404   -0.1875 N.pl3     2 RES2    0.0000
     56 C20        1.0267    2.9508    2.5552 C.2       2 RES2    0.0000
     57 O8         3.8733    8.1309   -0.5433 O.2       2 RES2    0.0000
     58 O9         0.2851    6.2471   -5.2813 O.2       2 RES2    0.0000
     59 C21        0.0499    2.2485    1.7272 C.ar      2 RES2    0.0000
     60 C22        1.8138    7.5409   -2.3616 C.ar      2 RES2    0.0000
     61 H15        2.4624    8.1139   -2.7534 H         2 RES2    0.0000
     62 N16        4.0911    5.5863    4.5555 N.ar      2 RES2    0.0000
     63 C23        0.8202    6.4981   -0.3716 C.ar      2 RES2    0.0000
     64 C24       -0.1083    5.8752   -1.1985 C.ar      2 RES2    0.0000
     65 H16       -0.7708    5.3156   -0.8108 H         2 RES2    0.0000
     66 C25        0.9302    6.0472    1.0886 C.3       2 RES2    0.0000
     67 H17        1.4573    6.7136    1.6148 H         2 RES2    0.0000
     68 O10        2.2629    8.7618    0.7705 O.2       2 RES2    0.0000
     69 C26       -0.0939    6.0521   -2.5810 C.ar      2 RES2    0.0000
     70 H18       -0.7480    5.6365   -3.1312 H         2 RES2    0.0000
     71 C27        4.1715    5.9660    2.1773 C.ar      2 RES2    0.0000
     72 H19        3.8427    5.7562    1.3111 H         2 RES2    0.0000
     73 C28        0.8949    6.8473   -3.1346 C.ar      2 RES2    0.0000
     74 C29        5.1855    6.8984    2.3443 C.ar      2 RES2    0.0000
     75 H20        5.5604    7.3457    1.5941 H         2 RES2    0.0000
     76 C30        1.7426    7.3573   -0.9866 C.ar      2 RES2    0.0000
     77 C31        3.6468    5.3435    3.3058 C.ar      2 RES2    0.0000
     78 C32        2.5968    4.3122    3.2335 C.2       2 RES2    0.0000
     79 C33       -0.7249    1.2161    2.2622 C.ar      2 RES2    0.0000
     80 H21       -0.6422    0.9733    3.1778 H         2 RES2    0.0000
     81 C34       -0.9099    1.9588   -0.3554 C.ar      2 RES2    0.0000
     82 H22       -0.9796    2.2148   -1.2680 H         2 RES2    0.0000
     83 C35       -1.6140    0.5544    1.4367 C.ar      2 RES2    0.0000
     84 H23       -2.1537   -0.1495    1.7769 H         2 RES2    0.0000
     85 C36       -1.7079    0.9316    0.0999 C.ar      2 RES2    0.0000
     86 H24       -2.3105    0.4903   -0.4865 H         2 RES2    0.0000
     87 C37        5.6409    7.1637    3.6246 C.ar      2 RES2    0.0000
     88 H25        6.3262    7.8050    3.7712 H         2 RES2    0.0000
     89 C38        5.0787    6.4773    4.6845 C.ar      2 RES2    0.0000
     90 H26        5.4142    6.6499    5.5568 H         2 RES2    0.0000
     91 H27       -0.3042    6.0208    2.5998 H         2 RES2    0.0000
     92 H28        1.2421    4.1518    0.4899 H         2 RES2    0.0000
@<TRIPOS>BOND
     1    1   16 1
     2    2    7 2
     3    3    4 1
     4    4   16 1
     5    5    6 2
     6    6   14 1
     7    7   20 2
     8    8   10 1
     9    9   24 ar
    10   10   11 2
    11   11    3 1
    12   12   36 ar
    13   13    3 1
    14   14   26 ar
    15   15   16 1
    16   16   17 1
    17   18   15 ar
    18   19   18 1
    19   21   22 1
    20   23    6 2
    21   24   11 1
    22   25    7 1
    23   26   25 ar
    24   27   26 1
    25   28   14 ar
    26   29   28 1
    27   30   31 1
    28   32   30 ar
    29   33   32 1
    30   34    9 ar
    31   35   34 1
    32   36   13 1
    33   37   34 ar
    34   38   37 1
    35   39   12 ar
    36   40   39 1
    37   41   30 ar
    38   42   41 1
    39   43   21 ar
    40   44   43 1
    41   45    1 1
    42   46    4 1
    43   47   66 1
    44   48   51 1
    45   49   54 2
    46   50   59 ar
    47   51   56 1
    48   52   53 1
    49   53   56 2
    50   54   58 2
    51   55   57 2
    52   56   59 1
    53   59   79 ar
    54   60   61 1
    55   62   77 ar
    56   63   64 ar
    57   64   65 1
    58   66   48 1
    59   67   66 1
    60   68   55 2
    61   69   64 ar
    62   70   69 1
    63   71   72 1
    64   73   54 1
    65   74   71 ar
    66   75   74 1
    67   76   55 1
    68   77   71 ar
    69   78   51 1
    70   79   80 1
    71   81   50 ar
    72   82   81 1
    73   83   79 ar
    74   84   83 1
    75   85   81 ar
    76   86   85 1
    77   87   74 ar
    78   88   87 1
    79   89   62 ar
    80   90   89 1
    81   91   47 1
    82   92   48 1
    83    8   13 2
    84   15   25 ar
    85   18   28 ar
    86   21   24 ar
    87   32   36 ar
    88   37   43 ar
    89   39   41 ar
    90   52   78 2
    91   60   73 ar
    92   60   76 ar
    93   63   66 1
    94   63   76 ar
    95   69   73 ar
    96   77   78 1
    97   83   85 ar
    98   87   89 ar
@<TRIPOS>SUBSTRUCTURE
     1 RES1 1
     2 RES2 47

@<TRIPOS>CRYSIN
  10.4140   10.5960   18.1680 105.3100  94.6100 107.7900   2 1

