# MOL2 file generated by ConQuest
# Please check atom types

@<TRIPOS>MOLECULE
WAJRIL
    53    57     1
SMALL
NO_CHARGES
****
Generated from CSD

@<TRIPOS>ATOM
      1 C1         1.0323   14.2848   18.2028 C.ar      1 RES1    0.0000
      2 C2        -0.4803    7.0627   18.4889 C.ar      1 RES1    0.0000
      3 C3         0.2862   11.2506   18.1078 C.2       1 RES1    0.0000
      4 C4        -1.2397    9.2646   17.8801 C.ar      1 RES1    0.0000
      5 C5         0.0162    9.7928   18.1637 C.ar      1 RES1    0.0000
      6 C6         1.4988   15.5658   17.9961 C.ar      1 RES1    0.0000
      7 C7         1.0147   13.9594   15.8094 C.ar      1 RES1    0.0000
      8 C8         0.8035   13.4596   17.0897 C.ar      1 RES1    0.0000
      9 C9         0.3484   11.6313   15.5533 C.3       1 RES1    0.0000
     10 C10       -0.8860   10.8374   15.1232 C.2       1 RES1    0.0000
     11 C11        1.4918   15.2462   15.6041 C.ar      1 RES1    0.0000
     12 C12        0.3919   12.0535   17.0412 C.2       1 RES1    0.0000
     13 C13       -0.7322    7.2341   14.7983 C.ar      1 RES1    0.0000
     14 C14       -0.6878   13.5878   14.1315 C.3       1 RES1    0.0000
     15 C15        0.5569   12.9768   14.7500 C.3       1 RES1    0.0000
     16 C16        1.7377   16.0521   16.7110 C.ar      1 RES1    0.0000
     17 C17        0.7759    7.5779   18.7575 C.ar      1 RES1    0.0000
     18 C18       -1.4882    7.9049   18.0503 C.ar      1 RES1    0.0000
     19 C19       -1.1517    8.4757   14.3199 C.ar      1 RES1    0.0000
     20 C20        1.0239    8.9312   18.6041 C.ar      1 RES1    0.0000
     21 C21       -2.2878    8.5921   13.5375 C.ar      1 RES1    0.0000
     22 C22       -2.6327    6.2145   13.7424 C.ar      1 RES1    0.0000
     23 C23       -3.0310    7.4436   13.2512 C.ar      1 RES1    0.0000
     24 C24       -1.4827    6.1063   14.4972 C.ar      1 RES1    0.0000
     25 O1        -2.0492   11.1849   15.1535 O.2       1 RES1    0.0000
     26 O2        -0.5629   11.9304   12.4663 O.2       1 RES1    0.0000
     27 O3        -2.1091   13.4405   12.3074 O.2       1 RES1    0.0000
     28 N1        -1.1507   12.9209   12.8674 N.pl3     1 RES1    0.0000
     29 N2        -0.4005    9.6329   14.6632 N.am      1 RES1    0.0000
     30 N3         1.0001    9.5243   14.7759 N.2       1 RES1    0.0000
     31 C25        2.8779   10.8612   15.5328 C.3       1 RES1    0.0000
     32 C26        1.4411   10.6287   15.2610 C.2       1 RES1    0.0000
     33 H1        -1.4468   13.5512   14.7053 H         1 RES1    0.0000
     34 H2         0.4183   11.6777   18.9783 H         1 RES1    0.0000
     35 H3         0.8582   13.9789   19.1092 H         1 RES1    0.0000
     36 H4         1.6625   15.5676   14.6876 H         1 RES1    0.0000
     37 H5         1.2154   12.8398   14.0488 H         1 RES1    0.0000
     38 H6        -2.5336    9.3973   13.1907 H         1 RES1    0.0000
     39 H7        -2.3799    7.5861   17.8636 H         1 RES1    0.0000
     40 H8        -0.4835   14.5392   13.8383 H         1 RES1    0.0000
     41 H9         1.6875   16.1245   18.7766 H         1 RES1    0.0000
     42 H10       -0.6363    6.0839   18.6120 H         1 RES1    0.0000
     43 H11        2.0627   17.0064   16.5684 H         1 RES1    0.0000
     44 H12       -1.9735    9.8804   17.5840 H         1 RES1    0.0000
     45 H13        1.9051    9.2843   18.7996 H         1 RES1    0.0000
     46 H14        0.1271    7.1918   15.3882 H         1 RES1    0.0000
     47 H15       -3.1585    5.3944   13.5552 H         1 RES1    0.0000
     48 H16       -3.8241    7.5965   12.7377 H         1 RES1    0.0000
     49 H17        1.5131    6.9946   19.1145 H         1 RES1    0.0000
     50 H18        3.4098   10.1179   15.2042 H         1 RES1    0.0000
     51 H19        3.1986   11.7469   15.0981 H         1 RES1    0.0000
     52 H20        3.0187   10.9087   16.5189 H         1 RES1    0.0000
     53 H21       -1.2459    5.2111   14.8486 H         1 RES1    0.0000
@<TRIPOS>BOND
     1    1    6 ar
     2    2   17 ar
     3    3    5 1
     4    4    5 ar
     5    5   20 ar
     6    6   16 ar
     7    7    8 ar
     8    8    1 ar
     9    9   10 1
    10   10   25 2
    11   11    7 ar
    12   12    3 2
    13   13   19 ar
    14   14   15 1
    15   15    7 1
    16   16   11 ar
    17   17   20 ar
    18   18    2 ar
    19   19   21 ar
    20   20   45 1
    21   21   23 ar
    22   22   23 ar
    23   23   48 1
    24   24   13 ar
    25   26   28 2
    26   27   28 2
    27   28   14 1
    28   29   10 1
    29   30   29 1
    30   31   32 1
    31   32    9 1
    32   33   14 1
    33   34    3 1
    34   35    1 1
    35   36   11 1
    36   37   15 1
    37   38   21 1
    38   39   18 1
    39   40   14 1
    40   41    6 1
    41   42    2 1
    42   43   16 1
    43   44    4 1
    44   46   13 1
    45   47   22 1
    46   49   17 1
    47   50   31 1
    48   51   31 1
    49   52   31 1
    50   53   24 1
    51    4   18 ar
    52    8   12 1
    53    9   12 1
    54    9   15 1
    55   19   29 1
    56   22   24 ar
    57   30   32 2
@<TRIPOS>SUBSTRUCTURE
     1 RES1 1

@<TRIPOS>CRYSIN
  10.2418   11.5290   17.8061  90.0000  96.4400  90.0000 231 1

