# MOL2 file generated by ConQuest
# Please check atom types

@<TRIPOS>MOLECULE
WAJWUA01
    41    43     1
SMALL
NO_CHARGES
****
Generated from CSD

@<TRIPOS>ATOM
      1 C1         3.7657   -2.5070    9.9777 C.ar      1 RES1    0.0000
      2 C2         2.5785   -1.8477    9.6948 C.ar      1 RES1    0.0000
      3 H1         1.8234   -1.9346   10.2645 H         1 RES1    0.0000
      4 C3         2.5240   -1.0619    8.5630 C.ar      1 RES1    0.0000
      5 H2         1.7140   -0.6180    8.3405 H         1 RES1    0.0000
      6 C4         3.6437   -0.9093    7.7385 C.ar      1 RES1    0.0000
      7 C5         4.8191   -1.5947    8.0577 C.ar      1 RES1    0.0000
      8 H3         5.5815   -1.5021    7.4987 H         1 RES1    0.0000
      9 C6         4.8898   -2.4094    9.1809 C.ar      1 RES1    0.0000
     10 H4         5.6847   -2.8842    9.3940 H         1 RES1    0.0000
     11 C7         3.5833   -0.0597    6.5405 C.2       1 RES1    0.0000
     12 H5         4.3148   -0.0395    5.9346 H         1 RES1    0.0000
     13 C8         2.4489    1.4574    5.1890 C.2       1 RES1    0.0000
     14 C9         1.3644    2.2798    4.9580 C.2       1 RES1    0.0000
     15 C10        3.3950    1.6584    4.1216 C.2       1 RES1    0.0000
     16 C11        0.0850    2.3596    5.7006 C.3       1 RES1    0.0000
     17 H6        -0.6484    2.0668    5.1203 H         1 RES1    0.0000
     18 H7        -0.0718    3.2846    5.9836 H         1 RES1    0.0000
     19 H8         0.1284    1.7803    6.4894 H         1 RES1    0.0000
     20 C12        0.5479    3.6459    3.0368 C.3       1 RES1    0.0000
     21 H9         0.0336    2.9459    2.5829 H         1 RES1    0.0000
     22 H10        0.9630    4.2312    2.3688 H         1 RES1    0.0000
     23 H11       -0.0510    4.1735    3.6064 H         1 RES1    0.0000
     24 C13        3.5036    3.4459    2.3906 C.ar      1 RES1    0.0000
     25 C14        3.5332    4.8132    2.6272 C.ar      1 RES1    0.0000
     26 H12        3.0582    5.1858    3.3613 H         1 RES1    0.0000
     27 C15        4.2668    5.6283    1.7767 C.ar      1 RES1    0.0000
     28 H13        4.2894    6.5663    1.9240 H         1 RES1    0.0000
     29 C16        4.9654    5.0792    0.7153 C.ar      1 RES1    0.0000
     30 H14        5.4698    5.6399    0.1375 H         1 RES1    0.0000
     31 C17        4.9292    3.7138    0.4950 C.ar      1 RES1    0.0000
     32 H15        5.4101    3.3417   -0.2344 H         1 RES1    0.0000
     33 C18        4.1973    2.8839    1.3304 C.ar      1 RES1    0.0000
     34 H16        4.1718    1.9466    1.1790 H         1 RES1    0.0000
     35 N1         3.8134   -3.3682   11.1652 N.pl3     1 RES1    0.0000
     36 N2         2.5401    0.6544    6.3151 N.2       1 RES1    0.0000
     37 N3         1.5860    3.0323    3.8583 N.3       1 RES1    0.0000
     38 N4         2.7710    2.5773    3.2603 N.am      1 RES1    0.0000
     39 O1         4.8082   -4.0730   11.3340 O.2       1 RES1    0.0000
     40 O2         2.8620   -3.3462   11.9385 O.2       1 RES1    0.0000
     41 O3         4.5283    1.2077    3.9328 O.2       1 RES1    0.0000
@<TRIPOS>BOND
     1    1    2 ar
     2    2    3 1
     3    4    2 ar
     4    5    4 1
     5    6    4 ar
     6    7    6 ar
     7    8    7 1
     8    9    1 ar
     9   10    9 1
    10   11    6 1
    11   12   11 1
    12   13   14 2
    13   14   16 1
    14   15   13 1
    15   16   17 1
    16   18   16 1
    17   19   16 1
    18   20   21 1
    19   22   20 1
    20   23   20 1
    21   24   25 ar
    22   25   26 1
    23   27   25 ar
    24   28   27 1
    25   29   27 ar
    26   30   29 1
    27   31   29 ar
    28   32   31 1
    29   33   24 ar
    30   34   33 1
    31   35    1 1
    32   36   11 2
    33   37   14 1
    34   38   15 1
    35   39   35 2
    36   40   35 2
    37   41   15 2
    38    7    9 ar
    39   13   36 1
    40   20   37 1
    41   24   38 1
    42   31   33 ar
    43   37   38 1
@<TRIPOS>SUBSTRUCTURE
     1 RES1 1

@<TRIPOS>CRYSIN
   7.0320    9.4790   12.4250 101.6360  99.6330  94.0400   2 1

