# MOL2 file generated by ConQuest
# Please check atom types

@<TRIPOS>MOLECULE
WAKDIW
    38    39     1
SMALL
NO_CHARGES
****
Generated from CSD

@<TRIPOS>ATOM
      1 O1         4.6860   -0.4963    8.6721 O.2       1 RES1    0.0000
      2 O2         4.7937   -1.1588    6.6255 O.2       1 RES1    0.0000
      3 O3         1.8298    3.2461    3.5310 O.2       1 RES1    0.0000
      4 O4         2.9615    1.4618    3.1588 O.2       1 RES1    0.0000
      5 N1         1.7334    4.2727    5.9288 N.pl3     1 RES1    0.0000
      6 H1         1.5234    4.4019    5.1049 H         1 RES1    0.0000
      7 N2         1.3831    5.2138    6.8739 N.2       1 RES1    0.0000
      8 N3         2.4975    2.2919    3.9254 N.pl3     1 RES1    0.0000
      9 N4         4.4713   -0.3376    7.4740 N.pl3     1 RES1    0.0000
     10 C1         2.3949    3.1617    6.2743 C.ar      1 RES1    0.0000
     11 C2         2.7744    2.1615    5.3411 C.ar      1 RES1    0.0000
     12 C3         3.4619    1.0304    5.7329 C.ar      1 RES1    0.0000
     13 H2         3.6996    0.3848    5.1076 H         1 RES1    0.0000
     14 C4         3.7884    0.8716    7.0513 C.ar      1 RES1    0.0000
     15 C5         3.4689    1.8462    7.9905 C.ar      1 RES1    0.0000
     16 H3         3.7172    1.7338    8.8792 H         1 RES1    0.0000
     17 C6         2.7947    2.9606    7.6124 C.ar      1 RES1    0.0000
     18 H4         2.5922    3.6073    8.2488 H         1 RES1    0.0000
     19 C7         0.9500    6.3372    6.4012 C.2       1 RES1    0.0000
     20 C8         0.8684    6.6490    4.9344 C.3       1 RES1    0.0000
     21 H5         1.7091    6.4466    4.5174 H         1 RES1    0.0000
     22 H6         0.6675    7.5805    4.8165 H         1 RES1    0.0000
     23 H7         0.1765    6.1184    4.5322 H         1 RES1    0.0000
     24 C9         0.5569    7.3199    7.3960 C.2       1 RES1    0.0000
     25 H8         0.6339    7.0779    8.2904 H         1 RES1    0.0000
     26 C10        0.0958    8.5372    7.1274 C.2       1 RES1    0.0000
     27 H9         0.0129    8.7489    6.2262 H         1 RES1    0.0000
     28 C11       -0.2980    9.5843    8.0649 C.ar      1 RES1    0.0000
     29 C12       -0.1485    9.4786    9.4483 C.ar      1 RES1    0.0000
     30 H10        0.2062    8.7002    9.8141 H         1 RES1    0.0000
     31 C13       -0.5205   10.5120   10.2772 C.ar      1 RES1    0.0000
     32 H11       -0.4040   10.4308   11.1969 H         1 RES1    0.0000
     33 C14       -1.0635   11.6656    9.7564 C.ar      1 RES1    0.0000
     34 H12       -1.3199   12.3577   10.3224 H         1 RES1    0.0000
     35 C15       -1.2254   11.7903    8.4058 C.ar      1 RES1    0.0000
     36 H13       -1.5953   12.5666    8.0517 H         1 RES1    0.0000
     37 C16       -0.8400   10.7648    7.5664 C.ar      1 RES1    0.0000
     38 H14       -0.9448   10.8642    6.6473 H         1 RES1    0.0000
@<TRIPOS>BOND
     1    1    9 2
     2    2    9 2
     3    3    8 2
     4    4    8 2
     5    5    6 1
     6    7    5 1
     7    8   11 1
     8    9   14 1
     9   10    5 1
    10   11   10 ar
    11   12   11 ar
    12   13   12 1
    13   14   12 ar
    14   15   14 ar
    15   16   15 1
    16   17   10 ar
    17   18   17 1
    18   19    7 2
    19   20   19 1
    20   21   20 1
    21   22   20 1
    22   23   20 1
    23   24   19 1
    24   25   24 1
    25   26   24 2
    26   27   26 1
    27   28   26 1
    28   29   28 ar
    29   30   29 1
    30   31   29 ar
    31   32   31 1
    32   33   31 ar
    33   34   33 1
    34   35   33 ar
    35   36   35 1
    36   37   28 ar
    37   38   37 1
    38   15   17 ar
    39   35   37 ar
@<TRIPOS>SUBSTRUCTURE
     1 RES1 1

@<TRIPOS>CRYSIN
   7.3916   15.7043   13.7350  90.0000 102.4362  90.0000 231 1

