# MOL2 file generated by ConQuest
# Please check atom types

@<TRIPOS>MOLECULE
WAKNOM
   140   120     5
SMALL
NO_CHARGES
****
Generated from CSD

@<TRIPOS>ATOM
      1 O1        10.5181    3.8673    4.2888 O.2       1 RES1    0.0000
      2 N1        10.1109    5.0145    4.1794 N.pl3     1 RES1    0.0000
      3 O2        10.7192    5.9448    3.6598 O.2       1 RES1    0.0000
      4 C1         8.7737    5.3086    4.6758 C.2       1 RES1    0.0000
      5 N2         7.9425    4.3105    4.7688 N.2       1 RES1    0.0000
      6 O3         6.7656    4.8789    5.1433 O.3       1 RES1    0.0000
      7 N3         6.8889    6.2681    5.3021 N.2       1 RES1    0.0000
      8 C2         8.1436    6.5486    4.9925 C.2       1 RES1    0.0000
      9 N4         8.6030    7.8308    4.9426 N.3       1 RES1    0.0000
     10 C3         9.9285    8.1723    5.4898 C.3       1 RES1    0.0000
     11 C4        10.4823    9.3240    4.6888 C.3       1 RES1    0.0000
     12 C5         9.4946   10.4581    4.5992 C.ar      1 RES1    0.0000
     13 C6         8.1355   10.2384    4.8472 C.ar      1 RES1    0.0000
     14 C7         7.6079    8.8733    5.2240 C.3       1 RES1    0.0000
     15 C8         9.9189   11.7466    4.2540 C.ar      1 RES1    0.0000
     16 C9         9.0137   12.7829    4.1409 C.ar      1 RES1    0.0000
     17 C10        7.6708   12.5615    4.3892 C.ar      1 RES1    0.0000
     18 C11        7.2438   11.2993    4.7387 C.ar      1 RES1    0.0000
     19 N5        12.2286    9.1870    1.4178 N.pl3     2 RES2    0.0000
     20 O4        11.9672    8.0357    1.7465 O.2       2 RES2    0.0000
     21 O5        12.6279   10.0748    2.1513 O.2       2 RES2    0.0000
     22 C12       12.1150    9.5016   -0.0122 C.2       2 RES2    0.0000
     23 N6        12.1430    8.5131   -0.8445 N.2       2 RES2    0.0000
     24 O6        12.1508    9.0929   -2.0632 O.3       2 RES2    0.0000
     25 N7        12.0925   10.4962   -1.9886 N.2       2 RES2    0.0000
     26 C13       12.0882   10.7682   -0.7027 C.2       2 RES2    0.0000
     27 N8        12.1076   12.0526   -0.2533 N.3       2 RES2    0.0000
     28 C14       11.2685   12.4317    0.9168 C.3       2 RES2    0.0000
     29 H1        11.1288   11.6534    1.4766 H         2 RES2    0.0000
     30 H2        10.4112   12.6915    0.5957 H         2 RES2    0.0000
     31 C15       11.9386   13.5988    1.6156 C.3       2 RES2    0.0000
     32 H3        12.7911   13.3488    1.9960 H         2 RES2    0.0000
     33 H4        11.3515   13.9131    2.3804 H         2 RES2    0.0000
     34 C16       12.1716   14.7153    0.6596 C.ar      2 RES2    0.0000
     35 C17       12.2373   14.4651   -0.7098 C.ar      2 RES2    0.0000
     36 C18       12.1350   13.0746   -1.2923 C.3       2 RES2    0.0000
     37 H5        11.3038   13.0085   -1.8560 H         2 RES2    0.0000
     38 H6        12.9048   12.9314   -1.8865 H         2 RES2    0.0000
     39 C19       12.2723   16.0465    1.1029 C.ar      2 RES2    0.0000
     40 H7        12.2349   16.1973    2.0418 H         2 RES2    0.0000
     41 C20       12.4567   17.0963    0.2228 C.ar      2 RES2    0.0000
     42 H8        12.4989   17.9967    0.4837 H         2 RES2    0.0000
     43 C21       12.5081   16.8363   -1.1449 C.ar      2 RES2    0.0000
     44 H9        12.6047   17.5573   -1.8000 H         2 RES2    0.0000
     45 C22       12.3970   15.5272   -1.6146 C.ar      2 RES2    0.0000
     46 H10       12.4806   15.3576   -2.5077 H         2 RES2    0.0000
     47 N9        12.2006    9.4403   -1.8229 Du        5 SUP5    0.0000
     48 O7        11.9207    8.3398   -2.2328 Du        5 SUP5    0.0000
     49 O8        12.6828   10.3314   -2.4319 Du        5 SUP5    0.0000
     50 C23       12.0537    9.6471   -0.3106 Du        5 SUP5    0.0000
     51 N10       12.0524    8.5809    0.3921 Du        5 SUP5    0.0000
     52 O9        12.0333    9.0216    1.6217 Du        5 SUP5    0.0000
     53 N11       12.0188   10.4514    1.6829 Du        5 SUP5    0.0000
     54 C24       12.0394   10.8002    0.3946 Du        5 SUP5    0.0000
     55 N12       12.0500   12.1088    0.0636 Du        5 SUP5    0.0000
     56 C25       11.3067   12.5837   -1.1686 Du        5 SUP5    0.0000
     57 H11       11.2433   11.8505   -1.8305 Du        5 SUP5    0.0000
     58 H12       10.3900   12.8653   -0.9242 Du        5 SUP5    0.0000
     59 C26       12.0535   13.7246   -1.7440 Du        5 SUP5    0.0000
     60 H13       12.9311   13.4002   -2.0673 Du        5 SUP5    0.0000
     61 H14       11.5535   14.0686   -2.5281 Du        5 SUP5    0.0000
     62 C27       12.2718   14.8153   -0.8172 Du        5 SUP5    0.0000
     63 C28       12.2198   14.5619    0.5550 Du        5 SUP5    0.0000
     64 C29       12.0052   13.0966    1.1380 Du        5 SUP5    0.0000
     65 H15       12.7129   12.8971    1.8025 Du        5 SUP5    0.0000
     66 H16       11.1304   13.0477    1.5988 Du        5 SUP5    0.0000
     67 C30       12.4396   16.1581   -1.2144 Du        5 SUP5    0.0000
     68 H17       12.4797   16.3919   -2.1335 Du        5 SUP5    0.0000
     69 C31       12.5399   17.1068   -0.2520 Du        5 SUP5    0.0000
     70 H18       12.6289   18.0090   -0.5346 Du        5 SUP5    0.0000
     71 C32       12.5245   16.8620    1.1253 Du        5 SUP5    0.0000
     72 H19       12.6411   17.5609    1.7567 Du        5 SUP5    0.0000
     73 C33       12.3322   15.5461    1.5199 Du        5 SUP5    0.0000
     74 H20       12.2791   15.3245    2.4415 Du        5 SUP5    0.0000
     75 O10        5.0170   10.2728    2.1554 O.2       3 RES3    0.0000
     76 N13        5.3322    9.1563    1.7796 N.pl3     3 RES3    0.0000
     77 O11        5.8189    8.2788    2.4874 O.2       3 RES3    0.0000
     78 C34        5.1706    8.8335    0.3771 C.2       3 RES3    0.0000
     79 N14        5.1742    9.8304   -0.4616 N.2       3 RES3    0.0000
     80 O12        5.1384    9.2525   -1.6841 O.3       3 RES3    0.0000
     81 N15        5.0899    7.8592   -1.5986 N.2       3 RES3    0.0000
     82 C35        5.1232    7.5791   -0.3073 C.2       3 RES3    0.0000
     83 N16        5.1579    6.3002    0.1548 N.3       3 RES3    0.0000
     84 C36        4.3931    5.9184    1.3562 C.3       3 RES3    0.0000
     85 C37        5.1078    4.7627    2.0143 C.3       3 RES3    0.0000
     86 C38        5.2911    3.6292    1.0405 C.ar      3 RES3    0.0000
     87 C39        5.2813    3.8800   -0.3297 C.ar      3 RES3    0.0000
     88 C40        5.1321    5.2717   -0.8962 C.3       3 RES3    0.0000
     89 C41        5.4417    2.3104    1.4748 C.ar      3 RES3    0.0000
     90 C42        5.5916    1.2679    0.5746 C.ar      3 RES3    0.0000
     91 C43        5.5599    1.5225   -0.7836 C.ar      3 RES3    0.0000
     92 C44        5.3996    2.8244   -1.2312 C.ar      3 RES3    0.0000
     93 N17       -0.2425    0.6805    5.2158 N.pl3     4 RES4    0.0000
     94 O13       -0.0924   -0.4179    4.7056 O.2       4 RES4    0.0000
     95 O14       -0.9891    1.5607    4.8059 O.2       4 RES4    0.0000
     96 C45        0.4826    0.9729    6.4394 C.2       4 RES4    0.0000
     97 N18        0.7484   -0.0204    7.2296 N.2       4 RES4    0.0000
     98 O15        1.2676    0.5599    8.3430 O.3       4 RES4    0.0000
     99 N19        1.3455    1.9571    8.2091 N.2       4 RES4    0.0000
    100 C46        0.8419    2.2257    7.0244 C.2       4 RES4    0.0000
    101 N20        0.6802    3.4996    6.5583 N.3       4 RES4    0.0000
    102 C47        0.9911    3.8132    5.1557 C.3       4 RES4    0.0000
    103 C48        0.1121    4.9626    4.7234 C.3       4 RES4    0.0000
    104 C49        0.2084    6.1199    5.6782 C.ar      4 RES4    0.0000
    105 C50        0.6816    5.9222    6.9801 C.ar      4 RES4    0.0000
    106 C51        1.1106    4.5616    7.4715 C.3       4 RES4    0.0000
    107 C52       -0.1640    7.4109    5.2876 C.ar      4 RES4    0.0000
    108 C53       -0.0686    8.4770    6.1731 C.ar      4 RES4    0.0000
    109 C54        0.3879    8.2662    7.4593 C.ar      4 RES4    0.0000
    110 C55        0.7591    7.0003    7.8564 C.ar      4 RES4    0.0000
    111 H21        6.8426    8.6666    4.7354 H         1 RES1    0.0000
    112 H22       10.4967    7.3936    5.4253 H         1 RES1    0.0000
    113 H23        4.3417    6.6860    1.9374 H         3 RES3    0.0000
    114 H24        4.2716    5.3383   -1.3926 H         3 RES3    0.0000
    115 H25        0.8216    3.0015    4.6208 H         4 RES4    0.0000
    116 H26        1.9107    4.0554    5.1224 H         4 RES4    0.0000
    117 H27        5.8997    5.4595   -1.5428 H         3 RES3    0.0000
    118 H28       11.3506    9.6594    5.1097 H         1 RES1    0.0000
    119 H29       -0.8146    4.6430    4.6539 H         4 RES4    0.0000
    120 H30        3.4805    5.6052    1.0591 H         3 RES3    0.0000
    121 H31        0.7070    4.3835    8.3201 H         4 RES4    0.0000
    122 H32        5.6723    0.8226   -1.4512 H         3 RES3    0.0000
    123 H33        5.9913    5.0519    2.3779 H         3 RES3    0.0000
    124 H34       10.8197   11.8725    4.0887 H         1 RES1    0.0000
    125 H35        2.1102    4.5206    7.5894 H         4 RES4    0.0000
    126 H36        5.3951    3.0235   -2.1360 H         3 RES3    0.0000
    127 H37        9.7982    8.4145    6.4157 H         1 RES1    0.0000
    128 H38        7.3739    8.8576    6.1891 H         1 RES1    0.0000
    129 H39        5.4656    2.1336    2.3804 H         3 RES3    0.0000
    130 H40        6.3243   11.0867    4.9238 H         1 RES1    0.0000
    131 H41       -0.3018    9.3240    5.9218 H         4 RES4    0.0000
    132 H42       10.7319    9.0118    3.7781 H         1 RES1    0.0000
    133 H43        9.3163   13.6805    3.9436 H         1 RES1    0.0000
    134 H44        7.0434   13.2558    4.2822 H         1 RES1    0.0000
    135 H45        0.3698    5.2526    3.8392 H         4 RES4    0.0000
    136 H46        5.7318    0.3893    0.8834 H         3 RES3    0.0000
    137 H47       -0.4396    7.5123    4.4299 H         4 RES4    0.0000
    138 H48        0.4567    8.9849    8.1036 H         4 RES4    0.0000
    139 H49        1.1321    6.8378    8.7554 H         4 RES4    0.0000
    140 H50        4.5391    4.4692    2.7776 H         3 RES3    0.0000
@<TRIPOS>BOND
     1    1    2 2
     2    2    3 2
     3    4    2 1
     4    5    4 2
     5    6    5 1
     6    7    6 1
     7    8    4 1
     8    9    8 1
     9   10    9 1
    10   11   10 1
    11   12   11 1
    12   13   12 ar
    13   14    9 1
    14   15   12 ar
    15   16   15 ar
    16   17   16 ar
    17   18   13 ar
    18   19   20 2
    19   21   19 2
    20   22   19 1
    21   23   22 2
    22   24   23 1
    23   25   24 1
    24   26   22 1
    25   27   26 1
    26   28   27 1
    27   29   28 1
    28   30   28 1
    29   31   28 1
    30   32   31 1
    31   33   31 1
    32   34   31 1
    33   35   34 ar
    34   36   27 1
    35   37   36 1
    36   38   36 1
    37   39   34 ar
    38   40   39 1
    39   41   39 ar
    40   42   41 1
    41   43   41 ar
    42   44   43 1
    43   45   35 ar
    44   46   45 1
    45   75   76 2
    46   76   77 2
    47   78   76 1
    48   79   78 2
    49   80   79 1
    50   81   80 1
    51   82   78 1
    52   83   82 1
    53   84   83 1
    54   85   84 1
    55   86   85 1
    56   87   86 ar
    57   88   83 1
    58   89   86 ar
    59   90   89 ar
    60   91   90 ar
    61   92   87 ar
    62   93   94 2
    63   95   93 2
    64   96   93 1
    65   97   96 2
    66   98   97 1
    67   99   98 1
    68  100   96 1
    69  101  100 1
    70  102  101 1
    71  103  102 1
    72  104  103 1
    73  105  104 ar
    74  106  101 1
    75  107  104 ar
    76  108  107 ar
    77  109  108 ar
    78  110  105 ar
    79  111   14 1
    80  112   10 1
    81  113   84 1
    82  114   88 1
    83  115  102 1
    84  116  102 1
    85  117   88 1
    86  118   11 1
    87  119  103 1
    88  120   84 1
    89  121  106 1
    90  122   91 1
    91  123   85 1
    92  124   15 1
    93  125  106 1
    94  126   92 1
    95  127   10 1
    96  128   14 1
    97  129   89 1
    98  130   18 1
    99  131  108 1
   100  132   11 1
   101  133   16 1
   102  134   17 1
   103  135  103 1
   104  136   90 1
   105  137  107 1
   106  138  109 1
   107  139  110 1
   108  140   85 1
   109    7    8 2
   110   13   14 1
   111   17   18 ar
   112   25   26 2
   113   35   36 1
   114   43   45 ar
   115   81   82 2
   116   87   88 1
   117   91   92 ar
   118   99  100 2
   119  105  106 1
   120  109  110 ar
@<TRIPOS>SUBSTRUCTURE
     1 RES1 1
     2 RES2 19
     3 RES3 75
     4 RES4 93
     5 SUP5 47

@<TRIPOS>CRYSIN
  13.8950   12.2410   25.9230  90.0000 100.8550  90.0000 231 1

