# MOL2 file generated by ConQuest
# Please check atom types

@<TRIPOS>MOLECULE
WAKNUS
    29    31     1
SMALL
NO_CHARGES
****
Generated from CSD

@<TRIPOS>ATOM
      1 N1         2.8383    0.3820   -3.0296 N.3       1 RES1    0.0000
      2 C1         2.1650    1.2715   -2.2951 C.2       1 RES1    0.0000
      3 N2         1.1239    1.9447   -2.7247 N.2       1 RES1    0.0000
      4 O1         0.7090    2.7355   -1.6330 O.3       1 RES1    0.0000
      5 N3         1.4966    2.5271   -0.5521 N.2       1 RES1    0.0000
      6 C2         2.3833    1.6426   -0.9210 C.2       1 RES1    0.0000
      7 N4         3.2953    1.1879    0.0365 N.2       1 RES1    0.0000
      8 N5         4.1322    0.3849   -0.4677 N.2       1 RES1    0.0000
      9 C3         5.0333   -0.1572    0.4612 C.2       1 RES1    0.0000
     10 N6         6.1547   -0.5908   -0.0611 N.2       1 RES1    0.0000
     11 O2         6.8973   -1.0467    0.9713 O.3       1 RES1    0.0000
     12 N7         6.2011   -0.9488    2.1795 N.2       1 RES1    0.0000
     13 C4         5.0473   -0.4013    1.8868 C.2       1 RES1    0.0000
     14 N8         4.1031   -0.1525    2.8566 N.3       1 RES1    0.0000
     15 C5         4.5178   -0.6311    4.1932 C.3       1 RES1    0.0000
     16 H1         4.6231   -1.6262    4.1846 H         1 RES1    0.0000
     17 H2         5.3673   -0.2311    4.3956 H         1 RES1    0.0000
     18 C6         3.4991   -0.2425    5.2320 C.3       1 RES1    0.0000
     19 H3         3.7150   -0.6429    6.0976 H         1 RES1    0.0000
     20 H4         3.4436    0.7480    5.2844 H         1 RES1    0.0000
     21 O3         2.1949   -0.7316    4.9018 O.3       1 RES1    0.0000
     22 C7         1.7992   -0.1719    3.6514 C.3       1 RES1    0.0000
     23 H5         1.8329    0.8362    3.7437 H         1 RES1    0.0000
     24 H6         0.8860   -0.4874    3.4692 H         1 RES1    0.0000
     25 C8         2.7280   -0.5891    2.5406 C.3       1 RES1    0.0000
     26 H7         2.6917   -1.6010    2.4209 H         1 RES1    0.0000
     27 H8         2.4382   -0.1639    1.7140 H         1 RES1    0.0000
     28 H9         3.6027    0.0672   -2.7177 H         1 RES1    0.0000
     29 H10        2.5573    0.2521   -3.8723 H         1 RES1    0.0000
@<TRIPOS>BOND
     1    1    2 1
     2    2    3 2
     3    3    4 1
     4    4    5 1
     5    5    6 2
     6    6    2 1
     7    7    6 1
     8    8    7 2
     9    9    8 1
    10   10    9 2
    11   11   10 1
    12   12   11 1
    13   13    9 1
    14   14   13 1
    15   15   14 1
    16   16   15 1
    17   17   15 1
    18   18   15 1
    19   19   18 1
    20   20   18 1
    21   21   18 1
    22   22   21 1
    23   23   22 1
    24   24   22 1
    25   25   14 1
    26   26   25 1
    27   27   25 1
    28   28    1 1
    29   29    1 1
    30   12   13 2
    31   22   25 1
@<TRIPOS>SUBSTRUCTURE
     1 RES1 1

@<TRIPOS>CRYSIN
  15.5930    4.2020   18.1500  90.0000 109.0400  90.0000  14 1

