# MOL2 file generated by ConQuest
# Please check atom types

@<TRIPOS>MOLECULE
WAKPII
    35    37     1
SMALL
NO_CHARGES
****
Generated from CSD

@<TRIPOS>ATOM
      1 N1        -4.7309    4.6755   13.9350 N.3       1 RES1    0.0000
      2 C1        -3.3206    5.0607   14.0847 C.3       1 RES1    0.0000
      3 H1        -2.8786    5.1566   13.2058 H         1 RES1    0.0000
      4 H2        -2.8555    4.3708   14.6105 H         1 RES1    0.0000
      5 C2        -3.2532    6.3873   14.7776 C.3       1 RES1    0.0000
      6 H3        -3.6574    6.3480   15.6712 H         1 RES1    0.0000
      7 H4        -2.2922    6.6888   14.8623 H         1 RES1    0.0000
      8 O1        -3.9300    7.3945   14.0261 O.3       1 RES1    0.0000
      9 C3        -5.3009    7.0443   13.8653 C.3       1 RES1    0.0000
     10 H5        -5.7304    7.0129   14.7509 H         1 RES1    0.0000
     11 H6        -5.6638    7.7496   13.3972 H         1 RES1    0.0000
     12 C4        -5.4725    5.7076   13.1826 C.3       1 RES1    0.0000
     13 H7        -5.1405    5.7537   12.2735 H         1 RES1    0.0000
     14 H8        -6.4584    5.4905   13.1962 H         1 RES1    0.0000
     15 C5        -5.0567    3.3908   13.6011 C.2       1 RES1    0.0000
     16 N2        -6.0244    3.1392   12.7479 N.2       1 RES1    0.0000
     17 O2        -6.1594    1.7515   12.7188 O.3       1 RES1    0.0000
     18 N3        -5.2481    1.1573   13.5505 N.2       1 RES1    0.0000
     19 C6        -4.5631    2.1227   14.1014 C.2       1 RES1    0.0000
     20 C7        -3.5228    1.7167   15.0527 C.2       1 RES1    0.0000
     21 N4        -3.0014    2.5592   15.9153 N.2       1 RES1    0.0000
     22 O3        -2.0790    1.8201   16.6537 O.3       1 RES1    0.0000
     23 C8        -2.0980    0.5485   16.1950 C.2       1 RES1    0.0000
     24 C9        -2.9866    0.4134   15.1929 C.2       1 RES1    0.0000
     25 H9        -3.1537   -0.3634   14.7509 H         1 RES1    0.0000
     26 C10       -1.1818   -0.4361   16.8181 C.2       1 RES1    0.0000
     27 O4        -1.1769   -1.5873   16.4948 O.2       1 RES1    0.0000
     28 O5        -0.3971    0.1234   17.7239 O.3       1 RES1    0.0000
     29 C11        0.5518   -0.7759   18.3913 C.3       1 RES1    0.0000
     30 H10       -0.0580   -1.3653   18.9890 H         1 RES1    0.0000
     31 H11        1.0026   -1.2769   17.6909 H         1 RES1    0.0000
     32 C12        1.5106    0.0884   19.1355 C.3       1 RES1    0.0000
     33 H12        2.1665   -0.5304   19.5751 H         1 RES1    0.0000
     34 H13        1.0789    0.6384   19.7664 H         1 RES1    0.0000
     35 H14        1.9874    0.6777   18.4707 H         1 RES1    0.0000
@<TRIPOS>BOND
     1    1    2 1
     2    2    3 1
     3    4    2 1
     4    5    2 1
     5    6    5 1
     6    7    5 1
     7    8    5 1
     8    9    8 1
     9   10    9 1
    10   11    9 1
    11   12    1 1
    12   13   12 1
    13   14   12 1
    14   15    1 1
    15   16   15 2
    16   17   16 1
    17   18   17 1
    18   19   15 1
    19   20   19 1
    20   21   20 2
    21   22   21 1
    22   23   22 1
    23   24   20 1
    24   25   24 1
    25   26   23 1
    26   27   26 2
    27   28   26 1
    28   29   28 1
    29   30   29 1
    30   31   29 1
    31   32   29 1
    32   33   32 1
    33   34   32 1
    34   35   32 1
    35    9   12 1
    36   18   19 2
    37   23   24 2
@<TRIPOS>SUBSTRUCTURE
     1 RES1 1

@<TRIPOS>CRYSIN
  11.0730    9.8220   24.4170  90.0000  97.3280  90.0000  15 1

