# MOL2 file generated by ConQuest
# Please check atom types

@<TRIPOS>MOLECULE
WAKPAA
    33    36     1
SMALL
NO_CHARGES
****
Generated from CSD

@<TRIPOS>ATOM
      1 N1         8.2544    6.9335    1.8076 N.3       1 RES1    0.0000
      2 C1         7.8793    8.1098    2.6213 C.3       1 RES1    0.0000
      3 H1         7.0291    8.5099    2.2597 H         1 RES1    0.0000
      4 H2         7.7066    7.7911    3.5680 H         1 RES1    0.0000
      5 C2         8.9993    9.1184    2.5808 C.3       1 RES1    0.0000
      6 H3         8.7825    9.8677    3.1636 H         1 RES1    0.0000
      7 H4         9.1082    9.4611    1.6413 H         1 RES1    0.0000
      8 O1        10.2255    8.5609    3.0498 O.3       1 RES1    0.0000
      9 C3        10.5853    7.4462    2.2312 C.3       1 RES1    0.0000
     10 H5        11.4002    7.0940    2.6086 H         1 RES1    0.0000
     11 H6        10.6908    7.7620    1.3003 H         1 RES1    0.0000
     12 C4         9.5385    6.3788    2.2534 C.3       1 RES1    0.0000
     13 H7         9.8226    5.6418    1.6571 H         1 RES1    0.0000
     14 H8         9.3790    5.9322    3.1715 H         1 RES1    0.0000
     15 C5         7.2705    5.9867    1.6149 C.2       1 RES1    0.0000
     16 N2         7.4572    4.7269    1.9309 N.2       1 RES1    0.0000
     17 O2         6.3319    4.0524    1.4821 O.3       1 RES1    0.0000
     18 N3         5.4386    4.9142    0.9069 N.2       1 RES1    0.0000
     19 C6         5.9789    6.0978    0.9716 C.2       1 RES1    0.0000
     20 C7         5.2917    7.2058    0.3370 C.2       1 RES1    0.0000
     21 N4         5.7290    8.4293    0.3793 N.2       1 RES1    0.0000
     22 O3         4.7964    9.1305   -0.4083 O.3       1 RES1    0.0000
     23 C8         3.9134    8.2165   -0.8246 C.2       1 RES1    0.0000
     24 N5         4.1414    7.0163   -0.4026 N.2       1 RES1    0.0000
     25 C9         2.8166    8.6508   -1.6762 C.2       1 RES1    0.0000
     26 N6         2.5513    9.9163   -1.8378 N.2       1 RES1    0.0000
     27 O4         1.4631    9.9442   -2.6609 O.3       1 RES1    0.0000
     28 N7         1.0730    8.6464   -3.0093 N.2       1 RES1    0.0000
     29 C10        1.9018    7.8462   -2.4120 C.2       1 RES1    0.0000
     30 C11        1.8493    6.3701   -2.5618 C.3       1 RES1    0.0000
     31 H9         1.7294    5.9540   -1.6809 H         1 RES1    0.0000
     32 H10        2.6642    6.0920   -2.9495 H         1 RES1    0.0000
     33 H11        1.0898    6.1428   -3.0605 H         1 RES1    0.0000
@<TRIPOS>BOND
     1    1    2 1
     2    2    3 1
     3    4    2 1
     4    5    2 1
     5    6    5 1
     6    7    5 1
     7    8    5 1
     8    9    8 1
     9   10    9 1
    10   11    9 1
    11   12    1 1
    12   13   12 1
    13   14   12 1
    14   15    1 1
    15   16   15 2
    16   17   16 1
    17   18   17 1
    18   19   15 1
    19   20   19 1
    20   21   20 2
    21   22   21 1
    22   23   22 1
    23   24   20 1
    24   25   23 1
    25   26   25 2
    26   27   26 1
    27   28   27 1
    28   29   25 1
    29   30   29 1
    30   31   30 1
    31   32   30 1
    32   33   30 1
    33    9   12 1
    34   18   19 2
    35   23   24 2
    36   28   29 2
@<TRIPOS>SUBSTRUCTURE
     1 RES1 1

@<TRIPOS>CRYSIN
  22.6900    7.2610    7.9310  90.0000  91.3300  90.0000  14 1

