# MOL2 file generated by ConQuest
# Please check atom types

@<TRIPOS>MOLECULE
WAKPEE
    26    28     1
SMALL
NO_CHARGES
****
Generated from CSD

@<TRIPOS>ATOM
      1 O1         0.1714   12.7835    5.8583 O.3       1 RES1    0.0000
      2 H1        -0.0999   12.7528    4.8954 H         1 RES1    0.0000
      3 N1         1.1235   13.7333    6.0361 N.pl3     1 RES1    0.0000
      4 N2         0.7995   15.0092    6.2788 N.ar      1 RES1    0.0000
      5 N3         1.9297   15.6096    6.5162 N.ar      1 RES1    0.0000
      6 N4         2.9699   14.7357    6.4540 N.ar      1 RES1    0.0000
      7 C1         2.4361   13.5687    6.1483 C.ar      1 RES1    0.0000
      8 C2         3.1511   12.3133    5.9306 C.2       1 RES1    0.0000
      9 N5         2.8499   11.5777    4.8974 N.2       1 RES1    0.0000
     10 O2         3.7282   10.5278    4.9177 O.3       1 RES1    0.0000
     11 N6         4.5788   10.6064    6.0233 N.2       1 RES1    0.0000
     12 C3         4.2370   11.7074    6.6474 C.2       1 RES1    0.0000
     13 N7         4.9054   12.1658    7.7549 N.3       1 RES1    0.0000
     14 C4         4.1257   12.7406    8.8645 C.3       1 RES1    0.0000
     15 H2         3.4263   13.3726    8.5264 H         1 RES1    0.0000
     16 H3         3.6594   12.0091    9.4189 H         1 RES1    0.0000
     17 C5         5.0525   13.5059    9.7787 C.3       1 RES1    0.0000
     18 H4         4.5677   13.8806   10.5549 H         1 RES1    0.0000
     19 H5         5.4950   14.2484    9.2634 H         1 RES1    0.0000
     20 O3         6.0975   12.6354   10.2520 O.3       1 RES1    0.0000
     21 C6         6.8784   12.1215    9.1600 C.3       1 RES1    0.0000
     22 H6         7.2648   12.8097    8.6684 H         1 RES1    0.0000
     23 H7         7.5942   11.5275    9.5474 H         1 RES1    0.0000
     24 C7         6.0072   11.3174    8.2289 C.3       1 RES1    0.0000
     25 H8         6.5524   11.0195    7.4648 H         1 RES1    0.0000
     26 H9         5.5986   10.5217    8.6346 H         1 RES1    0.0000
@<TRIPOS>BOND
     1    1    2 1
     2    3    1 1
     3    4    3 ar
     4    5    4 ar
     5    6    5 ar
     6    7    3 ar
     7    8    7 1
     8    9    8 2
     9   10    9 1
    10   11   10 1
    11   12    8 1
    12   13   12 1
    13   14   13 1
    14   15   14 1
    15   16   14 1
    16   17   14 1
    17   18   17 1
    18   19   17 1
    19   20   17 1
    20   21   20 1
    21   22   21 1
    22   23   21 1
    23   24   13 1
    24   25   24 1
    25   26   24 1
    26    6    7 ar
    27   11   12 2
    28   21   24 1
@<TRIPOS>SUBSTRUCTURE
     1 RES1 1

@<TRIPOS>CRYSIN
   7.3200   20.3200    6.7850  90.0000  94.7570  90.0000  14 1

