# MOL2 file generated by ConQuest
# Please check atom types

@<TRIPOS>MOLECULE
WAKWUA
    80    82     2
SMALL
NO_CHARGES
****
Generated from CSD

@<TRIPOS>ATOM
      1 O1        -6.8829    1.0954   -9.1344 O.3       1 RES1    0.0000
      2 O2        -3.3191   -0.5885   -5.4061 O.3       1 RES1    0.0000
      3 O3        -4.3164    1.4071   -9.5773 O.2       1 RES1    0.0000
      4 O4        -5.1569   -5.9977    2.9797 O.3       2 RES2    0.0000
      5 O5        -8.3335   -4.3616   -1.0977 O.3       2 RES2    0.0000
      6 O6        -7.7802   -6.2905    3.1688 O.2       2 RES2    0.0000
      7 N1        -5.9473    0.7379   -8.1751 N.am      1 RES1    0.0000
      8 N2        -6.0105   -5.6522    1.9238 N.am      2 RES2    0.0000
      9 C1        -6.4288    0.2191   -7.0164 C.2       1 RES1    0.0000
     10 C2        -5.5747   -0.2131   -6.0799 C.2       1 RES1    0.0000
     11 C3        -4.1994   -0.1553   -6.3223 C.2       1 RES1    0.0000
     12 C4        -3.6999    0.3834   -7.5050 C.2       1 RES1    0.0000
     13 C5        -4.6259    0.8434   -8.4619 C.2       1 RES1    0.0000
     14 C6        -2.2297    0.5138   -7.8235 C.3       1 RES1    0.0000
     15 C7        -1.5123   -0.8265   -7.9263 C.3       1 RES1    0.0000
     16 C8        -0.0831   -0.5746   -8.4530 C.3       1 RES1    0.0000
     17 C9         0.6975    0.4093   -7.6053 C.3       1 RES1    0.0000
     18 C10       -0.0774    1.6849   -7.4187 C.3       1 RES1    0.0000
     19 C11       -1.4923    1.5017   -6.8870 C.3       1 RES1    0.0000
     20 C12       -2.2260   -1.7715   -8.7956 C.2       1 RES1    0.0000
     21 C13       -2.7224   -2.8878   -8.4771 C.2       1 RES1    0.0000
     22 C14        2.0811    0.6971   -8.2296 C.3       1 RES1    0.0000
     23 C15       -2.1950    2.8141   -6.7550 C.3       1 RES1    0.0000
     24 C16       -5.4075   -5.1543    0.8223 C.2       2 RES2    0.0000
     25 C17       -6.1554   -4.7211   -0.2069 C.2       2 RES2    0.0000
     26 C18       -7.5388   -4.7958   -0.0990 C.2       2 RES2    0.0000
     27 C19       -8.1721   -5.3046    1.0406 C.2       2 RES2    0.0000
     28 C20       -7.3601   -5.7587    2.0952 C.2       2 RES2    0.0000
     29 C21       -9.6830   -5.3415    1.1459 C.3       2 RES2    0.0000
     30 C22      -10.2290   -4.3297    2.1408 C.3       2 RES2    0.0000
     31 C23      -11.7471   -4.3118    2.1167 C.3       2 RES2    0.0000
     32 C24      -12.3456   -5.6920    2.3071 C.3       2 RES2    0.0000
     33 C25      -11.7740   -6.6758    1.3287 C.3       2 RES2    0.0000
     34 C26      -10.2598   -6.7266    1.3705 C.3       2 RES2    0.0000
     35 C27       -9.6807   -2.9745    1.9200 C.2       2 RES2    0.0000
     36 C28       -8.9613   -2.3003    2.6802 C.2       2 RES2    0.0000
     37 C29      -13.8738   -5.6362    2.2424 C.3       2 RES2    0.0000
     38 C30       -9.7201   -7.7852    0.4200 C.3       2 RES2    0.0000
     39 H1        -6.6360    2.1609   -9.3781 H         1 RES1    0.0000
     40 H2        -7.8785   -4.1425   -1.7766 H         2 RES2    0.0000
     41 H3        -3.8933   -0.8763   -4.5685 H         1 RES1    0.0000
     42 H4        -5.4457   -7.0303    3.2106 H         2 RES2    0.0000
     43 H5        -7.4168    0.1693   -6.8654 H         1 RES1    0.0000
     44 H6        -5.9253   -0.5776   -5.2157 H         1 RES1    0.0000
     45 H7        -2.2195    0.8962   -8.7563 H         1 RES1    0.0000
     46 H8        -1.5082   -1.2746   -7.0304 H         1 RES1    0.0000
     47 H9        -0.1522   -0.2091   -9.3781 H         1 RES1    0.0000
     48 H10        0.4079   -1.4439   -8.4644 H         1 RES1    0.0000
     49 H11        0.8089   -0.0100   -6.7005 H         1 RES1    0.0000
     50 H12       -0.1333    2.1410   -8.3121 H         1 RES1    0.0000
     51 H13        0.4225    2.2605   -6.7766 H         1 RES1    0.0000
     52 H14       -1.4658    1.1452   -5.9517 H         1 RES1    0.0000
     53 H15       -2.3422   -1.5037   -9.7588 H         1 RES1    0.0000
     54 H16       -3.1927   -3.4654   -9.1497 H         1 RES1    0.0000
     55 H17       -2.6435   -3.1965   -7.5380 H         1 RES1    0.0000
     56 H18        2.5731    1.3443   -7.6522 H         1 RES1    0.0000
     57 H19        1.9638    1.0854   -9.1370 H         1 RES1    0.0000
     58 H20        2.6041   -0.1593   -8.2994 H         1 RES1    0.0000
     59 H21       -1.6828    3.4156   -6.1421 H         1 RES1    0.0000
     60 H22       -2.2653    3.2463   -7.6522 H         1 RES1    0.0000
     61 H23       -3.1111    2.6687   -6.3832 H         1 RES1    0.0000
     62 H24       -4.4136   -5.1085    0.7741 H         2 RES2    0.0000
     63 H25       -5.7313   -4.3616   -1.0406 H         2 RES2    0.0000
     64 H26      -10.0044   -5.0686    0.2411 H         2 RES2    0.0000
     65 H27       -9.9137   -4.6006    3.0457 H         2 RES2    0.0000
     66 H28      -12.0709   -3.7143    2.8553 H         2 RES2    0.0000
     67 H29      -12.0542   -3.9533    1.2310 H         2 RES2    0.0000
     68 H30      -12.0892   -6.0246    3.2106 H         2 RES2    0.0000
     69 H31      -12.1306   -7.5880    1.5482 H         2 RES2    0.0000
     70 H32      -12.0570   -6.4130    0.4061 H         2 RES2    0.0000
     71 H33       -9.9711   -7.0104    2.2842 H         2 RES2    0.0000
     72 H34       -9.9268   -2.5393    1.0533 H         2 RES2    0.0000
     73 H35       -8.6802   -2.6887    3.5533 H         2 RES2    0.0000
     74 H36       -8.6569   -1.3842    2.4238 H         2 RES2    0.0000
     75 H37      -14.2522   -6.5524    2.3731 H         2 RES2    0.0000
     76 H38      -14.2164   -5.0387    2.9568 H         2 RES2    0.0000
     77 H39      -14.1516   -5.2877    1.3452 H         2 RES2    0.0000
     78 H40      -10.1364   -8.6734    0.6345 H         2 RES2    0.0000
     79 H41       -9.9389   -7.5282   -0.5203 H         2 RES2    0.0000
     80 H42       -8.7277   -7.8569    0.5330 H         2 RES2    0.0000
@<TRIPOS>BOND
     1    1    7 1
     2    2   11 1
     3    3   13 2
     4    4    8 1
     5    5   26 1
     6    6   28 2
     7    7    9 1
     8    8   24 1
     9    9   10 2
    10   10   11 1
    11   11   12 2
    12   12   13 1
    13   13    7 1
    14   14   12 1
    15   15   14 1
    16   16   15 1
    17   17   16 1
    18   18   17 1
    19   19   14 1
    20   20   15 1
    21   21   20 2
    22   22   17 1
    23   23   19 1
    24   24   25 2
    25   25   26 1
    26   26   27 2
    27   27   28 1
    28   28    8 1
    29   29   27 1
    30   30   29 1
    31   31   30 1
    32   32   31 1
    33   33   32 1
    34   34   29 1
    35   35   30 1
    36   36   35 2
    37   37   32 1
    38   38   34 1
    39   39    1 1
    40   40    5 1
    41   41    2 1
    42   42    4 1
    43   43    9 1
    44   44   10 1
    45   45   14 1
    46   46   15 1
    47   47   16 1
    48   48   16 1
    49   49   17 1
    50   50   18 1
    51   51   18 1
    52   52   19 1
    53   53   20 1
    54   54   21 1
    55   55   21 1
    56   56   22 1
    57   57   22 1
    58   58   22 1
    59   59   23 1
    60   60   23 1
    61   61   23 1
    62   62   24 1
    63   63   25 1
    64   64   29 1
    65   65   30 1
    66   66   31 1
    67   67   31 1
    68   68   32 1
    69   69   33 1
    70   70   33 1
    71   71   34 1
    72   72   35 1
    73   73   36 1
    74   74   36 1
    75   75   37 1
    76   76   37 1
    77   77   37 1
    78   78   38 1
    79   79   38 1
    80   80   38 1
    81   18   19 1
    82   33   34 1
@<TRIPOS>SUBSTRUCTURE
     1 RES1 1
     2 RES2 4

@<TRIPOS>CRYSIN
  12.2800    9.9580   12.7370  90.0000  94.9100  90.0000   4 1

