# MOL2 file generated by ConQuest
# Please check atom types

@<TRIPOS>MOLECULE
WAKWAG
    44    48     2
SMALL
NO_CHARGES
****
Generated from CSD

@<TRIPOS>ATOM
      1 O1        12.3299    0.6208   14.2780 O.2       1 RES1    0.0000
      2 O2        11.1121    0.8400   16.0350 O.2       1 RES1    0.0000
      3 O3         9.1518   -1.0064   15.9267 O.2       1 RES1    0.0000
      4 O4         8.2256   -0.0034   17.5922 O.2       1 RES1    0.0000
      5 N1         9.1278    2.6645   12.5815 N.3       1 RES1    0.0000
      6 N2        11.2716    0.8996   14.8027 N.pl3     1 RES1    0.0000
      7 N3         8.5103   -0.0861   16.4021 N.pl3     1 RES1    0.0000
      8 C1        10.3335    2.1091   12.8572 C.2       1 RES1    0.0000
      9 C2        10.1825    1.3529   14.0389 C.2       1 RES1    0.0000
     10 C3         8.8310    1.4527   14.4623 C.ar      1 RES1    0.0000
     11 C4         8.0129    0.9524   15.5004 C.ar      1 RES1    0.0000
     12 C5         6.7078    1.3345   15.6313 C.ar      1 RES1    0.0000
     13 C6         6.1332    2.1848   14.6916 C.ar      1 RES1    0.0000
     14 C7         6.8587    2.6668   13.6309 C.ar      1 RES1    0.0000
     15 C8         8.1930    2.3019   13.5367 C.ar      1 RES1    0.0000
     16 C9         8.7813    3.4677   11.4069 C.3       1 RES1    0.0000
     17 C10       11.5135    2.3512   12.0118 C.ar      1 RES1    0.0000
     18 C11       12.1858    1.2932   11.4083 C.ar      1 RES1    0.0000
     19 C12       13.2629    1.5422   10.5826 C.ar      1 RES1    0.0000
     20 C13       13.6916    2.8240   10.3477 C.ar      1 RES1    0.0000
     21 C14       13.0468    3.8786   10.9469 C.ar      1 RES1    0.0000
     22 C15       11.9628    3.6445   11.7811 C.ar      1 RES1    0.0000
     23 O5         4.9258    7.5574    9.9974 O.2       2 RES2    0.0000
     24 O6         6.1932    7.2247    8.2939 O.2       2 RES2    0.0000
     25 O7         7.5139    4.8379    8.5007 O.2       2 RES2    0.0000
     26 O8         8.7264    5.5550    6.8605 O.2       2 RES2    0.0000
     27 N4         8.5481    8.3790   11.8388 N.3       2 RES2    0.0000
     28 N5         6.0303    7.4151    9.4980 N.pl3     2 RES2    0.0000
     29 N6         8.4091    5.5367    8.0491 N.pl3     2 RES2    0.0000
     30 C16        7.2532    8.2448   11.4843 C.2       2 RES2    0.0000
     31 C17        7.1914    7.5035   10.3181 C.2       2 RES2    0.0000
     32 C18        8.5275    7.1260    9.9496 C.ar      2 RES2    0.0000
     33 C19        9.1724    6.3549    8.9818 C.ar      2 RES2    0.0000
     34 C20       10.5341    6.2298    8.9551 C.ar      2 RES2    0.0000
     35 C21       11.3077    6.8540    9.9130 C.ar      2 RES2    0.0000
     36 C22       10.7365    7.5781   10.9230 C.ar      2 RES2    0.0000
     37 C23        9.3490    7.7055   10.9329 C.ar      2 RES2    0.0000
     38 C24        9.0626    9.1008   12.9895 C.3       2 RES2    0.0000
     39 C25        6.1624    8.7898   12.3325 C.ar      2 RES2    0.0000
     40 C26        5.3494    7.9120   13.0429 C.ar      2 RES2    0.0000
     41 C27        4.3821    8.4077   13.8954 C.ar      2 RES2    0.0000
     42 C28        4.2020    9.7664   14.0234 C.ar      2 RES2    0.0000
     43 C29        4.9961   10.6350   13.3088 C.ar      2 RES2    0.0000
     44 C30        5.9806   10.1634   12.4648 C.ar      2 RES2    0.0000
@<TRIPOS>BOND
     1    1    6 2
     2    2    6 2
     3    3    7 2
     4    4    7 2
     5    5    8 1
     6    6    9 1
     7    7   11 1
     8    8    9 2
     9    9   10 1
    10   10   11 ar
    11   11   12 ar
    12   12   13 ar
    13   13   14 ar
    14   14   15 ar
    15   15    5 1
    16   16    5 1
    17   17    8 1
    18   18   17 ar
    19   19   18 ar
    20   20   19 ar
    21   21   20 ar
    22   22   17 ar
    23   23   28 2
    24   24   28 2
    25   25   29 2
    26   26   29 2
    27   27   30 1
    28   28   31 1
    29   29   33 1
    30   30   31 2
    31   31   32 1
    32   32   33 ar
    33   33   34 ar
    34   34   35 ar
    35   35   36 ar
    36   36   37 ar
    37   37   27 1
    38   38   27 1
    39   39   30 1
    40   40   39 ar
    41   41   40 ar
    42   42   41 ar
    43   43   42 ar
    44   44   39 ar
    45   10   15 ar
    46   21   22 ar
    47   32   37 ar
    48   43   44 ar
@<TRIPOS>SUBSTRUCTURE
     1 RES1 1
     2 RES2 23

@<TRIPOS>CRYSIN
  17.1510   11.4750   14.0670  90.0000  90.0000  90.0000  33 1

