# MOL2 file generated by ConQuest
# Please check atom types

@<TRIPOS>MOLECULE
WAKZAJ
    40    41     1
SMALL
NO_CHARGES
****
Generated from CSD

@<TRIPOS>ATOM
      1 C1        -1.8709   -0.8608   -0.9338 C.3       1 RES1    0.0000
      2 N1        -2.6362   -0.3519   -2.0742 N.3       1 RES1    0.0000
      3 O1        -3.2650   -1.5355   -2.6160 O.3       1 RES1    0.0000
      4 C2        -2.4245   -2.6766   -2.3958 C.3       1 RES1    0.0000
      5 C3        -1.5838   -2.3538   -1.1598 C.3       1 RES1    0.0000
      6 C4        -2.0461   -3.0411    0.1362 C.3       1 RES1    0.0000
      7 N2        -2.0808   -1.9234    1.1124 N.3       1 RES1    0.0000
      8 C5        -2.6994   -0.8310    0.3612 C.3       1 RES1    0.0000
      9 C6        -1.8488    0.3636   -3.1297 C.3       1 RES1    0.0000
     10 C7        -1.4829    1.7059   -2.5078 C.3       1 RES1    0.0000
     11 C8        -0.5853   -0.3636   -3.6048 C.3       1 RES1    0.0000
     12 C9        -2.7825    0.5945   -4.3040 C.3       1 RES1    0.0000
     13 C10       -2.8148   -2.3193    2.3379 C.3       1 RES1    0.0000
     14 C11       -2.0331   -3.3191    3.1229 C.2       1 RES1    0.0000
     15 C12       -2.4474   -4.5074    3.4387 C.2       1 RES1    0.0000
     16 C13       -2.6427    0.5082    1.0709 C.3       1 RES1    0.0000
     17 H1        -1.0514   -0.3715   -0.8305 H         1 RES1    0.0000
     18 H2        -2.9600   -3.4597   -2.2413 H         1 RES1    0.0000
     19 H3        -1.8628   -2.8345   -3.1577 H         1 RES1    0.0000
     20 H4        -0.6515   -2.5031   -1.3316 H         1 RES1    0.0000
     21 H5        -2.9052   -3.4573    0.0348 H         1 RES1    0.0000
     22 H6        -1.4086   -3.7039    0.4143 H         1 RES1    0.0000
     23 H7        -3.6122   -1.0524    0.1622 H         1 RES1    0.0000
     24 H8        -2.2769    2.1528   -2.2065 H         1 RES1    0.0000
     25 H9        -0.8970    1.5567   -1.7623 H         1 RES1    0.0000
     26 H10       -1.0362    2.2502   -3.1606 H         1 RES1    0.0000
     27 H11       -0.8203   -1.2064   -3.9988 H         1 RES1    0.0000
     28 H12       -0.1404    0.1814   -4.2576 H         1 RES1    0.0000
     29 H13        0.0006   -0.5121   -2.8593 H         1 RES1    0.0000
     30 H14       -3.5765    1.0414   -4.0027 H         1 RES1    0.0000
     31 H15       -2.3446    1.1341   -4.9664 H         1 RES1    0.0000
     32 H16       -3.0161   -0.2537   -4.6873 H         1 RES1    0.0000
     33 H17       -2.9840   -1.5410    2.8738 H         1 RES1    0.0000
     34 H18       -3.6594   -2.7041    2.0936 H         1 RES1    0.0000
     35 H19       -1.1925   -2.9358    3.3779 H         1 RES1    0.0000
     36 H20       -1.8994   -5.1452    3.9032 H         1 RES1    0.0000
     37 H21       -3.2953   -4.8907    3.2021 H         1 RES1    0.0000
     38 H22       -3.1695    0.4547    1.8724 H         1 RES1    0.0000
     39 H23       -1.7372    0.7289    1.2969 H         1 RES1    0.0000
     40 H24       -3.0039    1.1867    0.4963 H         1 RES1    0.0000
@<TRIPOS>BOND
     1    1    2 1
     2    2    3 1
     3    3    4 1
     4    4    5 1
     5    5    1 1
     6    6    5 1
     7    7    6 1
     8    8    1 1
     9    9    2 1
    10   10    9 1
    11   11    9 1
    12   12    9 1
    13   13    7 1
    14   14   13 1
    15   15   14 2
    16   16    8 1
    17   17    1 1
    18   18    4 1
    19   19    4 1
    20   20    5 1
    21   21    6 1
    22   22    6 1
    23   23    8 1
    24   24   10 1
    25   25   10 1
    26   26   10 1
    27   27   11 1
    28   28   11 1
    29   29   11 1
    30   30   12 1
    31   31   12 1
    32   32   12 1
    33   33   13 1
    34   34   13 1
    35   35   14 1
    36   36   15 1
    37   37   15 1
    38   38   16 1
    39   39   16 1
    40   40   16 1
    41    7    8 1
@<TRIPOS>SUBSTRUCTURE
     1 RES1 1

@<TRIPOS>CRYSIN
  17.8790    7.8540    9.8520  90.0000 101.4300  90.0000   5 1

