# MOL2 file generated by ConQuest
# Please check atom types

@<TRIPOS>MOLECULE
WALBEQ
    56    58     2
SMALL
NO_CHARGES
****
Generated from CSD

@<TRIPOS>ATOM
      1 O1        -0.3436    3.3006    3.9042 O.2       1 RES1    0.0000
      2 O2        -3.6402    2.5879    0.8563 O.3       1 RES1    0.0000
      3 N1        -0.2465    1.2239    2.8923 N.am      1 RES1    0.0000
      4 N2        -3.0108    1.3077    0.6554 N.2       1 RES1    0.0000
      5 C1        -0.7754    2.4595    3.1020 C.2       1 RES1    0.0000
      6 C2        -1.9101    2.5539    2.1915 C.2       1 RES1    0.0000
      7 C3        -2.9470    3.3016    1.7878 C.2       1 RES1    0.0000
      8 C4        -1.9961    1.3661    1.4732 C.2       1 RES1    0.0000
      9 C5        -0.8762    0.4295    1.8263 C.3       1 RES1    0.0000
     10 C6        -1.3129   -0.9598    2.2632 C.3       1 RES1    0.0000
     11 C7        -0.1923   -1.9059    2.6581 C.3       1 RES1    0.0000
     12 C8         0.7781   -2.1520    1.5117 C.3       1 RES1    0.0000
     13 C9        -0.7973   -3.2338    3.1142 C.3       1 RES1    0.0000
     14 C10       -3.4888    4.6560    2.1146 C.3       1 RES1    0.0000
     15 H1         0.4294    0.9195    3.3659 H         1 RES1    0.0000
     16 H2        -0.2486    0.3542    1.0521 H         1 RES1    0.0000
     17 H3        -1.9278   -0.8665    3.0339 H         1 RES1    0.0000
     18 H4        -1.8245   -1.3735    1.5239 H         1 RES1    0.0000
     19 H5         0.3117   -1.5039    3.4218 H         1 RES1    0.0000
     20 H6         1.1953   -1.3045    1.2495 H         1 RES1    0.0000
     21 H7         0.2925   -2.5263    0.7480 H         1 RES1    0.0000
     22 H8         1.4707   -2.7820    1.8000 H         1 RES1    0.0000
     23 H9        -1.4098   -3.0726    3.8622 H         1 RES1    0.0000
     24 H10       -0.0808   -3.8373    3.4026 H         1 RES1    0.0000
     25 H11       -1.2889   -3.6410    2.3715 H         1 RES1    0.0000
     26 H12       -4.4637    4.6051    2.2002 H         1 RES1    0.0000
     27 H13       -3.2557    5.2818    1.3963 H         1 RES1    0.0000
     28 H14       -3.1013    4.9679    2.9587 H         1 RES1    0.0000
     29 O3         1.8796    0.4338    4.6015 O.2       2 RES2    0.0000
     30 O4         5.2686    1.0850    7.5479 O.3       2 RES2    0.0000
     31 N3         2.0832    2.6133    5.3337 N.am      2 RES2    0.0000
     32 N4         4.8166    2.4510    7.5829 N.2       2 RES2    0.0000
     33 C11        2.4334    1.3088    5.2690 C.2       2 RES2    0.0000
     34 C12        3.5858    1.1964    6.1656 C.2       2 RES2    0.0000
     35 C13        4.5104    0.3670    6.6881 C.2       2 RES2    0.0000
     36 C14        3.8370    2.4468    6.7213 C.2       2 RES2    0.0000
     37 C15        2.9131    3.4904    6.1761 C.3       2 RES2    0.0000
     38 C16        2.1190    4.2732    7.2124 C.3       2 RES2    0.0000
     39 C17        1.1977    5.3338    6.6392 C.3       2 RES2    0.0000
     40 C18        0.2675    5.8598    7.7489 C.3       2 RES2    0.0000
     41 C19        1.9882    6.4972    5.9978 C.3       2 RES2    0.0000
     42 C20        4.8274   -1.0892    6.5710 C.3       2 RES2    0.0000
     43 H15        1.3897    2.9251    4.8916 H         2 RES2    0.0000
     44 H16        3.4261    4.1247    5.5976 H         2 RES2    0.0000
     45 H17        1.5753    3.6357    7.7402 H         2 RES2    0.0000
     46 H18        2.7546    4.7091    7.8328 H         2 RES2    0.0000
     47 H19        0.6336    4.9106    5.9296 H         2 RES2    0.0000
     48 H20       -0.2725    5.1206    8.1002 H         2 RES2    0.0000
     49 H21       -0.3234    6.5503    7.3819 H         2 RES2    0.0000
     50 H22        0.8065    6.2427    8.4724 H         2 RES2    0.0000
     51 H23        2.5938    6.1430    5.3127 H         2 RES2    0.0000
     52 H24        2.5095    6.9575    6.6881 H         2 RES2    0.0000
     53 H25        1.3630    7.1283    5.5854 H         2 RES2    0.0000
     54 H26        4.1913   -1.5135    5.9576 H         2 RES2    0.0000
     55 H27        4.7618   -1.5103    7.4536 H         2 RES2    0.0000
     56 H28        5.7378   -1.1985    6.2232 H         2 RES2    0.0000
@<TRIPOS>BOND
     1    1    5 2
     2    2    4 1
     3    3    5 1
     4    4    8 2
     5    5    6 1
     6    6    7 2
     7    7    2 1
     8    8    6 1
     9    9    3 1
    10   10    9 1
    11   11   10 1
    12   12   11 1
    13   13   11 1
    14   14    7 1
    15   15    3 1
    16   16    9 1
    17   17   10 1
    18   18   10 1
    19   19   11 1
    20   20   12 1
    21   21   12 1
    22   22   12 1
    23   23   13 1
    24   24   13 1
    25   25   13 1
    26   26   14 1
    27   27   14 1
    28   28   14 1
    29   29   33 2
    30   30   32 1
    31   31   33 1
    32   32   36 2
    33   33   34 1
    34   34   35 2
    35   35   30 1
    36   36   34 1
    37   37   31 1
    38   38   37 1
    39   39   38 1
    40   40   39 1
    41   41   39 1
    42   42   35 1
    43   43   31 1
    44   44   37 1
    45   45   38 1
    46   46   38 1
    47   47   39 1
    48   48   40 1
    49   49   40 1
    50   50   40 1
    51   51   41 1
    52   52   41 1
    53   53   41 1
    54   54   42 1
    55   55   42 1
    56   56   42 1
    57    8    9 1
    58   36   37 1
@<TRIPOS>SUBSTRUCTURE
     1 RES1 1
     2 RES2 29

@<TRIPOS>CRYSIN
   5.5690   10.6060   17.6800  90.0000  98.7100  90.0000   4 1

