# MOL2 file generated by ConQuest
# Please check atom types

@<TRIPOS>MOLECULE
WALFUM
    46    46     2
SMALL
NO_CHARGES
****
Generated from CSD

@<TRIPOS>ATOM
      1 O1        -1.8885   12.4085   -2.7675 O.2       1 RES1    0.0000
      2 O2        -2.6146   13.1274   -0.8714 O.2       1 RES1    0.0000
      3 O3        -1.3633   10.7354    3.1296 O.2       1 RES1    0.0000
      4 O4         0.4082    9.5313    3.1150 O.2       1 RES1    0.0000
      5 O5         1.4881    8.8095    0.8417 O.3       1 RES1    0.0000
      6 O6         1.5438    9.2605   -1.6978 O.3       1 RES1    0.0000
      7 N1        -0.1534   10.8242   -1.6068 N.ar      1 RES1    0.0000
      8 N2        -1.8981   12.4113   -1.5471 N.pl3     1 RES1    0.0000
      9 N3        -0.4314   10.2253    2.5488 N.pl3     1 RES1    0.0000
     10 C1        -1.0126   11.4796   -0.8319 C.ar      1 RES1    0.0000
     11 C2        -1.1620   11.3463    0.5033 C.ar      1 RES1    0.0000
     12 C3        -0.3151   10.4234    1.1182 C.ar      1 RES1    0.0000
     13 C4         0.6151    9.7084    0.3947 C.ar      1 RES1    0.0000
     14 C5         0.6450    9.9690   -1.0139 C.ar      1 RES1    0.0000
     15 C6         1.8286    9.6846   -3.0573 C.3       1 RES1    0.0000
     16 C7         3.0941    9.0239   -3.4455 C.3       1 RES1    0.0000
     17 O7         7.1490    3.9758    3.7731 O.2       2 RES2    0.0000
     18 O8         6.4168    3.4805    5.7070 O.2       2 RES2    0.0000
     19 O9         2.8877    6.2259    7.5674 O.2       2 RES2    0.0000
     20 O10        1.8190    7.5783    6.2689 O.2       2 RES2    0.0000
     21 O11        2.2003    7.5417    3.7174 O.3       2 RES2    0.0000
     22 O12        3.7124    6.6705    1.8136 O.3       2 RES2    0.0000
     23 N4         4.9818    5.3677    3.2204 N.ar      2 RES2    0.0000
     24 N5         6.3266    4.0563    4.6581 N.pl3     2 RES2    0.0000
     25 N6         2.6434    6.6808    6.4724 N.pl3     2 RES2    0.0000
     26 C8         5.1650    4.9297    4.4717 C.ar      2 RES2    0.0000
     27 C9         4.4143    5.2583    5.5508 C.ar      2 RES2    0.0000
     28 C10        3.3927    6.1732    5.3205 C.ar      2 RES2    0.0000
     29 C11        3.1393    6.6516    4.0625 C.ar      2 RES2    0.0000
     30 C12        3.9908    6.1872    3.0225 C.ar      2 RES2    0.0000
     31 C13        4.6327    6.3764    0.7302 C.3       2 RES2    0.0000
     32 C14        4.2422    7.2441   -0.4124 C.3       2 RES2    0.0000
     33 H1        -1.7667   11.8581    0.9812 H         1 RES1    0.0000
     34 H2         1.4033    8.7964    1.7724 H         1 RES1    0.0000
     35 H3         1.9374   10.6462   -3.0518 H         1 RES1    0.0000
     36 H4         1.0579    9.4901   -3.6256 H         1 RES1    0.0000
     37 H5         3.2769    9.2343   -4.2613 H         1 RES1    0.0000
     38 H6         3.8921    9.3146   -2.8137 H         1 RES1    0.0000
     39 H7         3.0586    7.9650   -3.4071 H         1 RES1    0.0000
     40 H8         4.5766    4.9000    6.3575 H         2 RES2    0.0000
     41 H9         1.7958    7.7190    4.5379 H         2 RES2    0.0000
     42 H10        4.5518    5.4133    0.5659 H         2 RES2    0.0000
     43 H11        5.5046    6.5071    1.0737 H         2 RES2    0.0000
     44 H12        4.9190    7.0385   -1.1259 H         2 RES2    0.0000
     45 H13        3.3009    7.0499   -0.6810 H         2 RES2    0.0000
     46 H14        4.2396    8.1700   -0.1516 H         2 RES2    0.0000
@<TRIPOS>BOND
     1    1    8 2
     2    2    8 2
     3    3    9 2
     4    4    9 2
     5    5   13 1
     6    6   14 1
     7    7   10 ar
     8    8   10 1
     9    9   12 1
    10   10   11 ar
    11   11   12 ar
    12   12   13 ar
    13   13   14 ar
    14   14    7 ar
    15   15    6 1
    16   16   15 1
    17   17   24 2
    18   18   24 2
    19   19   25 2
    20   20   25 2
    21   21   29 1
    22   22   30 1
    23   23   26 ar
    24   24   26 1
    25   25   28 1
    26   26   27 ar
    27   27   28 ar
    28   28   29 ar
    29   29   30 ar
    30   30   23 ar
    31   31   22 1
    32   32   31 1
    33   33   11 1
    34   34    5 1
    35   35   15 1
    36   36   15 1
    37   37   16 1
    38   38   16 1
    39   39   16 1
    40   40   27 1
    41   41   21 1
    42   42   31 1
    43   43   31 1
    44   44   32 1
    45   45   32 1
    46   46   32 1
@<TRIPOS>SUBSTRUCTURE
     1 RES1 1
     2 RES2 17

@<TRIPOS>CRYSIN
  11.7100   16.3990   10.7380  90.0000 113.5800  90.0000  14 1

