# MOL2 file generated by ConQuest
# Please check atom types

@<TRIPOS>MOLECULE
WALLUS
    37    39     1
SMALL
NO_CHARGES
****
Generated from CSD

@<TRIPOS>ATOM
      1 N1         2.8760    1.8553    7.7818 N.pl3     1 RES1    0.0000
      2 H1         3.3150    2.1249    8.5066 H         1 RES1    0.0000
      3 N2        -1.3102    2.6293    9.4719 N.ar      1 RES1    0.0000
      4 C1         0.9889    2.7843    8.7038 C.2       1 RES1    0.0000
      5 N3         1.5500    2.1388    7.7188 N.2       1 RES1    0.0000
      6 N4         2.9598    3.0670   10.0720 N.ar      1 RES1    0.0000
      7 C2        -0.4731    3.0107    8.4886 C.ar      1 RES1    0.0000
      8 N5         5.7652    1.3490    7.6750 N.pl3     1 RES1    0.0000
      9 O1         6.9738    1.2017    7.4724 O.2       1 RES1    0.0000
     10 C3         2.6544    0.6864    5.6709 C.ar      1 RES1    0.0000
     11 H2         1.7169    0.8461    5.6783 H         1 RES1    0.0000
     12 C4         3.4456    1.1600    6.7461 C.ar      1 RES1    0.0000
     13 C5         4.8326    0.8862    6.6666 C.ar      1 RES1    0.0000
     14 C6         5.3892    0.2025    5.5758 C.ar      1 RES1    0.0000
     15 H3         6.3255    0.0470    5.5461 H         1 RES1    0.0000
     16 O2         5.3394    1.8873    8.6984 O.2       1 RES1    0.0000
     17 C7         4.5886   -0.2457    4.5489 C.ar      1 RES1    0.0000
     18 H4         4.9622   -0.7111    3.8101 H         1 RES1    0.0000
     19 C8         3.2129   -0.0008    4.6161 C.ar      1 RES1    0.0000
     20 H5         2.6503   -0.3155    3.9184 H         1 RES1    0.0000
     21 C9        -0.9237    3.5826    7.2966 C.ar      1 RES1    0.0000
     22 H6        -0.3066    3.8255    6.6167 H         1 RES1    0.0000
     23 C10        1.6387    3.3076    9.9326 C.ar      1 RES1    0.0000
     24 C11       -2.6241    2.8306    9.2773 C.ar      1 RES1    0.0000
     25 H7        -3.2252    2.5603    9.9608 H         1 RES1    0.0000
     26 C12        0.9300    4.0484   10.8865 C.ar      1 RES1    0.0000
     27 H8         0.0050    4.2312   10.7671 H         1 RES1    0.0000
     28 C13       -3.1514    3.4106    8.1336 C.ar      1 RES1    0.0000
     29 H9        -4.0886    3.5448    8.0471 H         1 RES1    0.0000
     30 C14        3.5916    3.5251   11.1563 C.ar      1 RES1    0.0000
     31 H10        4.5212    3.3485   11.2460 H         1 RES1    0.0000
     32 C15        1.6043    4.5104   12.0085 C.ar      1 RES1    0.0000
     33 H11        1.1400    5.0064   12.6721 H         1 RES1    0.0000
     34 C16        2.9549    4.2471   12.1589 C.ar      1 RES1    0.0000
     35 H12        3.4313    4.5502   12.9235 H         1 RES1    0.0000
     36 C17       -2.2844    3.7912    7.1197 C.ar      1 RES1    0.0000
     37 H13       -2.6147    4.1865    6.3220 H         1 RES1    0.0000
@<TRIPOS>BOND
     1    1    2 1
     2    3    7 ar
     3    4    5 2
     4    5    1 1
     5    6   23 ar
     6    7    4 1
     7    8    9 2
     8   10   11 1
     9   12    1 1
    10   13    8 1
    11   14   13 ar
    12   15   14 1
    13   16    8 2
    14   17   14 ar
    15   18   17 1
    16   19   10 ar
    17   20   19 1
    18   21    7 ar
    19   22   21 1
    20   23    4 1
    21   24    3 ar
    22   25   24 1
    23   26   23 ar
    24   27   26 1
    25   28   24 ar
    26   29   28 1
    27   30    6 ar
    28   31   30 1
    29   32   26 ar
    30   33   32 1
    31   34   30 ar
    32   35   34 1
    33   36   21 ar
    34   37   36 1
    35   10   12 ar
    36   12   13 ar
    37   17   19 ar
    38   28   36 ar
    39   32   34 ar
@<TRIPOS>SUBSTRUCTURE
     1 RES1 1

@<TRIPOS>CRYSIN
  17.1590    3.8564   22.3070  90.0000 103.6950  90.0000  14 1

