# MOL2 file generated by ConQuest
# Please check atom types

@<TRIPOS>MOLECULE
WALPEH
    40    41     1
SMALL
NO_CHARGES
****
Generated from CSD

@<TRIPOS>ATOM
      1 O1         3.7427   -3.7763   -5.0004 O.2       1 RES1    0.0000
      2 O2         5.2536   -5.0562   -0.9149 O.2       1 RES1    0.0000
      3 O3         3.3166   -3.5726   -2.2168 O.3       1 RES1    0.0000
      4 O4         4.8296   -1.8844   -2.2296 O.2       1 RES1    0.0000
      5 N1         4.2874   -4.3343   -2.8519 N.am      1 RES1    0.0000
      6 C1         4.4191   -4.3862   -4.2193 C.2       1 RES1    0.0000
      7 C2         5.5600   -5.3329   -4.4707 C.3       1 RES1    0.0000
      8 H1         6.2898   -4.8742   -4.9155 H         1 RES1    0.0000
      9 H2         5.2707   -6.0713   -5.0295 H         1 RES1    0.0000
     10 C3         6.0049   -5.8420   -3.1084 C.3       1 RES1    0.0000
     11 H3         5.8319   -6.7925   -3.0264 H         1 RES1    0.0000
     12 H4         6.9531   -5.6848   -2.9789 H         1 RES1    0.0000
     13 C4         5.1996   -5.0697   -2.1050 C.2       1 RES1    0.0000
     14 C5         3.7875   -2.2935   -1.8508 C.2       1 RES1    0.0000
     15 C6         2.7667   -1.6694   -0.9655 C.3       1 RES1    0.0000
     16 H5         2.6450   -2.2288   -0.1823 H         1 RES1    0.0000
     17 H6         1.9205   -1.6340   -1.4373 H         1 RES1    0.0000
     18 C7         3.1381   -0.2707   -0.5170 C.3       1 RES1    0.0000
     19 H7         3.1496    0.3196   -1.2873 H         1 RES1    0.0000
     20 H8         4.0304   -0.2827   -0.1367 H         1 RES1    0.0000
     21 O1B        1.5545    3.7763    5.0004 O.2       1 RES1    0.0000
     22 O2B        0.0436    5.0562    0.9149 O.2       1 RES1    0.0000
     23 O3B        1.9806    3.5726    2.2168 O.3       1 RES1    0.0000
     24 O4B        0.4676    1.8844    2.2296 O.2       1 RES1    0.0000
     25 N1B        1.0098    4.3343    2.8519 N.am      1 RES1    0.0000
     26 C1B        0.8781    4.3862    4.2193 C.2       1 RES1    0.0000
     27 C2B       -0.2628    5.3329    4.4707 C.3       1 RES1    0.0000
     28 H1B       -0.9926    4.8742    4.9155 H         1 RES1    0.0000
     29 H2B        0.0265    6.0713    5.0295 H         1 RES1    0.0000
     30 C3B       -0.7077    5.8420    3.1084 C.3       1 RES1    0.0000
     31 H3B       -0.5347    6.7925    3.0264 H         1 RES1    0.0000
     32 H4B       -1.6559    5.6848    2.9789 H         1 RES1    0.0000
     33 C4B        0.0976    5.0697    2.1050 C.2       1 RES1    0.0000
     34 C5B        1.5097    2.2935    1.8508 C.2       1 RES1    0.0000
     35 C6B        2.5305    1.6694    0.9655 C.3       1 RES1    0.0000
     36 H5B        2.6522    2.2288    0.1823 H         1 RES1    0.0000
     37 H6B        3.3767    1.6340    1.4373 H         1 RES1    0.0000
     38 C7B        2.1591    0.2707    0.5170 C.3       1 RES1    0.0000
     39 H7B        2.1476   -0.3196    1.2873 H         1 RES1    0.0000
     40 H8B        1.2668    0.2827    0.1367 H         1 RES1    0.0000
@<TRIPOS>BOND
     1    1    6 2
     2    2   13 2
     3    3    5 1
     4    4   14 2
     5    5    6 1
     6    6    7 1
     7    7    8 1
     8    9    7 1
     9   10    7 1
    10   11   10 1
    11   12   10 1
    12   13    5 1
    13   14    3 1
    14   15   14 1
    15   16   15 1
    16   17   15 1
    17   18   15 1
    18   19   18 1
    19   20   18 1
    20   21   26 2
    21   22   33 2
    22   23   25 1
    23   24   34 2
    24   25   26 1
    25   26   27 1
    26   27   28 1
    27   29   27 1
    28   30   27 1
    29   31   30 1
    30   32   30 1
    31   33   25 1
    32   34   23 1
    33   35   34 1
    34   36   35 1
    35   37   35 1
    36   38   18 1
    37   39   38 1
    38   40   38 1
    39   10   13 1
    40   30   33 1
    41   35   38 1
@<TRIPOS>SUBSTRUCTURE
     1 RES1 1

@<TRIPOS>CRYSIN
   5.2972    7.5196   19.2660  90.0000  99.7760  90.0000  14 1

