# MOL2 file generated by ConQuest
# Please check atom types

@<TRIPOS>MOLECULE
WALWEO
    52    56     1
SMALL
NO_CHARGES
****
Generated from CSD

@<TRIPOS>ATOM
      1 O1         6.5323    4.6147   10.7829 O.2       1 RES1    0.0000
      2 O2         4.1043    8.4128   10.2404 O.2       1 RES1    0.0000
      3 O3         9.7546    3.3195    7.5236 O.2       1 RES1    0.0000
      4 O4        10.1462    4.3705    5.6879 O.2       1 RES1    0.0000
      5 N1         5.2843    6.4818   10.4919 N.am      1 RES1    0.0000
      6 N2         9.5388    4.2638    6.7635 N.pl3     1 RES1    0.0000
      7 N3         8.3674    6.1179    4.8992 N.3       1 RES1    0.0000
      8 H1         9.1587    5.7873    4.7007 H         1 RES1    0.0000
      9 C1         6.2807    5.5929   10.0935 C.2       1 RES1    0.0000
     10 C2         6.9668    5.8824    8.8235 C.ar      1 RES1    0.0000
     11 C3         6.5864    6.9878    8.0335 C.ar      1 RES1    0.0000
     12 C4         5.6529    7.9193    8.5312 C.ar      1 RES1    0.0000
     13 C5         4.9516    7.6491    9.7998 C.2       1 RES1    0.0000
     14 C6         7.9791    5.0645    8.4047 C.ar      1 RES1    0.0000
     15 H2         8.2973    4.3785    8.9799 H         1 RES1    0.0000
     16 C7         8.5498    5.2244    7.1456 C.ar      1 RES1    0.0000
     17 C8         8.0687    6.1634    6.2277 C.ar      1 RES1    0.0000
     18 C9         7.1744    7.1893    6.7512 C.ar      1 RES1    0.0000
     19 C10        6.9253    8.4172    6.1013 C.ar      1 RES1    0.0000
     20 H3         7.3674    8.6113    5.2827 H         1 RES1    0.0000
     21 C11        6.0500    9.3403    6.6384 C.ar      1 RES1    0.0000
     22 H4         5.8947   10.1642    6.1910 H         1 RES1    0.0000
     23 C12        5.3923    9.0623    7.8377 C.ar      1 RES1    0.0000
     24 H5         4.7533    9.6784    8.1763 H         1 RES1    0.0000
     25 C13        4.6359    6.2067   11.7960 C.3       1 RES1    0.0000
     26 H6         4.2348    7.0490   12.1277 H         1 RES1    0.0000
     27 H7         5.3382    5.9403   12.4418 H         1 RES1    0.0000
     28 C14        3.5722    5.1463   11.7905 C.ar      1 RES1    0.0000
     29 C15        3.0179    4.5912   10.6497 C.ar      1 RES1    0.0000
     30 H8         3.3128    4.8911    9.7971 H         1 RES1    0.0000
     31 C16        2.0424    3.6108   10.7190 C.ar      1 RES1    0.0000
     32 H9         1.6948    3.2247    9.9236 H         1 RES1    0.0000
     33 C17        1.5844    3.2021   11.9374 C.ar      1 RES1    0.0000
     34 H10        0.9084    2.5364   11.9890 H         1 RES1    0.0000
     35 C18        2.0980    3.7526   13.0973 C.ar      1 RES1    0.0000
     36 H11        1.7725    3.4713   13.9444 H         1 RES1    0.0000
     37 C19        3.0897    4.7155   13.0197 C.ar      1 RES1    0.0000
     38 H12        3.4451    5.0873   13.8193 H         1 RES1    0.0000
     39 C20        7.5574    6.5427    3.7584 C.3       1 RES1    0.0000
     40 H13        6.7475    7.0043    4.0929 H         1 RES1    0.0000
     41 H14        7.2632    5.7424    3.2566 H         1 RES1    0.0000
     42 C21        8.3000    7.4696    2.8174 C.ar      1 RES1    0.0000
     43 C22        9.5906    7.1855    2.4285 C.ar      1 RES1    0.0000
     44 H15       10.0397    6.4411    2.8120 H         1 RES1    0.0000
     45 C23       10.2349    7.9523    1.5066 C.ar      1 RES1    0.0000
     46 H16       11.1195    7.7323    1.2401 H         1 RES1    0.0000
     47 C24        9.5994    9.0547    0.9546 C.ar      1 RES1    0.0000
     48 H17       10.0497    9.5900    0.3114 H         1 RES1    0.0000
     49 C25        8.3261    9.3692    1.3353 C.ar      1 RES1    0.0000
     50 H18        7.8872   10.1244    0.9614 H         1 RES1    0.0000
     51 C26        7.6807    8.5811    2.2694 C.ar      1 RES1    0.0000
     52 H19        6.7988    8.8052    2.5414 H         1 RES1    0.0000
@<TRIPOS>BOND
     1    1    9 2
     2    2   13 2
     3    3    6 2
     4    4    6 2
     5    5    9 1
     6    6   16 1
     7    7    8 1
     8    9   10 1
     9   10   11 ar
    10   11   12 ar
    11   12   13 1
    12   13    5 1
    13   14   10 ar
    14   15   14 1
    15   16   14 ar
    16   17    7 1
    17   18   11 ar
    18   19   18 ar
    19   20   19 1
    20   21   19 ar
    21   22   21 1
    22   23   12 ar
    23   24   23 1
    24   25    5 1
    25   26   25 1
    26   27   25 1
    27   28   25 1
    28   29   28 ar
    29   30   29 1
    30   31   29 ar
    31   32   31 1
    32   33   31 ar
    33   34   33 1
    34   35   33 ar
    35   36   35 1
    36   37   28 ar
    37   38   37 1
    38   39    7 1
    39   40   39 1
    40   41   39 1
    41   42   39 1
    42   43   42 ar
    43   44   43 1
    44   45   43 ar
    45   46   45 1
    46   47   45 ar
    47   48   47 1
    48   49   47 ar
    49   50   49 1
    50   51   42 ar
    51   52   51 1
    52   16   17 ar
    53   17   18 ar
    54   21   23 ar
    55   35   37 ar
    56   49   51 ar
@<TRIPOS>SUBSTRUCTURE
     1 RES1 1

@<TRIPOS>CRYSIN
   8.8032    8.8220   13.9940  86.9280  76.3760  72.2840   2 1

