# MOL2 file generated by ConQuest
# Please check atom types

@<TRIPOS>MOLECULE
WALXAI
    43    47     1
SMALL
NO_CHARGES
****
Generated from CSD

@<TRIPOS>ATOM
      1 N1         7.5585    2.3222    5.2646 N.3       1 RES1    0.0000
      2 C1         7.8677    2.8481    3.9413 C.3       1 RES1    0.0000
      3 C2         6.5593    3.1402    4.5882 C.3       1 RES1    0.0000
      4 C3         6.2348    4.4729    5.2028 C.ar      1 RES1    0.0000
      5 C4         5.9942    5.5963    4.4164 C.ar      1 RES1    0.0000
      6 C5         5.7148    6.8101    4.9872 C.ar      1 RES1    0.0000
      7 C6         5.6651    6.9421    6.3553 C.ar      1 RES1    0.0000
      8 C7         5.8795    5.8375    7.1444 C.ar      1 RES1    0.0000
      9 C8         6.1577    4.6161    6.5798 C.ar      1 RES1    0.0000
     10 N2         7.6860    0.7068    2.7817 N.2       1 RES1    0.0000
     11 O1         7.6873    0.2243    1.4405 O.3       1 RES1    0.0000
     12 C9         8.1988    1.2798    0.5771 C.3       1 RES1    0.0000
     13 C10        7.9792    2.5503    1.3931 C.3       1 RES1    0.0000
     14 C11        9.0847    3.6020    1.3349 C.3       1 RES1    0.0000
     15 C12        8.9611    4.5822    2.4829 C.3       1 RES1    0.0000
     16 C13        8.9447    3.8999    3.8375 C.3       1 RES1    0.0000
     17 C14        7.8289    1.9697    2.7495 C.2       1 RES1    0.0000
     18 C15        7.5267    1.2233   -0.7605 C.ar      1 RES1    0.0000
     19 C16        6.1466    1.1931   -0.8303 C.ar      1 RES1    0.0000
     20 C17        5.5020    1.2063   -2.0650 C.ar      1 RES1    0.0000
     21 C18        6.2313    1.2384   -3.2112 C.ar      1 RES1    0.0000
     22 C19        7.6036    1.2535   -3.1530 C.ar      1 RES1    0.0000
     23 C20        8.2304    1.2403   -1.9308 C.ar      1 RES1    0.0000
     24 H1         7.3537    1.5645    5.1447 H         1 RES1    0.0000
     25 H2         5.6525    3.0535    4.2947 H         1 RES1    0.0000
     26 H3         6.0282    5.5228    3.4626 H         1 RES1    0.0000
     27 H4         5.5490    7.5773    4.4289 H         1 RES1    0.0000
     28 H5         5.4803    7.8035    6.7552 H         1 RES1    0.0000
     29 H6         5.8326    5.9186    8.0973 H         1 RES1    0.0000
     30 H7         6.3031    3.8640    7.1489 H         1 RES1    0.0000
     31 H8         9.1295    1.2063    0.3489 H         1 RES1    0.0000
     32 H9         7.2414    3.0724    1.0647 H         1 RES1    0.0000
     33 H10        9.0173    4.0714    0.5010 H         1 RES1    0.0000
     34 H11        9.9358    3.1666    1.3868 H         1 RES1    0.0000
     35 H12        9.7053    5.1835    2.4516 H         1 RES1    0.0000
     36 H13        8.1424    5.0704    2.3800 H         1 RES1    0.0000
     37 H14        8.7965    4.5615    4.5184 H         1 RES1    0.0000
     38 H15        9.7941    3.4871    3.9815 H         1 RES1    0.0000
     39 H16        5.6245    1.1686   -0.0179 H         1 RES1    0.0000
     40 H17        4.5425    1.1875   -2.1026 H         1 RES1    0.0000
     41 H18        5.7914    1.2440   -4.0621 H         1 RES1    0.0000
     42 H19        8.1258    1.2629   -3.9636 H         1 RES1    0.0000
     43 H20        9.1878    1.2440   -1.8968 H         1 RES1    0.0000
@<TRIPOS>BOND
     1    1    2 1
     2    2    3 1
     3    3    1 1
     4    4    3 1
     5    5    4 ar
     6    6    5 ar
     7    7    6 ar
     8    8    7 ar
     9    9    4 ar
    10   10   11 1
    11   11   12 1
    12   12   13 1
    13   13   14 1
    14   14   15 1
    15   15   16 1
    16   16    2 1
    17   17    2 1
    18   18   12 1
    19   19   18 ar
    20   20   19 ar
    21   21   20 ar
    22   22   21 ar
    23   23   18 ar
    24   24    1 1
    25   25    3 1
    26   26    5 1
    27   27    6 1
    28   28    7 1
    29   29    8 1
    30   30    9 1
    31   31   12 1
    32   32   13 1
    33   33   14 1
    34   34   14 1
    35   35   15 1
    36   36   15 1
    37   37   16 1
    38   38   16 1
    39   39   19 1
    40   40   20 1
    41   41   21 1
    42   42   22 1
    43   43   23 1
    44    8    9 ar
    45   10   17 2
    46   13   17 1
    47   22   23 ar
@<TRIPOS>SUBSTRUCTURE
     1 RES1 1

@<TRIPOS>CRYSIN
   9.5670   18.8490    9.9480  90.0000 115.9200  90.0000 231 1

