# MOL2 file generated by ConQuest
# Please check atom types

@<TRIPOS>MOLECULE
WALXEN
    42    46     1
SMALL
NO_CHARGES
****
Generated from CSD

@<TRIPOS>ATOM
      1 O1        10.5562    1.6254    6.6156 O.3       1 RES1    0.0000
      2 N1         9.1483    1.4444    6.5982 N.2       1 RES1    0.0000
      3 C1         8.6768    1.6657    7.7617 C.2       1 RES1    0.0000
      4 C2         9.7192    1.9885    8.8074 C.3       1 RES1    0.0000
      5 H1         9.5018    2.8041    9.3886 H         1 RES1    0.0000
      6 C3         9.9580    0.7842    9.7310 C.3       1 RES1    0.0000
      7 H2         9.1935    0.4329    9.8684 H         1 RES1    0.0000
      8 H3        10.3759    1.1610   10.5227 H         1 RES1    0.0000
      9 C4        10.9150   -0.2184    9.1040 C.3       1 RES1    0.0000
     10 H4        10.9575   -1.0134    9.6830 H         1 RES1    0.0000
     11 H5        10.5990   -0.6100    8.2437 H         1 RES1    0.0000
     12 C5        12.2926    0.4093    8.9132 C.3       1 RES1    0.0000
     13 H6        12.9288   -0.1869    8.4508 H         1 RES1    0.0000
     14 O2        12.8645    0.6031   10.2435 O.3       1 RES1    0.0000
     15 N2        13.1779    1.9580   10.4431 N.2       1 RES1    0.0000
     16 C6        12.8626    2.6329    9.3995 C.2       1 RES1    0.0000
     17 C7        12.2719    1.8094    8.2851 C.3       1 RES1    0.0000
     18 H7        12.7827    1.8596    7.4586 H         1 RES1    0.0000
     19 C8        10.8912    2.2974    7.8675 C.3       1 RES1    0.0000
     20 H8        10.9564    3.2764    7.6766 H         1 RES1    0.0000
     21 C9         7.2360    1.5339    8.0474 C.ar      1 RES1    0.0000
     22 C10        6.3835    0.9199    7.1118 C.ar      1 RES1    0.0000
     23 H9         6.8548    0.4329    6.2373 H         1 RES1    0.0000
     24 C11        5.0330    0.8176    7.3964 C.ar      1 RES1    0.0000
     25 H10        4.3610    0.3444    6.7389 H         1 RES1    0.0000
     26 C12        4.5077    1.3037    8.5675 C.ar      1 RES1    0.0000
     27 H11        3.5176    1.1905    8.8543 H         1 RES1    0.0000
     28 C13        5.3494    1.9058    9.5064 C.ar      1 RES1    0.0000
     29 H12        4.9782    2.3023   10.2392 H         1 RES1    0.0000
     30 C14        6.7115    2.0199    9.2403 C.ar      1 RES1    0.0000
     31 H13        7.2854    2.4598    9.8248 H         1 RES1    0.0000
     32 C15       13.1619    4.0773    9.3210 C.ar      1 RES1    0.0000
     33 C16       13.0281    4.8821   10.4442 C.ar      1 RES1    0.0000
     34 H14       12.3954    4.5653   11.2642 H         1 RES1    0.0000
     35 C17       13.3787    6.2182   10.3831 C.ar      1 RES1    0.0000
     36 H15       13.3962    6.7200   11.0570 H         1 RES1    0.0000
     37 C18       13.8644    6.7574    9.2065 C.ar      1 RES1    0.0000
     38 H16       14.1843    7.6547    9.1923 H         1 RES1    0.0000
     39 C19       13.9745    5.9634    8.0659 C.ar      1 RES1    0.0000
     40 H17       14.3038    6.3462    7.2296 H         1 RES1    0.0000
     41 C20       13.6072    4.6204    8.1226 C.ar      1 RES1    0.0000
     42 H18       13.7711    3.9356    7.1750 H         1 RES1    0.0000
@<TRIPOS>BOND
     1    1    2 1
     2    2    3 2
     3    3    4 1
     4    4    5 1
     5    6    4 1
     6    7    6 1
     7    8    6 1
     8    9    6 1
     9   10    9 1
    10   11    9 1
    11   12    9 1
    12   13   12 1
    13   14   12 1
    14   15   14 1
    15   16   15 2
    16   17   12 1
    17   18   17 1
    18   19    1 1
    19   20   19 1
    20   21    3 1
    21   22   21 ar
    22   23   22 1
    23   24   22 ar
    24   25   24 1
    25   26   24 ar
    26   27   26 1
    27   28   26 ar
    28   29   28 1
    29   30   21 ar
    30   31   30 1
    31   32   16 1
    32   33   32 ar
    33   34   33 1
    34   35   33 ar
    35   36   35 1
    36   37   35 ar
    37   38   37 1
    38   39   37 ar
    39   40   39 1
    40   41   32 ar
    41   42   41 1
    42    4   19 1
    43   16   17 1
    44   17   19 1
    45   28   30 ar
    46   39   41 ar
@<TRIPOS>SUBSTRUCTURE
     1 RES1 1

@<TRIPOS>CRYSIN
  15.2780    9.8390   10.9120  90.0000  92.1500  90.0000  14 1

