# MOL2 file generated by ConQuest
# Please check atom types

@<TRIPOS>MOLECULE
WAMGIA
    54    57     1
SMALL
NO_CHARGES
****
Generated from CSD

@<TRIPOS>ATOM
      1 O1         2.3898    3.3933    5.9472 O.2       1 RES1    0.0000
      2 O2         4.4781    3.8613    5.1884 O.3       1 RES1    0.0000
      3 O3         3.2875    5.7101    4.7213 O.2       1 RES1    0.0000
      4 O4         2.1111   -0.5208    8.9769 O.2       1 RES1    0.0000
      5 O5         3.8018   -1.1401   10.0640 O.2       1 RES1    0.0000
      6 O6         8.0797    0.9693    9.2771 O.2       1 RES1    0.0000
      7 O7         8.2682    2.4275    7.7370 O.2       1 RES1    0.0000
      8 N1         3.2774   -0.4441    9.2364 N.pl3     1 RES1    0.0000
      9 N2         7.6228    1.6633    8.3962 N.pl3     1 RES1    0.0000
     10 C1         3.5708    3.2569    6.0202 C.2       1 RES1    0.0000
     11 C2         4.0401    4.8870    4.3342 C.2       1 RES1    0.0000
     12 C3         4.6648    4.7589    2.9287 C.3       1 RES1    0.0000
     13 C4         4.2539    2.3368    6.9669 C.ar      1 RES1    0.0000
     14 C5         3.4846    1.4027    7.6374 C.ar      1 RES1    0.0000
     15 C6         4.0963    0.5554    8.5337 C.ar      1 RES1    0.0000
     16 C7         5.4438    0.6236    8.8128 C.ar      1 RES1    0.0000
     17 C8         6.1755    1.5578    8.1311 C.ar      1 RES1    0.0000
     18 C9         5.6177    2.4172    7.2068 C.ar      1 RES1    0.0000
     19 C10        6.1755    5.1261    2.9989 C.ar      1 RES1    0.0000
     20 C11        6.7259    6.0425    2.1236 C.ar      1 RES1    0.0000
     21 C12        8.0711    6.3470    2.1559 C.ar      1 RES1    0.0000
     22 C13        8.8952    5.7473    3.0662 C.ar      1 RES1    0.0000
     23 C14        8.3815    4.8291    3.9260 C.ar      1 RES1    0.0000
     24 C15        7.0282    4.5012    3.8937 C.ar      1 RES1    0.0000
     25 C16        3.9051    5.7230    2.0002 C.ar      1 RES1    0.0000
     26 C17        3.3482    5.2922    0.8107 C.ar      1 RES1    0.0000
     27 C18        2.6470    6.1685   -0.0126 C.ar      1 RES1    0.0000
     28 C19        2.5063    7.4782    0.3591 C.ar      1 RES1    0.0000
     29 C20        3.0764    7.9351    1.5233 C.ar      1 RES1    0.0000
     30 C21        3.7862    7.0776    2.3354 C.ar      1 RES1    0.0000
     31 C22        4.4762    3.2969    2.4897 C.ar      1 RES1    0.0000
     32 C23        3.2633    2.6645    2.7366 C.ar      1 RES1    0.0000
     33 C24        3.0561    1.3585    2.3621 C.ar      1 RES1    0.0000
     34 C25        4.0351    0.6652    1.7154 C.ar      1 RES1    0.0000
     35 C26        5.2317    1.2809    1.4349 C.ar      1 RES1    0.0000
     36 C27        5.4524    2.5859    1.8220 C.ar      1 RES1    0.0000
     37 H1         2.5446    1.3644    7.5042 H         1 RES1    0.0000
     38 H2         5.8251   -0.0181    9.4538 H         1 RES1    0.0000
     39 H3         6.1489    3.0272    6.7748 H         1 RES1    0.0000
     40 H4         6.1382    6.4367    1.4728 H         1 RES1    0.0000
     41 H5         8.4614    7.0159    1.4868 H         1 RES1    0.0000
     42 H6         9.7887    5.9977    3.0998 H         1 RES1    0.0000
     43 H7         8.9100    4.3723    4.5165 H         1 RES1    0.0000
     44 H8         6.6470    3.7744    4.5305 H         1 RES1    0.0000
     45 H9         3.4710    4.3907    0.5611 H         1 RES1    0.0000
     46 H10        2.2620    5.8293   -0.8556 H         1 RES1    0.0000
     47 H11        2.0582    8.0434   -0.2244 H         1 RES1    0.0000
     48 H12        2.9544    8.8376    1.7673 H         1 RES1    0.0000
     49 H13        4.2294    7.4083    3.1560 H         1 RES1    0.0000
     50 H14        2.5461    3.1484    3.1840 H         1 RES1    0.0000
     51 H15        2.2137    0.9250    2.5949 H         1 RES1    0.0000
     52 H16        3.8654   -0.2054    1.4447 H         1 RES1    0.0000
     53 H17        5.9471    0.8035    0.9819 H         1 RES1    0.0000
     54 H18        6.2853    3.0549    1.5990 H         1 RES1    0.0000
@<TRIPOS>BOND
     1    1   10 2
     2    2   10 1
     3    3   11 2
     4    4    8 2
     5    5    8 2
     6    6    9 2
     7    7    9 2
     8    8   15 1
     9    9   17 1
    10   10   13 1
    11   11    2 1
    12   12   11 1
    13   13   14 ar
    14   14   15 ar
    15   15   16 ar
    16   16   17 ar
    17   17   18 ar
    18   18   13 ar
    19   19   12 1
    20   20   19 ar
    21   21   20 ar
    22   22   21 ar
    23   23   22 ar
    24   24   19 ar
    25   25   12 1
    26   26   25 ar
    27   27   26 ar
    28   28   27 ar
    29   29   28 ar
    30   30   25 ar
    31   31   12 1
    32   32   31 ar
    33   33   32 ar
    34   34   33 ar
    35   35   34 ar
    36   36   31 ar
    37   37   14 1
    38   38   16 1
    39   39   18 1
    40   40   20 1
    41   41   21 1
    42   42   22 1
    43   43   23 1
    44   44   24 1
    45   45   26 1
    46   46   27 1
    47   47   28 1
    48   48   29 1
    49   49   30 1
    50   50   32 1
    51   51   33 1
    52   52   34 1
    53   53   35 1
    54   54   36 1
    55   23   24 ar
    56   29   30 ar
    57   35   36 ar
@<TRIPOS>SUBSTRUCTURE
     1 RES1 1

@<TRIPOS>CRYSIN
   8.6030    9.7740   14.3220  86.5900  78.3400  72.9000   2 1

