# MOL2 file generated by ConQuest
# Please check atom types

@<TRIPOS>MOLECULE
WAMLIG
    20    20     1
SMALL
NO_CHARGES
****
Generated from CSD

@<TRIPOS>ATOM
      1 C1         3.9793   10.2470    3.5074 C.ar      1 RES1    0.0000
      2 C2         4.2872    8.9168    3.7483 C.ar      1 RES1    0.0000
      3 H1         4.0414    8.2666    3.1305 H         1 RES1    0.0000
      4 C3         4.9533    8.5533    4.8946 C.ar      1 RES1    0.0000
      5 H2         5.1552    7.6584    5.0453 H         1 RES1    0.0000
      6 C4         5.3246    9.5008    5.8210 C.ar      1 RES1    0.0000
      7 H3         5.7749    9.2583    6.5977 H         1 RES1    0.0000
      8 C5         5.0107   10.8202    5.5656 C.ar      1 RES1    0.0000
      9 C6         4.3443   11.2154    4.4302 C.ar      1 RES1    0.0000
     10 H4         4.1431   12.1122    4.2844 H         1 RES1    0.0000
     11 C7         3.2577   10.6901    2.2844 C.2       1 RES1    0.0000
     12 C8         2.2543   10.0266    0.2732 C.3       1 RES1    0.0000
     13 H5         1.4322   10.4700    0.4949 H         1 RES1    0.0000
     14 H6         2.0639    9.2289   -0.2250 H         1 RES1    0.0000
     15 H7         2.8001   10.6123   -0.2565 H         1 RES1    0.0000
     16 N1         5.3850   11.8445    6.5501 N.pl3     1 RES1    0.0000
     17 O1         5.9320   11.4820    7.5697 O.2       1 RES1    0.0000
     18 O2         5.1322   13.0075    6.3076 O.2       1 RES1    0.0000
     19 O3         2.9538    9.6817    1.4810 O.3       1 RES1    0.0000
     20 O4         2.9712   11.8326    2.0610 O.2       1 RES1    0.0000
@<TRIPOS>BOND
     1    1    2 ar
     2    2    3 1
     3    4    2 ar
     4    5    4 1
     5    6    4 ar
     6    7    6 1
     7    8    6 ar
     8    9    1 ar
     9   10    9 1
    10   11    1 1
    11   12   13 1
    12   14   12 1
    13   15   12 1
    14   16    8 1
    15   17   16 2
    16   18   16 2
    17   19   11 1
    18   20   11 2
    19    8    9 ar
    20   12   19 1
@<TRIPOS>SUBSTRUCTURE
     1 RES1 1

@<TRIPOS>CRYSIN
   7.4937   11.7640    9.7780  90.0000 102.7840  90.0000  14 1

