# MOL2 file generated by ConQuest
# Please check atom types

@<TRIPOS>MOLECULE
WAMSUZ
    21    22     1
SMALL
NO_CHARGES
****
Generated from CSD

@<TRIPOS>ATOM
      1 O1         0.3237    9.2796    1.4636 O.3       1 RES1    0.0000
      2 O2        -4.2649    9.9454    4.2474 O.2       1 RES1    0.0000
      3 N1        -0.7875    9.4629    2.2727 N.pl3     1 RES1    0.0000
      4 C1        -1.2131   10.7382    2.5446 C.2       1 RES1    0.0000
      5 H1        -0.6012   11.3858    2.2449 H         1 RES1    0.0000
      6 C2        -2.3674   10.9619    3.1868 C.2       1 RES1    0.0000
      7 H2        -2.6663   11.8055    3.3578 H         1 RES1    0.0000
      8 C3        -3.2031    9.8579    3.6284 C.2       1 RES1    0.0000
      9 C4        -3.3838    7.3377    3.5217 C.3       1 RES1    0.0000
     10 H3        -4.2273    7.3359    3.0160 H         1 RES1    0.0000
     11 H4        -3.5148    7.2132    4.4551 H         1 RES1    0.0000
     12 C5        -2.3518    6.3408    2.9466 C.3       1 RES1    0.0000
     13 H5        -2.7600    5.7807    2.2000 H         1 RES1    0.0000
     14 H6        -1.9881    5.7289    3.6343 H         1 RES1    0.0000
     15 N2        -1.2269    7.1278    2.3835 N.2       1 RES1    0.0000
     16 C6        -1.5206    8.3473    2.6134 C.2       1 RES1    0.0000
     17 N3        -2.7036    8.6204    3.2884 N.am      1 RES1    0.0000
     18 C7         1.4627    8.9208    2.2761 C.3       1 RES1    0.0000
     19 H7         1.6369    9.7022    2.9412 H         1 RES1    0.0000
     20 H8         2.2159    8.8462    1.6541 H         1 RES1    0.0000
     21 H9         1.2698    8.0739    2.7466 H         1 RES1    0.0000
@<TRIPOS>BOND
     1    1    3 1
     2    2    8 2
     3    3    4 1
     4    4    5 1
     5    6    4 2
     6    7    6 1
     7    8    6 1
     8    9   10 1
     9   11    9 1
    10   12    9 1
    11   13   12 1
    12   14   12 1
    13   15   12 1
    14   16    3 1
    15   17    8 1
    16   18    1 1
    17   19   18 1
    18   20   18 1
    19   21   18 1
    20    9   17 1
    21   15   16 2
    22   16   17 1
@<TRIPOS>SUBSTRUCTURE
     1 RES1 1

@<TRIPOS>CRYSIN
   8.0951   11.7902    7.8891  90.0000  93.2120  90.0000  14 1

