# MOL2 file generated by ConQuest
# Please check atom types

@<TRIPOS>MOLECULE
WAMTOW
    44    45     1
SMALL
NO_CHARGES
****
Generated from CSD

@<TRIPOS>ATOM
      1 O1        10.3161   10.0462    9.3964 O.2       1 RES1    0.0000
      2 O2        10.2885    4.0993    8.1698 O.3       1 RES1    0.0000
      3 O3        11.8749    3.9370    9.7537 O.2       1 RES1    0.0000
      4 O4         9.2447    4.2408    3.6228 O.2       1 RES1    0.0000
      5 O5        10.9968    4.4956    2.3833 O.2       1 RES1    0.0000
      6 N1        11.6936    8.2646    9.7329 N.am      1 RES1    0.0000
      7 H1        12.1322    8.7824   10.2694 H         1 RES1    0.0000
      8 N2         9.8778    8.1034    8.3039 N.am      1 RES1    0.0000
      9 N3        10.3461    4.7395    3.3913 N.pl3     1 RES1    0.0000
     10 N4         5.3033    8.9185    7.2468 N.1       1 RES1    0.0000
     11 C1        10.6031    8.8659    9.1511 C.2       1 RES1    0.0000
     12 C2        10.1958    6.7094    7.9666 C.3       1 RES1    0.0000
     13 H2         9.3418    6.1903    7.9598 H         1 RES1    0.0000
     14 C3        11.1093    6.0937    9.0015 C.2       1 RES1    0.0000
     15 C4        11.8708    6.8922    9.7877 C.2       1 RES1    0.0000
     16 C5         8.6840    8.6599    7.6975 C.3       1 RES1    0.0000
     17 H3         8.5151    8.2138    6.8302 H         1 RES1    0.0000
     18 H4         8.8198    9.6254    7.5258 H         1 RES1    0.0000
     19 C6         7.4717    8.4682    8.6172 C.3       1 RES1    0.0000
     20 H5         7.4608    7.5412    8.9654 H         1 RES1    0.0000
     21 H6         7.5365    9.0865    9.3878 H         1 RES1    0.0000
     22 C7         6.2374    8.7300    7.8790 C.1       1 RES1    0.0000
     23 C8        12.9241    6.4605   10.7615 C.3       1 RES1    0.0000
     24 H7        12.5077    6.2614   11.6260 H         1 RES1    0.0000
     25 H8        13.5804    7.1799   10.8726 H         1 RES1    0.0000
     26 H9        13.3734    5.6583   10.4228 H         1 RES1    0.0000
     27 C9        11.1667    4.6262    9.0503 C.2       1 RES1    0.0000
     28 C10       10.2711    2.6546    8.0393 C.3       1 RES1    0.0000
     29 H10        9.9703    2.2370    8.8845 H         1 RES1    0.0000
     30 H11       11.1772    2.3175    7.8263 H         1 RES1    0.0000
     31 C11        9.3162    2.3254    6.9244 C.3       1 RES1    0.0000
     32 H12        8.4256    2.6720    7.1433 H         1 RES1    0.0000
     33 H13        9.2696    1.3535    6.8112 H         1 RES1    0.0000
     34 H14        9.6310    2.7369    6.0925 H         1 RES1    0.0000
     35 C12       10.8187    6.6143    6.5759 C.ar      1 RES1    0.0000
     36 C13       10.2566    5.7918    5.6058 C.ar      1 RES1    0.0000
     37 H15        9.4452    5.3266    5.7752 H         1 RES1    0.0000
     38 C14       10.9057    5.6635    4.3832 C.ar      1 RES1    0.0000
     39 C15       12.0668    6.3496    4.0708 C.ar      1 RES1    0.0000
     40 H16       12.4815    6.2518    3.2217 H         1 RES1    0.0000
     41 C16       12.6054    7.1885    5.0445 C.ar      1 RES1    0.0000
     42 H17       13.3937    7.6844    4.8568 H         1 RES1    0.0000
     43 C17       11.9962    7.3042    6.2884 C.ar      1 RES1    0.0000
     44 H18       12.3875    7.8605    6.9521 H         1 RES1    0.0000
@<TRIPOS>BOND
     1    1   11 2
     2    2   27 1
     3    3   27 2
     4    4    9 2
     5    5    9 2
     6    6    7 1
     7    8   11 1
     8    9   38 1
     9   10   22 3
    10   11    6 1
    11   12    8 1
    12   13   12 1
    13   14   12 1
    14   15    6 1
    15   16    8 1
    16   17   16 1
    17   18   16 1
    18   19   16 1
    19   20   19 1
    20   21   19 1
    21   22   19 1
    22   23   15 1
    23   24   23 1
    24   25   23 1
    25   26   23 1
    26   27   14 1
    27   28    2 1
    28   29   28 1
    29   30   28 1
    30   31   28 1
    31   32   31 1
    32   33   31 1
    33   34   31 1
    34   35   12 1
    35   36   35 ar
    36   37   36 1
    37   38   36 ar
    38   39   38 ar
    39   40   39 1
    40   41   39 ar
    41   42   41 1
    42   43   35 ar
    43   44   43 1
    44   14   15 2
    45   41   43 ar
@<TRIPOS>SUBSTRUCTURE
     1 RES1 1

@<TRIPOS>CRYSIN
   9.3597    9.4936   11.3078  79.0760  68.9060  72.1690   2 1

