# MOL2 file generated by ConQuest
# Please check atom types

@<TRIPOS>MOLECULE
WANFOH
    89    98     1
SMALL
NO_CHARGES
****
Generated from CSD

@<TRIPOS>ATOM
      1 C1        12.3873    3.0968    3.0233 C.3       1 RES1    0.0000
      2 C2        11.7698    4.1028    2.0524 C.ar      1 RES1    0.0000
      3 C3        11.9964    3.7158    0.7256 C.ar      1 RES1    0.0000
      4 C4        11.4939    4.4940   -0.3137 C.ar      1 RES1    0.0000
      5 H1        11.6564    4.2228   -1.2311 H         1 RES1    0.0000
      6 C5        10.7963    5.6518   -0.0102 C.ar      1 RES1    0.0000
      7 H2        10.4809    6.2283   -0.7401 H         1 RES1    0.0000
      8 C6        10.5880    6.0661    1.3128 C.ar      1 RES1    0.0000
      9 C7        11.0781    5.2588    2.3512 C.ar      1 RES1    0.0000
     10 H3        10.9194    5.4901    3.2748 H         1 RES1    0.0000
     11 C8         9.9242    7.3639    1.6178 C.ar      1 RES1    0.0000
     12 C9         9.0778    7.9821    0.7002 C.ar      1 RES1    0.0000
     13 H4         8.8792    7.5885   -0.1572 H         1 RES1    0.0000
     14 C10        8.5155    9.2066    1.0185 C.ar      1 RES1    0.0000
     15 C11        8.7134    9.8386    2.2263 C.ar      1 RES1    0.0000
     16 H5         8.3106   10.6853    2.3969 H         1 RES1    0.0000
     17 C12        9.5616    9.2363    3.1321 C.ar      1 RES1    0.0000
     18 H6         9.7761    9.6522    3.9932 H         1 RES1    0.0000
     19 C13       10.1708    8.0299    2.8230 C.ar      1 RES1    0.0000
     20 H7        10.7992    7.6628    3.4369 H         1 RES1    0.0000
     21 N1         7.7370    9.9033   -0.0114 N.pl3     1 RES1    0.0000
     22 O1         7.8476    9.5414   -1.1689 O.2       1 RES1    0.0000
     23 O2         7.0422   10.8445    0.3297 O.2       1 RES1    0.0000
     24 C2G       13.0048    2.0909    2.0524 C.ar      1 RES1    0.0000
     25 C2N       11.3813    2.4793    3.9941 C.ar      1 RES1    0.0000
     26 C2K       13.3933    3.7143    3.9941 C.ar      1 RES1    0.0000
     27 C3G       12.7782    2.4778    0.7256 C.ar      1 RES1    0.0000
     28 C3N       11.7683    2.7059    5.3210 C.ar      1 RES1    0.0000
     29 C3K       13.0063    3.4878    5.3210 C.ar      1 RES1    0.0000
     30 C4K       13.7845    3.9902    6.3603 C.ar      1 RES1    0.0000
     31 C4N       10.9901    2.2035    6.3603 C.ar      1 RES1    0.0000
     32 C4G       13.2807    1.6997   -0.3137 C.ar      1 RES1    0.0000
     33 H1K       13.5133    3.8277    7.2777 H         1 RES1    0.0000
     34 H1N       11.2613    2.3660    7.2777 H         1 RES1    0.0000
     35 H1G       13.1182    1.9708   -1.2311 H         1 RES1    0.0000
     36 C5K       14.9423    4.6878    6.0567 C.ar      1 RES1    0.0000
     37 C5N        9.8323    1.5058    6.0567 C.ar      1 RES1    0.0000
     38 C5G       13.9783    0.5418   -0.0102 C.ar      1 RES1    0.0000
     39 H2K       15.5188    5.0032    6.7867 H         1 RES1    0.0000
     40 H2N        9.2558    1.1904    6.7867 H         1 RES1    0.0000
     41 H2G       14.2937   -0.0347   -0.7401 H         1 RES1    0.0000
     42 C6K       15.3565    4.8961    4.7337 C.ar      1 RES1    0.0000
     43 C6N        9.4181    1.2976    4.7337 C.ar      1 RES1    0.0000
     44 C6G       14.1866    0.1276    1.3128 C.ar      1 RES1    0.0000
     45 C7K       14.5493    4.4060    3.6954 C.ar      1 RES1    0.0000
     46 C7N       10.2253    1.7876    3.6954 C.ar      1 RES1    0.0000
     47 C7G       13.6965    0.9349    2.3512 C.ar      1 RES1    0.0000
     48 H3K       14.7805    4.5647    2.7717 H         1 RES1    0.0000
     49 H3N        9.9941    1.6289    2.7717 H         1 RES1    0.0000
     50 H3G       13.8552    0.7036    3.2748 H         1 RES1    0.0000
     51 C8K       16.6544    5.5599    4.4288 C.ar      1 RES1    0.0000
     52 C8N        8.1202    0.6337    4.4288 C.ar      1 RES1    0.0000
     53 C8G       14.8504   -1.1702    1.6178 C.ar      1 RES1    0.0000
     54 C9K       17.2726    6.4063    5.3464 C.ar      1 RES1    0.0000
     55 C9N        7.5020   -0.2127    5.3464 C.ar      1 RES1    0.0000
     56 C9G       15.6968   -1.7885    0.7002 C.ar      1 RES1    0.0000
     57 H4K       16.8789    6.6049    6.2038 H         1 RES1    0.0000
     58 H4N        7.8957   -0.4113    6.2038 H         1 RES1    0.0000
     59 H4G       15.8954   -1.3948   -0.1572 H         1 RES1    0.0000
     60 C10K      18.4971    6.9686    5.0281 C.ar      1 RES1    0.0000
     61 C10N       6.2775   -0.7749    5.0281 C.ar      1 RES1    0.0000
     62 C10G      16.2591   -3.0130    1.0185 C.ar      1 RES1    0.0000
     63 C11K      19.1291    6.7708    3.8202 C.ar      1 RES1    0.0000
     64 C11N       5.6455   -0.5771    3.8202 C.ar      1 RES1    0.0000
     65 C11G      16.0612   -3.6450    2.2263 C.ar      1 RES1    0.0000
     66 H5K       19.9758    7.1735    3.6497 H         1 RES1    0.0000
     67 H5N        4.7988   -0.9798    3.6497 H         1 RES1    0.0000
     68 H5G       16.4640   -4.4916    2.3969 H         1 RES1    0.0000
     69 C12K      18.5268    5.9225    2.9144 C.ar      1 RES1    0.0000
     70 C12N       6.2478    0.2712    2.9144 C.ar      1 RES1    0.0000
     71 C12G      15.2130   -3.0427    3.1321 C.ar      1 RES1    0.0000
     72 H6K       18.9427    5.7081    2.0534 H         1 RES1    0.0000
     73 H6N        5.8319    0.4856    2.0534 H         1 RES1    0.0000
     74 H6G       14.9985   -3.4585    3.9932 H         1 RES1    0.0000
     75 C13K      17.3204    5.3133    3.2236 C.ar      1 RES1    0.0000
     76 C13N       7.4542    0.8804    3.2236 C.ar      1 RES1    0.0000
     77 C13G      14.6038   -1.8363    2.8230 C.ar      1 RES1    0.0000
     78 H7K       16.9533    4.6849    2.6097 H         1 RES1    0.0000
     79 H7N        7.8213    1.5088    2.6097 H         1 RES1    0.0000
     80 H7G       13.9754   -1.4691    3.4369 H         1 RES1    0.0000
     81 N1K       19.1937    7.7471    6.0579 N.pl3     1 RES1    0.0000
     82 N1N        5.5809   -1.5535    6.0579 N.pl3     1 RES1    0.0000
     83 N1G       17.0376   -3.7096   -0.0114 N.pl3     1 RES1    0.0000
     84 O1K       18.8319    7.6365    7.2155 O.2       1 RES1    0.0000
     85 O1N        5.9427   -1.4429    7.2155 O.2       1 RES1    0.0000
     86 O1G       16.9270   -3.3478   -1.1689 O.2       1 RES1    0.0000
     87 O2K       20.1349    8.4419    5.7169 O.2       1 RES1    0.0000
     88 O2N        4.6397   -2.2483    5.7169 O.2       1 RES1    0.0000
     89 O2G       17.7324   -4.6508    0.3297 O.2       1 RES1    0.0000
@<TRIPOS>BOND
     1    1    2 1
     2    2    3 ar
     3    3    4 ar
     4    4    5 1
     5    6    4 ar
     6    7    6 1
     7    8    6 ar
     8    9    2 ar
     9   10    9 1
    10   11    8 1
    11   12   11 ar
    12   13   12 1
    13   14   12 ar
    14   15   14 ar
    15   16   15 1
    16   17   15 ar
    17   18   17 1
    18   19   11 ar
    19   20   19 1
    20   21   14 1
    21   22   21 2
    22   23   21 2
    23   24    1 1
    24   25    1 1
    25   26    1 1
    26   27    3 1
    27   28   25 ar
    28   29   26 ar
    29   30   29 ar
    30   31   28 ar
    31   32   27 ar
    32   33   30 1
    33   34   31 1
    34   35   32 1
    35   36   30 ar
    36   37   31 ar
    37   38   32 ar
    38   39   36 1
    39   40   37 1
    40   41   38 1
    41   42   36 ar
    42   43   37 ar
    43   44   38 ar
    44   45   26 ar
    45   46   25 ar
    46   47   24 ar
    47   48   45 1
    48   49   46 1
    49   50   47 1
    50   51   42 1
    51   52   43 1
    52   53   44 1
    53   54   51 ar
    54   55   52 ar
    55   56   53 ar
    56   57   54 1
    57   58   55 1
    58   59   56 1
    59   60   54 ar
    60   61   55 ar
    61   62   56 ar
    62   63   60 ar
    63   64   61 ar
    64   65   62 ar
    65   66   63 1
    66   67   64 1
    67   68   65 1
    68   69   63 ar
    69   70   64 ar
    70   71   65 ar
    71   72   69 1
    72   73   70 1
    73   74   71 1
    74   75   51 ar
    75   76   52 ar
    76   77   53 ar
    77   78   75 1
    78   79   76 1
    79   80   77 1
    80   81   60 1
    81   82   61 1
    82   83   62 1
    83   84   81 2
    84   85   82 2
    85   86   83 2
    86   87   81 2
    87   88   82 2
    88   89   83 2
    89    8    9 ar
    90   17   19 ar
    91   24   27 ar
    92   28   29 1
    93   42   45 ar
    94   43   46 ar
    95   44   47 ar
    96   69   75 ar
    97   70   76 ar
    98   71   77 ar
@<TRIPOS>SUBSTRUCTURE
     1 RES1 1

@<TRIPOS>CRYSIN
  12.3873   12.3873   24.1863  90.0000  90.0000  90.0000  88 1

