# MOL2 file generated by ConQuest
# Please check atom types

@<TRIPOS>MOLECULE
WANPUY
    39    42     1
SMALL
NO_CHARGES
****
Generated from CSD

@<TRIPOS>ATOM
      1 C1         4.6263    7.2941   10.5746 C.ar      1 RES1    0.0000
      2 H1         4.2332    7.8292   11.2244 H         1 RES1    0.0000
      3 C2         3.8805    6.1130    6.9958 C.3       1 RES1    0.0000
      4 H2         4.1117    6.8777    6.4463 H         1 RES1    0.0000
      5 H3         4.2597    5.3245    6.5765 H         1 RES1    0.0000
      6 C3         2.5019    5.9847    7.0198 C.3       1 RES1    0.0000
      7 H4         2.2546    5.3182    7.6651 H         1 RES1    0.0000
      8 H5         2.1906    5.7203    6.1513 H         1 RES1    0.0000
      9 H6         2.1061    6.8254    7.2608 H         1 RES1    0.0000
     10 O1         4.9167    6.1416   15.4643 O.3       1 RES1    0.0000
     11 O2         7.9406    6.6480   12.0435 O.3       1 RES1    0.0000
     12 C4         7.3448    6.0420   14.0573 C.2       1 RES1    0.0000
     13 C5         6.0313    6.1622   13.3092 C.3       1 RES1    0.0000
     14 C6         7.3068    5.7113   15.4598 C.ar      1 RES1    0.0000
     15 C7         5.0416    6.8462   14.2324 C.3       1 RES1    0.0000
     16 H7         5.3383    7.7532   14.4079 H         1 RES1    0.0000
     17 H8         4.1751    6.8919   13.7984 H         1 RES1    0.0000
     18 C8         6.0783    5.7814   16.1064 C.ar      1 RES1    0.0000
     19 C9         5.5688    4.8229   12.9315 C.1       1 RES1    0.0000
     20 C10        6.5245    6.9789   12.1068 C.3       1 RES1    0.0000
     21 H9         6.4389    7.9305   12.3235 H         1 RES1    0.0000
     22 N1         8.3627    6.3166   13.3498 N.2       1 RES1    0.0000
     23 N2         5.2254    3.7743   12.6564 N.1       1 RES1    0.0000
     24 C11        5.8570    6.7336   10.7971 C.ar      1 RES1    0.0000
     25 C12        8.4276    5.3017   16.1908 C.ar      1 RES1    0.0000
     26 H10        9.2582    5.2580   15.7750 H         1 RES1    0.0000
     27 C13        6.3867    5.9342    9.8232 C.ar      1 RES1    0.0000
     28 H11        7.2095    5.5240    9.9636 H         1 RES1    0.0000
     29 C14        5.9775    5.4394   17.4482 C.ar      1 RES1    0.0000
     30 H12        5.1556    5.4892   17.8818 H         1 RES1    0.0000
     31 C15        5.7195    5.7298    8.6399 C.ar      1 RES1    0.0000
     32 H13        6.1081    5.1852    7.9931 H         1 RES1    0.0000
     33 C16        8.3112    4.9667   17.5120 C.ar      1 RES1    0.0000
     34 H14        9.0583    4.6944   17.9941 H         1 RES1    0.0000
     35 C17        7.0779    5.0332   18.1244 C.ar      1 RES1    0.0000
     36 H15        7.0002    4.7957   19.0198 H         1 RES1    0.0000
     37 C18        3.9649    7.0566    9.3677 C.ar      1 RES1    0.0000
     38 H16        3.1233    7.4287    9.2314 H         1 RES1    0.0000
     39 C19        4.5219    6.2919    8.3839 C.ar      1 RES1    0.0000
@<TRIPOS>BOND
     1    1    2 1
     2    3    4 1
     3    5    3 1
     4    6    3 1
     5    7    6 1
     6    8    6 1
     7    9    6 1
     8   10   15 1
     9   11   20 1
    10   12   13 1
    11   13   15 1
    12   14   12 1
    13   15   16 1
    14   17   15 1
    15   18   10 1
    16   19   13 1
    17   20   13 1
    18   21   20 1
    19   22   11 1
    20   23   19 3
    21   24    1 ar
    22   25   14 ar
    23   26   25 1
    24   27   24 ar
    25   28   27 1
    26   29   18 ar
    27   30   29 1
    28   31   27 ar
    29   32   31 1
    30   33   25 ar
    31   34   33 1
    32   35   29 ar
    33   36   35 1
    34   37    1 ar
    35   38   37 1
    36   39    3 1
    37   12   22 2
    38   14   18 ar
    39   20   24 1
    40   31   39 ar
    41   33   35 ar
    42   37   39 ar
@<TRIPOS>SUBSTRUCTURE
     1 RES1 1

@<TRIPOS>CRYSIN
   6.6869   15.8326   15.2370  90.0000 100.6630  90.0000  14 1

