# MOL2 file generated by ConQuest
# Please check atom types

@<TRIPOS>MOLECULE
WANSAH
    51    55     1
SMALL
NO_CHARGES
****
Generated from CSD

@<TRIPOS>ATOM
      1 O1         4.6260    5.4123    4.3831 O.2       1 RES1    0.0000
      2 O2         3.7772    5.9559    1.7711 O.3       1 RES1    0.0000
      3 N1         4.1267    6.5525    4.0463 N.pl3     1 RES1    0.0000
      4 C1         4.1679    6.9883    2.6125 C.3       1 RES1    0.0000
      5 H1         5.0909    7.2916    2.3747 H         1 RES1    0.0000
      6 C2         3.2023    8.1748    2.5722 C.3       1 RES1    0.0000
      7 C3         3.2195    8.6701    4.0395 C.3       1 RES1    0.0000
      8 H2         3.8916    9.3860    4.1624 H         1 RES1    0.0000
      9 H3         2.3300    9.0154    4.3065 H         1 RES1    0.0000
     10 C4         3.5809    7.4590    4.8345 C.2       1 RES1    0.0000
     11 C5         3.4080    7.2389    6.2326 C.2       1 RES1    0.0000
     12 H4         3.7405    6.4324    6.6099 H         1 RES1    0.0000
     13 C6         2.7963    8.1198    7.0400 C.2       1 RES1    0.0000
     14 H5         2.5493    8.9504    6.6500 H         1 RES1    0.0000
     15 C7         2.4676    7.9411    8.4557 C.ar      1 RES1    0.0000
     16 C8         2.6065    6.6918    9.0723 C.ar      1 RES1    0.0000
     17 H6         2.9504    5.9666    8.5640 H         1 RES1    0.0000
     18 C9         2.2635    6.4755   10.3867 C.ar      1 RES1    0.0000
     19 H7         2.3815    5.6125   10.7663 H         1 RES1    0.0000
     20 C10        1.7439    7.5081   11.1719 C.ar      1 RES1    0.0000
     21 C11        1.3351    7.3101   12.5343 C.ar      1 RES1    0.0000
     22 H8         1.4179    6.4470   12.9226 H         1 RES1    0.0000
     23 C12        0.8366    8.3189   13.2740 C.ar      1 RES1    0.0000
     24 H9         0.5735    8.1507   14.1709 H         1 RES1    0.0000
     25 C13        0.6943    9.6389   12.7383 C.ar      1 RES1    0.0000
     26 C14        0.1957   10.7174   13.4867 C.ar      1 RES1    0.0000
     27 H10       -0.0629   10.5773   14.3908 H         1 RES1    0.0000
     28 C15        0.0744   11.9723   12.9364 C.ar      1 RES1    0.0000
     29 H11       -0.2646   12.6854   13.4635 H         1 RES1    0.0000
     30 C16        0.4416   12.2069   11.6230 C.ar      1 RES1    0.0000
     31 H12        0.3593   13.0807   11.2597 H         1 RES1    0.0000
     32 C17        0.9314   11.1685   10.8285 C.ar      1 RES1    0.0000
     33 C18        1.3033   11.3596    9.4618 C.ar      1 RES1    0.0000
     34 H13        1.2096   12.2215    9.0737 H         1 RES1    0.0000
     35 C19        1.7844   10.3479    8.7082 C.ar      1 RES1    0.0000
     36 H14        2.0162   10.5196    7.8032 H         1 RES1    0.0000
     37 C20        1.9574    9.0211    9.2290 C.ar      1 RES1    0.0000
     38 C21        1.5979    8.7972   10.5931 C.ar      1 RES1    0.0000
     39 C22        1.0759    9.8680   11.3822 C.ar      1 RES1    0.0000
     40 C23        1.7913    7.7273    2.2164 C.3       1 RES1    0.0000
     41 H15        1.7796    7.3794    1.3003 H         1 RES1    0.0000
     42 H16        1.1795    8.4902    2.2826 H         1 RES1    0.0000
     43 H17        1.5059    7.0244    2.8368 H         1 RES1    0.0000
     44 C24        3.6860    9.2441    1.5954 C.3       1 RES1    0.0000
     45 H18        3.6848    8.8800    0.6851 H         1 RES1    0.0000
     46 H19        4.5952    9.5196    1.8367 H         1 RES1    0.0000
     47 H20        3.0887   10.0191    1.6376 H         1 RES1    0.0000
     48 C25        4.8351    5.0877    1.3367 C.3       1 RES1    0.0000
     49 H21        4.4736    4.4148    0.7222 H         1 RES1    0.0000
     50 H22        5.2312    4.6408    2.1146 H         1 RES1    0.0000
     51 H23        5.5214    5.6144    0.8782 H         1 RES1    0.0000
@<TRIPOS>BOND
     1    1    3 1
     2    2    4 1
     3    3    4 1
     4    4    5 1
     5    6    4 1
     6    7    6 1
     7    8    7 1
     8    9    7 1
     9   10    3 2
    10   11   10 1
    11   12   11 1
    12   13   11 2
    13   14   13 1
    14   15   13 1
    15   16   15 ar
    16   17   16 1
    17   18   16 ar
    18   19   18 1
    19   20   18 ar
    20   21   20 ar
    21   22   21 1
    22   23   21 ar
    23   24   23 1
    24   25   23 ar
    25   26   25 ar
    26   27   26 1
    27   28   26 ar
    28   29   28 1
    29   30   28 ar
    30   31   30 1
    31   32   30 ar
    32   33   32 ar
    33   34   33 1
    34   35   33 ar
    35   36   35 1
    36   37   15 ar
    37   38   20 ar
    38   39   25 ar
    39   40    6 1
    40   41   40 1
    41   42   40 1
    42   43   40 1
    43   44    6 1
    44   45   44 1
    45   46   44 1
    46   47   44 1
    47   48    2 1
    48   49   48 1
    49   50   48 1
    50   51   48 1
    51    7   10 1
    52   32   39 ar
    53   35   37 ar
    54   37   38 ar
    55   38   39 ar
@<TRIPOS>SUBSTRUCTURE
     1 RES1 1

@<TRIPOS>CRYSIN
  13.9555    9.1499   15.8343  90.0000 110.2000  90.0000 231 1

