# MOL2 file generated by ConQuest
# Please check atom types

@<TRIPOS>MOLECULE
WANVEP
    38    39     1
SMALL
NO_CHARGES
****
Generated from CSD

@<TRIPOS>ATOM
      1 O1        -7.5765   -4.4421   -2.6443 O.3       1 RES1    0.0000
      2 O2        -1.9062   -5.0172   -2.5158 O.3       1 RES1    0.0000
      3 O3        -0.5868   -4.6496   -5.1824 O.3       1 RES1    0.0000
      4 N1        -3.1034   -4.6608   -1.8834 N.2       1 RES1    0.0000
      5 O4        -5.2730   -6.2373   -7.4740 O.2       1 RES1    0.0000
      6 N2        -6.3888   -4.8416   -3.2629 N.2       1 RES1    0.0000
      7 N3        -5.0436   -5.0870   -7.2341 N.pl3     1 RES1    0.0000
      8 C1        -5.9651   -4.0942   -1.1646 C.2       1 RES1    0.0000
      9 C2        -4.2550   -5.9652   -5.1535 C.3       1 RES1    0.0000
     10 C3        -5.4459   -4.6255   -2.3798 C.2       1 RES1    0.0000
     11 N4         0.5153   -4.8321   -6.0394 N.pl3     1 RES1    0.0000
     12 C4        -4.0503   -4.9277   -2.7373 C.2       1 RES1    0.0000
     13 C5        -3.5290   -5.4650   -3.9619 C.2       1 RES1    0.0000
     14 O5        -5.2073   -4.1002   -7.9188 O.2       1 RES1    0.0000
     15 O6         0.8926   -3.7825   -6.4951 O.2       1 RES1    0.0000
     16 C6        -7.2969   -4.0029   -1.4000 C.2       1 RES1    0.0000
     17 C7        -2.1999   -5.4848   -3.7496 C.2       1 RES1    0.0000
     18 C8        -1.0325   -5.8851   -4.5797 C.3       1 RES1    0.0000
     19 O7        -5.0861   -4.9572    0.8166 O.3       1 RES1    0.0000
     20 C9        -5.2545   -3.7050    0.0830 C.3       1 RES1    0.0000
     21 H1        -4.3944   -3.3055   -0.1202 H         1 RES1    0.0000
     22 H2        -5.7808   -3.0722    0.5967 H         1 RES1    0.0000
     23 O8        -9.1303   -4.5871   -0.0564 O.3       1 RES1    0.0000
     24 O9       -10.8400   -5.1240    1.1476 O.2       1 RES1    0.0000
     25 O10      -10.4727   -3.0265    0.7942 O.2       1 RES1    0.0000
     26 N5       -10.2412   -4.1829    0.6996 N.pl3     1 RES1    0.0000
     27 O11        0.9072   -5.9385   -6.2029 O.2       1 RES1    0.0000
     28 C10       -8.4193   -3.4519   -0.6107 C.3       1 RES1    0.0000
     29 H3        -8.0857   -2.8819    0.1002 H         1 RES1    0.0000
     30 H4        -9.0066   -2.9284   -1.1771 H         1 RES1    0.0000
     31 O12       -4.4415   -5.8180    2.6914 O.2       1 RES1    0.0000
     32 N6        -4.5614   -4.7744    2.1047 N.pl3     1 RES1    0.0000
     33 O13       -4.3095   -3.6585    2.4572 O.2       1 RES1    0.0000
     34 O14       -4.4819   -4.7787   -5.9904 O.3       1 RES1    0.0000
     35 H5        -5.0892   -6.3630   -4.9467 H         1 RES1    0.0000
     36 H6        -3.7138   -6.6213   -5.6112 H         1 RES1    0.0000
     37 H7        -0.3163   -6.1650   -4.0186 H         1 RES1    0.0000
     38 H8        -1.2903   -6.4836   -5.2315 H         1 RES1    0.0000
@<TRIPOS>BOND
     1    1    6 1
     2    2    4 1
     3    3   11 1
     4    4   12 2
     5    5    7 2
     6    6   10 2
     7    7   14 2
     8    8   10 1
     9    9   13 1
    10   10   12 1
    11   11   15 2
    12   12   13 1
    13   13   17 2
    14   16    1 1
    15   17    2 1
    16   18    3 1
    17   19   20 1
    18   20    8 1
    19   21   20 1
    20   22   20 1
    21   23   26 1
    22   24   26 2
    23   25   26 2
    24   27   11 2
    25   28   16 1
    26   29   28 1
    27   30   28 1
    28   31   32 2
    29   32   19 1
    30   33   32 2
    31   34    7 1
    32   35    9 1
    33   36    9 1
    34   37   18 1
    35   38   18 1
    36    8   16 2
    37    9   34 1
    38   17   18 1
    39   23   28 1
@<TRIPOS>SUBSTRUCTURE
     1 RES1 1

@<TRIPOS>CRYSIN
   8.9329    8.6103   10.8182  90.0000 102.8470  90.0000   4 1

