# MOL2 file generated by ConQuest
# Please check atom types

@<TRIPOS>MOLECULE
WANVEP01
    38    39     1
SMALL
NO_CHARGES
****
Generated from CSD

@<TRIPOS>ATOM
      1 C1         3.6436    3.9526    2.5593 C.2       1 RES1    0.0000
      2 C2         4.1757    3.4113    1.3420 C.2       1 RES1    0.0000
      3 C3         5.5088    3.3893    1.5549 C.2       1 RES1    0.0000
      4 C4         6.6741    2.9801    0.7339 C.3       1 RES1    0.0000
      5 H1         7.3767    2.6085    1.2899 H         1 RES1    0.0000
      6 H2         6.4160    2.3213    0.0702 H         1 RES1    0.0000
      7 C5         3.4561    2.9047    0.1384 C.3       1 RES1    0.0000
      8 H3         3.9906    2.2457   -0.3307 H         1 RES1    0.0000
      9 H4         2.6093    2.5020    0.3878 H         1 RES1    0.0000
     10 C6         2.2474    4.2406    2.9105 C.2       1 RES1    0.0000
     11 C7         1.7188    4.7650    4.1351 C.2       1 RES1    0.0000
     12 C8         0.3955    4.8514    3.8919 C.2       1 RES1    0.0000
     13 C9        -0.7346    5.4020    4.6803 C.3       1 RES1    0.0000
     14 H5        -0.4055    5.9778    5.3876 H         1 RES1    0.0000
     15 H6        -1.3261    5.9179    4.1101 H         1 RES1    0.0000
     16 C10        2.4247    5.1470    5.3891 C.3       1 RES1    0.0000
     17 H7         3.2892    5.5399    5.1932 H         1 RES1    0.0000
     18 H8         1.8993    5.7826    5.9007 H         1 RES1    0.0000
     19 N1         4.5900    4.2203    3.4243 N.2       1 RES1    0.0000
     20 N2         8.2037    4.0094   -0.7717 N.pl3     1 RES1    0.0000
     21 N3         2.7050    3.7790   -1.9638 N.pl3     1 RES1    0.0000
     22 N4         1.3050    4.0356    2.0172 N.2       1 RES1    0.0000
     23 N5        -2.5530    4.6667    6.0045 N.pl3     1 RES1    0.0000
     24 N6         3.0814    4.0763    7.4168 N.pl3     1 RES1    0.0000
     25 O1         5.7917    3.8594    2.7919 O.3       1 RES1    0.0000
     26 O2         7.1116    4.2161    0.0981 O.3       1 RES1    0.0000
     27 O3         8.5857    5.0403   -1.2739 O.2       1 RES1    0.0000
     28 O4         8.6090    2.8878   -0.9069 O.2       1 RES1    0.0000
     29 O5         3.2404    4.0966   -0.7009 O.3       1 RES1    0.0000
     30 O6         2.4839    2.6235   -2.2070 O.2       1 RES1    0.0000
     31 O7         2.5513    4.7633   -2.6515 O.2       1 RES1    0.0000
     32 O8         0.1120    4.4304    2.6353 O.3       1 RES1    0.0000
     33 O9        -1.4405    4.2584    5.2423 O.3       1 RES1    0.0000
     34 O10       -2.7820    5.8307    6.1031 O.2       1 RES1    0.0000
     35 O11       -3.1487    3.7103    6.4627 O.2       1 RES1    0.0000
     36 O12        2.5768    3.8908    6.1208 O.3       1 RES1    0.0000
     37 O13        3.3425    5.1979    7.7705 O.2       1 RES1    0.0000
     38 O14        3.1883    3.0318    8.0228 O.2       1 RES1    0.0000
@<TRIPOS>BOND
     1    1    2 1
     2    2    3 2
     3    3    4 1
     4    4    5 1
     5    6    4 1
     6    7    2 1
     7    8    7 1
     8    9    7 1
     9   10    1 1
    10   11   10 1
    11   12   11 2
    12   13   12 1
    13   14   13 1
    14   15   13 1
    15   16   11 1
    16   17   16 1
    17   18   16 1
    18   19    1 2
    19   20   26 1
    20   21   29 1
    21   22   10 2
    22   23   33 1
    23   24   36 1
    24   25    3 1
    25   26    4 1
    26   27   20 2
    27   28   20 2
    28   29    7 1
    29   30   21 2
    30   31   21 2
    31   32   12 1
    32   33   13 1
    33   34   23 2
    34   35   23 2
    35   36   16 1
    36   37   24 2
    37   38   24 2
    38   19   25 1
    39   22   32 1
@<TRIPOS>SUBSTRUCTURE
     1 RES1 1

@<TRIPOS>CRYSIN
   8.8237    8.4711   10.7752  90.0000 103.3380  90.0000   4 1

