# MOL2 file generated by ConQuest
# Please check atom types

@<TRIPOS>MOLECULE
WAPMOS
    31    33     1
SMALL
NO_CHARGES
****
Generated from CSD

@<TRIPOS>ATOM
      1 O1         4.4812    8.5209    0.4190 O.3       1 RES1    0.0000
      2 O2         8.3114    8.4834    1.4896 O.3       1 RES1    0.0000
      3 N1         5.8036    8.5108    0.8862 N.2       1 RES1    0.0000
      4 O3         1.3829   10.1277    2.6871 O.3       1 RES1    0.0000
      5 O4         4.1291   11.1351    1.7065 O.3       1 RES1    0.0000
      6 C1         3.4016    8.8311    1.3501 C.3       1 RES1    0.0000
      7 O5         7.8630    9.1869    3.5870 O.2       1 RES1    0.0000
      8 C2         3.8300    9.8977    2.3473 C.3       1 RES1    0.0000
      9 C3         7.5132    8.8698    2.4762 C.2       1 RES1    0.0000
     10 C4         2.6871   10.1785    3.2983 C.3       1 RES1    0.0000
     11 C5         2.9359    7.5505    2.0320 C.3       1 RES1    0.0000
     12 O6         1.2936    6.8132    3.5997 O.2       1 RES1    0.0000
     13 C6         9.7464    8.4587    1.8034 C.3       1 RES1    0.0000
     14 C7         6.0556    8.8988    2.0793 C.2       1 RES1    0.0000
     15 C8         1.9069    7.7427    3.1345 C.2       1 RES1    0.0000
     16 C9         1.7306    9.1227    3.6789 C.3       1 RES1    0.0000
     17 C10        5.0681    9.4004    3.0932 C.3       1 RES1    0.0000
     18 C11       10.4461    8.0182    0.5509 C.3       1 RES1    0.0000
     19 H1         2.7673   10.9281    3.9076 H         1 RES1    0.0000
     20 H2         5.4708   10.1299    3.6357 H         1 RES1    0.0000
     21 H3         2.5901    6.9274    1.3596 H         1 RES1    0.0000
     22 H4         2.7578    9.1741    0.7251 H         1 RES1    0.0000
     23 H5         9.8893    7.8438    2.5581 H         1 RES1    0.0000
     24 H6        10.0011    9.3416    2.0646 H         1 RES1    0.0000
     25 H7         1.2519    9.2135    4.5119 H         1 RES1    0.0000
     26 H8         4.8337    8.6814    3.7062 H         1 RES1    0.0000
     27 H9        10.3125    8.6420   -0.1813 H         1 RES1    0.0000
     28 H10       11.4351    8.0014    0.7050 H         1 RES1    0.0000
     29 H11       10.1943    7.0752    0.2820 H         1 RES1    0.0000
     30 H12        3.7095    7.1047    2.4775 H         1 RES1    0.0000
     31 H13        4.2876   11.0168    0.8762 H         1 RES1    0.0000
@<TRIPOS>BOND
     1    1    3 1
     2    2    9 1
     3    3   14 2
     4    4   10 1
     5    5    8 1
     6    6    1 1
     7    7    9 2
     8    8    6 1
     9    9   14 1
    10   10    8 1
    11   11    6 1
    12   12   15 2
    13   13    2 1
    14   14   17 1
    15   15   11 1
    16   16    4 1
    17   17    8 1
    18   18   13 1
    19   19   10 1
    20   20   17 1
    21   21   11 1
    22   22    6 1
    23   23   13 1
    24   24   13 1
    25   25   16 1
    26   26   17 1
    27   27   18 1
    28   28   18 1
    29   29   18 1
    30   30   11 1
    31   31    5 1
    32   10   16 1
    33   15   16 1
@<TRIPOS>SUBSTRUCTURE
     1 RES1 1

@<TRIPOS>CRYSIN
  11.1780    9.8540   10.1970  90.0000  99.0100  90.0000  14 1

