# MOL2 file generated by ConQuest
# Please check atom types

@<TRIPOS>MOLECULE
WAPPIN
   136   142     2
SMALL
NO_CHARGES
****
Generated from CSD

@<TRIPOS>ATOM
      1 C1         5.2735    5.8143    1.2216 C.ar      1 RES1    0.0000
      2 C2         5.2365    5.5716    2.5799 C.ar      1 RES1    0.0000
      3 H1         5.7922    4.9296    2.9595 H         1 RES1    0.0000
      4 C3         4.3666    6.2935    3.3622 C.ar      1 RES1    0.0000
      5 H2         4.3181    6.1291    4.2772 H         1 RES1    0.0000
      6 C4         3.5763    7.2486    2.7984 C.ar      1 RES1    0.0000
      7 H3         2.9963    7.7284    3.3437 H         1 RES1    0.0000
      8 C5         3.6030    7.5300    1.4498 C.ar      1 RES1    0.0000
      9 H4         3.0651    8.1963    1.0863 H         1 RES1    0.0000
     10 C6         4.4602    6.7857    0.6559 C.ar      1 RES1    0.0000
     11 C7         4.6865    6.8230   -0.7827 C.ar      1 RES1    0.0000
     12 C8         4.1343    7.6161   -1.7926 C.ar      1 RES1    0.0000
     13 H5         3.5009    8.2675   -1.5944 H         1 RES1    0.0000
     14 C9         4.5416    7.4170   -3.0752 C.ar      1 RES1    0.0000
     15 H6         4.1881    7.9533   -3.7464 H         1 RES1    0.0000
     16 C10        5.4438    6.4672   -3.4056 C.ar      1 RES1    0.0000
     17 H7         5.6748    6.3344   -4.2978 H         1 RES1    0.0000
     18 C11        6.0247    5.6896   -2.4164 C.ar      1 RES1    0.0000
     19 H8         6.6616    5.0474   -2.6373 H         1 RES1    0.0000
     20 C12        5.6463    5.8774   -1.0865 C.ar      1 RES1    0.0000
     21 C13        6.1313    5.1906    0.1524 C.3       1 RES1    0.0000
     22 H9         7.0576    5.4694    0.3077 H         1 RES1    0.0000
     23 C14        6.1013    3.6787    0.1090 C.3       1 RES1    0.0000
     24 H10        6.7214    3.3510   -0.5618 H         1 RES1    0.0000
     25 H11        6.3592    3.3143    0.9707 H         1 RES1    0.0000
     26 O1         4.7552    3.2742   -0.2189 O.3       1 RES1    0.0000
     27 C15        4.5677    1.9584   -0.2929 C.2       1 RES1    0.0000
     28 O2         5.4557    1.1570   -0.0601 O.2       1 RES1    0.0000
     29 N1         3.3286    1.6155   -0.6605 N.am      1 RES1    0.0000
     30 H12        3.1874    0.7814   -0.8116 H         1 RES1    0.0000
     31 C16        2.1954    2.5131   -0.8304 C.3       1 RES1    0.0000
     32 C17        2.3640    3.5528   -1.9302 C.3       1 RES1    0.0000
     33 H13        3.1684    4.0631   -1.7451 H         1 RES1    0.0000
     34 H14        1.6151    4.1671   -1.8835 H         1 RES1    0.0000
     35 C18        2.4556    3.0204   -3.3552 C.3       1 RES1    0.0000
     36 C19        3.8174    2.4103   -3.6950 C.3       1 RES1    0.0000
     37 H15        3.9606    1.6282   -3.1578 H         1 RES1    0.0000
     38 H16        4.5093    3.0513   -3.5171 H         1 RES1    0.0000
     39 H17        3.8366    2.1680   -4.6241 H         1 RES1    0.0000
     40 C20        2.2160    4.1987   -4.3102 C.3       1 RES1    0.0000
     41 H18        2.1554    3.8716   -5.2107 H         1 RES1    0.0000
     42 H19        2.9456    4.8187   -4.2441 H         1 RES1    0.0000
     43 H20        1.3971    4.6402   -4.0748 H         1 RES1    0.0000
     44 N2         1.3745    2.0678   -3.5748 N.3       1 RES1    0.0000
     45 O3         1.1129    1.8030   -4.8046 O.2       1 RES1    0.0000
     46 C21        0.8148    1.1259   -2.5750 C.3       1 RES1    0.0000
     47 C22       -0.6516    0.9712   -2.9102 C.3       1 RES1    0.0000
     48 H21       -1.0969    1.8120   -2.7922 H         1 RES1    0.0000
     49 H22       -1.0455    0.3162   -2.3296 H         1 RES1    0.0000
     50 H23       -0.7430    0.6841   -3.8228 H         1 RES1    0.0000
     51 C23        1.5428   -0.1980   -2.7633 C.3       1 RES1    0.0000
     52 H24        1.5405   -0.4358   -3.6927 H         1 RES1    0.0000
     53 H25        1.0984   -0.8816   -2.2573 H         1 RES1    0.0000
     54 H26        2.4482   -0.1115   -2.4577 H         1 RES1    0.0000
     55 C24        0.9561    1.6862   -1.1584 C.3       1 RES1    0.0000
     56 H27        0.1772    2.2357   -0.9789 H         1 RES1    0.0000
     57 H28        0.9269    0.9383   -0.5411 H         1 RES1    0.0000
     58 C25        1.8696    3.2518    0.4775 C.2       1 RES1    0.0000
     59 O4         1.1877    4.2261    0.5138 O.2       1 RES1    0.0000
     60 O5         2.3509    2.6618    1.5351 O.3       1 RES1    0.0000
     61 C26        2.0957    3.2965    2.8121 C.3       1 RES1    0.0000
     62 H29        2.3140    4.2408    2.7592 H         1 RES1    0.0000
     63 H30        1.1565    3.2138    3.0401 H         1 RES1    0.0000
     64 C27        2.9032    2.6625    3.8245 C.2       1 RES1    0.0000
     65 H31        2.7717    2.9665    4.6943 H         1 RES1    0.0000
     66 C28        3.7059    1.8115    3.6972 C.2       1 RES1    0.0000
     67 H32        3.8846    1.4638    2.8542 H         1 RES1    0.0000
     68 H33        4.1620    1.4873    4.4403 H         1 RES1    0.0000
     69 C29        5.0199    1.0282   11.8247 C.ar      2 RES2    0.0000
     70 C30        5.0723    1.3282   13.1809 C.ar      2 RES2    0.0000
     71 H34        4.5185    1.9784   13.5522 H         2 RES2    0.0000
     72 C31        5.9815    0.6213   13.9674 C.ar      2 RES2    0.0000
     73 H35        6.0419    0.8144   14.8740 H         2 RES2    0.0000
     74 C32        6.7786   -0.3385   13.4428 C.ar      2 RES2    0.0000
     75 H36        7.3694   -0.7994   13.9963 H         2 RES2    0.0000
     76 C33        6.7272   -0.6346   12.1355 C.ar      2 RES2    0.0000
     77 H37        7.2719   -1.3008   11.7844 H         2 RES2    0.0000
     78 C34        5.8608    0.0580   11.3102 C.ar      2 RES2    0.0000
     79 C35        5.6298   -0.0505    9.8941 C.ar      2 RES2    0.0000
     80 C36        6.2339   -0.8677    8.9281 C.ar      2 RES2    0.0000
     81 H38        6.9021   -1.4699    9.1656 H         2 RES2    0.0000
     82 C37        5.8204   -0.7608    7.6435 C.ar      2 RES2    0.0000
     83 H39        6.2171   -1.3034    7.0012 H         2 RES2    0.0000
     84 C38        4.8755    0.0837    7.2635 C.ar      2 RES2    0.0000
     85 H40        4.6381    0.1356    6.3672 H         2 RES2    0.0000
     86 C39        4.2305    0.8983    8.1987 C.ar      2 RES2    0.0000
     87 H41        3.5513    1.4766    7.9409 H         2 RES2    0.0000
     88 C40        4.6366    0.8173    9.5275 C.ar      2 RES2    0.0000
     89 C41        4.1468    1.5839   10.7259 C.3       2 RES2    0.0000
     90 H42        3.2208    1.3183   10.9046 H         2 RES2    0.0000
     91 C42        4.1877    3.0780   10.5741 C.3       2 RES2    0.0000
     92 H43        3.5330    3.3658    9.9174 H         2 RES2    0.0000
     93 H44        3.9831    3.5068   11.4209 H         2 RES2    0.0000
     94 O6         5.5128    3.4411   10.1423 O.3       2 RES2    0.0000
     95 C43        5.7261    4.7506   10.0126 C.2       2 RES2    0.0000
     96 O7         4.8808    5.5828   10.2677 O.2       2 RES2    0.0000
     97 N3         6.9471    5.0393    9.5397 N.am      2 RES2    0.0000
     98 H45        7.1014    5.8608    9.3350 H         2 RES2    0.0000
     99 C44        8.0388    4.0943    9.3387 C.3       2 RES2    0.0000
    100 C45        9.3075    4.8617    8.9455 C.3       2 RES2    0.0000
    101 H46        9.4155    5.5946    9.5704 H         2 RES2    0.0000
    102 H47       10.0637    4.2670    9.0706 H         2 RES2    0.0000
    103 C46        9.3937    5.4344    7.5368 C.3       2 RES2    0.0000
    104 C47        8.7516    6.8062    7.4073 C.3       2 RES2    0.0000
    105 H48        8.8423    7.1181    6.5035 H         2 RES2    0.0000
    106 H49        9.1864    7.4199    8.0029 H         2 RES2    0.0000
    107 H50        7.8205    6.7462    7.6332 H         2 RES2    0.0000
    108 C48       10.8793    5.5380    7.1768 C.3       2 RES2    0.0000
    109 H51       11.2938    4.6771    7.2739 H         2 RES2    0.0000
    110 H52       11.3069    6.1677    7.7613 H         2 RES2    0.0000
    111 H53       10.9675    5.8354    6.2681 H         2 RES2    0.0000
    112 N4         8.7701    4.5259    6.5489 N.3       2 RES2    0.0000
    113 O8         8.9793    4.8243    5.3150 O.2       2 RES2    0.0000
    114 C49        7.6625    3.5713    6.8319 C.3       2 RES2    0.0000
    115 C50        6.3051    4.2084    6.5324 C.3       2 RES2    0.0000
    116 H54        6.1771    4.9713    7.1004 H         2 RES2    0.0000
    117 H55        5.6081    3.5687    6.6956 H         2 RES2    0.0000
    118 H56        6.2771    4.4856    5.6134 H         2 RES2    0.0000
    119 C51        7.8754    2.4013    5.8591 C.3       2 RES2    0.0000
    120 H57        7.8261    2.7223    4.9546 H         2 RES2    0.0000
    121 H58        7.1939    1.7394    5.9996 H         2 RES2    0.0000
    122 H59        8.7385    2.0098    6.0120 H         2 RES2    0.0000
    123 C52        7.7746    3.0495    8.2441 C.3       2 RES2    0.0000
    124 H60        8.4905    2.3966    8.2693 H         2 RES2    0.0000
    125 H61        6.9507    2.5852    8.4614 H         2 RES2    0.0000
    126 C53        8.3921    3.3599   10.6307 C.2       2 RES2    0.0000
    127 O9         8.9887    2.3339   10.6737 O.2       2 RES2    0.0000
    128 O10        8.0243    4.0252   11.7053 O.3       2 RES2    0.0000
    129 C54        8.2964    3.4150   12.9864 C.3       2 RES2    0.0000
    130 H62        9.2536    3.3672   13.1351 H         2 RES2    0.0000
    131 H63        7.9378    2.5137   13.0070 H         2 RES2    0.0000
    132 C55        7.6612    4.2370   14.0361 C.2       2 RES2    0.0000
    133 H64        7.7415    3.9333   14.9112 H         2 RES2    0.0000
    134 C56        7.0242    5.3051   13.8600 C.2       2 RES2    0.0000
    135 H65        6.9179    5.6479   13.0029 H         2 RES2    0.0000
    136 H66        6.6590    5.7538   14.5890 H         2 RES2    0.0000
@<TRIPOS>BOND
     1    1    2 ar
     2    2    3 1
     3    4    2 ar
     4    5    4 1
     5    6    4 ar
     6    7    6 1
     7    8    6 ar
     8    9    8 1
     9   10    1 ar
    10   11   10 1
    11   12   11 ar
    12   13   12 1
    13   14   12 ar
    14   15   14 1
    15   16   14 ar
    16   17   16 1
    17   18   16 ar
    18   19   18 1
    19   20   11 ar
    20   21    1 1
    21   22   21 1
    22   23   21 1
    23   24   23 1
    24   25   23 1
    25   26   23 1
    26   27   26 1
    27   28   27 2
    28   29   27 1
    29   30   29 1
    30   31   29 1
    31   32   31 1
    32   33   32 1
    33   34   32 1
    34   35   32 1
    35   36   35 1
    36   37   36 1
    37   38   36 1
    38   39   36 1
    39   40   35 1
    40   41   40 1
    41   42   40 1
    42   43   40 1
    43   44   35 1
    44   45   44 1
    45   46   44 1
    46   47   46 1
    47   48   47 1
    48   49   47 1
    49   50   47 1
    50   51   46 1
    51   52   51 1
    52   53   51 1
    53   54   51 1
    54   55   31 1
    55   56   55 1
    56   57   55 1
    57   58   31 1
    58   59   58 2
    59   60   58 1
    60   61   60 1
    61   62   61 1
    62   63   61 1
    63   64   61 1
    64   65   64 1
    65   66   64 2
    66   67   66 1
    67   68   66 1
    68   69   70 ar
    69   70   71 1
    70   72   70 ar
    71   73   72 1
    72   74   72 ar
    73   75   74 1
    74   76   74 ar
    75   77   76 1
    76   78   69 ar
    77   79   78 1
    78   80   79 ar
    79   81   80 1
    80   82   80 ar
    81   83   82 1
    82   84   82 ar
    83   85   84 1
    84   86   84 ar
    85   87   86 1
    86   88   79 ar
    87   89   69 1
    88   90   89 1
    89   91   89 1
    90   92   91 1
    91   93   91 1
    92   94   91 1
    93   95   94 1
    94   96   95 2
    95   97   95 1
    96   98   97 1
    97   99   97 1
    98  100   99 1
    99  101  100 1
   100  102  100 1
   101  103  100 1
   102  104  103 1
   103  105  104 1
   104  106  104 1
   105  107  104 1
   106  108  103 1
   107  109  108 1
   108  110  108 1
   109  111  108 1
   110  112  103 1
   111  113  112 1
   112  114  112 1
   113  115  114 1
   114  116  115 1
   115  117  115 1
   116  118  115 1
   117  119  114 1
   118  120  119 1
   119  121  119 1
   120  122  119 1
   121  123   99 1
   122  124  123 1
   123  125  123 1
   124  126   99 1
   125  127  126 2
   126  128  126 1
   127  129  128 1
   128  130  129 1
   129  131  129 1
   130  132  129 1
   131  133  132 1
   132  134  132 2
   133  135  134 1
   134  136  134 1
   135    8   10 ar
   136   18   20 ar
   137   20   21 1
   138   46   55 1
   139   76   78 ar
   140   86   88 ar
   141   88   89 1
   142  114  123 1
@<TRIPOS>SUBSTRUCTURE
     1 RES1 1
     2 RES2 69

@<TRIPOS>CRYSIN
   8.4330   15.5580   20.7230  94.0600  91.2400 105.4700   2 1

