# MOL2 file generated by ConQuest
# Please check atom types

@<TRIPOS>MOLECULE
WAPQAG
   138   138     1
SMALL
NO_CHARGES
****
Generated from CSD

@<TRIPOS>ATOM
      1 C1         5.2665    3.7897    1.6788 C.3       1 RES1    0.0000
      2 C2         5.9500    5.1144    1.9318 C.3       1 RES1    0.0000
      3 H1         6.8894    5.0304    1.7514 H         1 RES1    0.0000
      4 H2         5.8233    5.3716    2.8491 H         1 RES1    0.0000
      5 H3         5.5721    5.7858    1.3578 H         1 RES1    0.0000
      6 C3         3.7947    3.8809    2.0127 C.3       1 RES1    0.0000
      7 H4         3.4109    4.6381    1.5640 H         1 RES1    0.0000
      8 H5         3.6874    3.9813    2.9604 H         1 RES1    0.0000
      9 H6         3.3520    3.0799    1.7233 H         1 RES1    0.0000
     10 C4         5.9133    2.6712    2.4086 C.3       1 RES1    0.0000
     11 H7         5.5149    1.8392    2.1380 H         1 RES1    0.0000
     12 H8         5.7892    2.7916    3.3529 H         1 RES1    0.0000
     13 H9         6.8508    2.6566    2.2083 H         1 RES1    0.0000
     14 O1         5.2553    3.5569    0.2205 O.3       1 RES1    0.0000
     15 C5         6.3715    3.4266   -0.4745 C.2       1 RES1    0.0000
     16 O2         7.5078    3.3803   -0.0231 O.2       1 RES1    0.0000
     17 N1         6.1076    3.3602   -1.7924 N.am      1 RES1    0.0000
     18 H10        5.3192    3.5653   -2.0666 H         1 RES1    0.0000
     19 C6         7.1148    2.9538   -2.7800 C.3       1 RES1    0.0000
     20 C7         6.4689    3.1164   -4.1741 C.3       1 RES1    0.0000
     21 H11        5.5081    3.0325   -4.0710 H         1 RES1    0.0000
     22 H12        6.6470    4.0178   -4.4834 H         1 RES1    0.0000
     23 C8         6.9139    2.1421   -5.2730 C.3       1 RES1    0.0000
     24 C9         8.3282    2.3537   -5.7334 C.3       1 RES1    0.0000
     25 H13        8.9279    2.2297   -4.9942 H         1 RES1    0.0000
     26 H14        8.4233    3.2441   -6.0767 H         1 RES1    0.0000
     27 H15        8.5371    1.7206   -6.4246 H         1 RES1    0.0000
     28 C10        5.9660    2.3464   -6.4656 C.3       1 RES1    0.0000
     29 H16        6.2748    1.8282   -7.2119 H         1 RES1    0.0000
     30 H17        5.9500    3.2770   -6.7069 H         1 RES1    0.0000
     31 H18        5.0810    2.0636   -6.2243 H         1 RES1    0.0000
     32 N2         6.7694    0.7773   -4.7458 N.3       1 RES1    0.0000
     33 O3         6.5784   -0.1733   -5.5963 O.2       1 RES1    0.0000
     34 C11        6.8576    0.4124   -3.3271 C.3       1 RES1    0.0000
     35 C12        5.4184    0.2299   -2.7788 C.3       1 RES1    0.0000
     36 H19        4.8946    1.0072   -2.9909 H         1 RES1    0.0000
     37 H20        5.4496    0.1168   -1.8252 H         1 RES1    0.0000
     38 H21        5.0181   -0.5456   -3.1795 H         1 RES1    0.0000
     39 C13        7.6527   -0.8557   -3.2018 C.3       1 RES1    0.0000
     40 H22        7.1941   -1.5655   -3.6563 H         1 RES1    0.0000
     41 H23        7.7531   -1.0802   -2.2739 H         1 RES1    0.0000
     42 H24        8.5184   -0.7298   -3.5966 H         1 RES1    0.0000
     43 C14        7.5956    1.5199   -2.5691 C.3       1 RES1    0.0000
     44 H25        7.5400    1.3210   -1.6214 H         1 RES1    0.0000
     45 H26        8.5323    1.4779   -2.8163 H         1 RES1    0.0000
     46 C15        8.3179    3.9008   -2.6968 C.2       1 RES1    0.0000
     47 O4         9.4667    3.5229   -2.9217 O.2       1 RES1    0.0000
     48 N3         8.0548    5.1996   -2.4227 N.am      1 RES1    0.0000
     49 H27        7.2711    5.4081   -2.1357 H         1 RES1    0.0000
     50 C16        9.0442    6.2657   -2.5926 C.3       1 RES1    0.0000
     51 C17        8.4257    7.5830   -2.0607 C.3       1 RES1    0.0000
     52 H28        7.6151    7.7564   -2.5820 H         1 RES1    0.0000
     53 C18        9.3585    8.7836   -2.2552 C.3       1 RES1    0.0000
     54 H29        9.0866    9.4970   -1.6764 H         1 RES1    0.0000
     55 H30        9.3164    9.0774   -3.1690 H         1 RES1    0.0000
     56 H31       10.2597    8.5264   -2.0443 H         1 RES1    0.0000
     57 C19        8.0237    7.5520   -0.5869 C.3       1 RES1    0.0000
     58 H32        8.8106    7.4772   -0.0422 H         1 RES1    0.0000
     59 H33        7.4512    6.7985   -0.4264 H         1 RES1    0.0000
     60 H34        7.5561    8.3603   -0.3655 H         1 RES1    0.0000
     61 C20        9.4077    6.4062   -4.0757 C.3       1 RES1    0.0000
     62 H35        9.7251    5.5632   -4.4084 H         1 RES1    0.0000
     63 H36       10.0961    7.0685   -4.1753 H         1 RES1    0.0000
     64 H37        8.6304    6.6744   -4.5713 H         1 RES1    0.0000
     65 C21       10.3135    5.9351   -1.7795 C.2       1 RES1    0.0000
     66 O5        11.3990    6.3556   -2.1451 O.2       1 RES1    0.0000
     67 N4        10.1640    5.2359   -0.6478 N.am      1 RES1    0.0000
     68 H38        9.3831    4.9392   -0.4417 H         1 RES1    0.0000
     69 C22       11.2939    4.9611    0.2530 C.3       1 RES1    0.0000
     70 C23       10.8206    3.8390    1.2524 C.3       1 RES1    0.0000
     71 H39       10.4121    3.1255    0.7193 H         1 RES1    0.0000
     72 C24        9.7830    4.3261    2.2224 C.3       1 RES1    0.0000
     73 H40        9.4859    3.5926    2.7671 H         1 RES1    0.0000
     74 H41        9.0372    4.6874    1.7385 H         1 RES1    0.0000
     75 H42       10.1633    5.0067    2.7812 H         1 RES1    0.0000
     76 C25       12.0132    3.2186    2.0185 C.3       1 RES1    0.0000
     77 H43       12.5048    3.9138    2.4625 H         1 RES1    0.0000
     78 H44       12.5903    2.7643    1.3988 H         1 RES1    0.0000
     79 H45       11.6854    2.5928    2.6687 H         1 RES1    0.0000
     80 C26       11.7214    6.2365    0.9677 C.3       1 RES1    0.0000
     81 H46       11.9728    6.8988    0.3187 H         1 RES1    0.0000
     82 H47       12.4688    6.0485    1.5394 H         1 RES1    0.0000
     83 H48       10.9911    6.5667    1.4960 H         1 RES1    0.0000
     84 C27       12.4718    4.4064   -0.5530 C.2       1 RES1    0.0000
     85 O6        13.6228    4.7648   -0.3339 O.2       1 RES1    0.0000
     86 N5        12.1786    3.4472   -1.4468 N.am      1 RES1    0.0000
     87 H49       11.3528    3.2825   -1.6167 H         1 RES1    0.0000
     88 C28       13.2020    2.6730   -2.1415 C.3       1 RES1    0.0000
     89 C29       12.4529    1.7881   -3.1994 C.3       1 RES1    0.0000
     90 H50       11.8678    2.3793   -3.7184 H         1 RES1    0.0000
     91 C30       11.5686    0.7152   -2.5551 C.3       1 RES1    0.0000
     92 H51       11.1014    0.2299   -3.2392 H         1 RES1    0.0000
     93 H52       10.9325    1.1331   -1.9693 H         1 RES1    0.0000
     94 H53       12.1162    0.1095   -2.0513 H         1 RES1    0.0000
     95 C31       13.3771    1.0966   -4.1753 C.3       1 RES1    0.0000
     96 H54       14.0037    0.5529   -3.6915 H         1 RES1    0.0000
     97 H55       13.8537    1.7553   -4.6861 H         1 RES1    0.0000
     98 H56       12.8623    0.5419   -4.7657 H         1 RES1    0.0000
     99 C32       14.0316    1.8593   -1.1200 C.3       1 RES1    0.0000
    100 H57       14.6729    2.4358   -0.6982 H         1 RES1    0.0000
    101 H58       14.4892    1.1477   -1.5733 H         1 RES1    0.0000
    102 H59       13.4462    1.4907   -0.4545 H         1 RES1    0.0000
    103 C33       14.1529    3.6182   -2.9124 C.2       1 RES1    0.0000
    104 O7        15.3625    3.4576   -2.9347 O.2       1 RES1    0.0000
    105 N6        13.5354    4.5743   -3.6399 N.am      1 RES1    0.0000
    106 H60       12.6842    4.6582   -3.5520 H         1 RES1    0.0000
    107 C34       14.2184    5.4793   -4.5689 C.3       1 RES1    0.0000
    108 C35       13.0616    6.3113   -5.2484 C.3       1 RES1    0.0000
    109 H61       12.5027    6.6671   -4.5279 H         1 RES1    0.0000
    110 C36       12.1771    5.4738   -6.1212 C.3       1 RES1    0.0000
    111 H62       11.4555    6.0121   -6.4551 H         1 RES1    0.0000
    112 H63       11.8202    4.7440   -5.6081 H         1 RES1    0.0000
    113 H64       12.6866    5.1290   -6.8569 H         1 RES1    0.0000
    114 C37       13.5908    7.5064   -6.0404 C.3       1 RES1    0.0000
    115 H65       14.2511    7.2072   -6.6695 H         1 RES1    0.0000
    116 H66       13.9878    8.1395   -5.4382 H         1 RES1    0.0000
    117 H67       12.8669    7.9242   -6.5125 H         1 RES1    0.0000
    118 C38       15.0495    4.7093   -5.5776 C.3       1 RES1    0.0000
    119 H68       15.7907    4.2933   -5.1313 H         1 RES1    0.0000
    120 H69       15.3771    5.3132   -6.2489 H         1 RES1    0.0000
    121 H70       14.5066    4.0342   -5.9923 H         1 RES1    0.0000
    122 C39       15.1392    6.4354   -3.7735 C.2       1 RES1    0.0000
    123 O8        16.2270    6.7328   -4.1999 O.2       1 RES1    0.0000
    124 N7        14.6074    6.9773   -2.7050 N.am      1 RES1    0.0000
    125 H71       13.8092    6.7273   -2.5035 H         1 RES1    0.0000
    126 C40       15.2420    7.9844   -1.7971 C.3       1 RES1    0.0000
    127 C41       14.2815    8.2691   -0.6432 C.3       1 RES1    0.0000
    128 H72       13.5525    8.8092   -0.9583 H         1 RES1    0.0000
    129 H73       14.7484    8.7380    0.0539 H         1 RES1    0.0000
    130 H74       13.9402    7.4407   -0.2987 H         1 RES1    0.0000
    131 C42       16.5312    7.3787   -1.2617 C.3       1 RES1    0.0000
    132 H75       16.3379    6.5321   -0.8494 H         1 RES1    0.0000
    133 H76       16.9182    7.9699   -0.6127 H         1 RES1    0.0000
    134 H77       17.1489    7.2473   -1.9846 H         1 RES1    0.0000
    135 C43       15.4702    9.2489   -2.6722 C.3       1 RES1    0.0000
    136 H78       15.9818    9.0117   -3.4501 H         1 RES1    0.0000
    137 H79       15.9486    9.9076   -2.1638 H         1 RES1    0.0000
    138 H80       14.6218    9.6083   -2.9440 H         1 RES1    0.0000
@<TRIPOS>BOND
     1    1    2 1
     2    2    3 1
     3    4    2 1
     4    5    2 1
     5    6    1 1
     6    7    6 1
     7    8    6 1
     8    9    6 1
     9   10    1 1
    10   11   10 1
    11   12   10 1
    12   13   10 1
    13   14    1 1
    14   15   14 1
    15   16   15 2
    16   17   15 1
    17   18   17 1
    18   19   17 1
    19   20   19 1
    20   21   20 1
    21   22   20 1
    22   23   20 1
    23   24   23 1
    24   25   24 1
    25   26   24 1
    26   27   24 1
    27   28   23 1
    28   29   28 1
    29   30   28 1
    30   31   28 1
    31   32   23 1
    32   33   32 1
    33   34   32 1
    34   35   34 1
    35   36   35 1
    36   37   35 1
    37   38   35 1
    38   39   34 1
    39   40   39 1
    40   41   39 1
    41   42   39 1
    42   43   19 1
    43   44   43 1
    44   45   43 1
    45   46   19 1
    46   47   46 2
    47   48   46 1
    48   49   48 1
    49   50   48 1
    50   51   50 1
    51   52   51 1
    52   53   51 1
    53   54   53 1
    54   55   53 1
    55   56   53 1
    56   57   51 1
    57   58   57 1
    58   59   57 1
    59   60   57 1
    60   61   50 1
    61   62   61 1
    62   63   61 1
    63   64   61 1
    64   65   50 1
    65   66   65 2
    66   67   65 1
    67   68   67 1
    68   69   67 1
    69   70   69 1
    70   71   70 1
    71   72   70 1
    72   73   72 1
    73   74   72 1
    74   75   72 1
    75   76   70 1
    76   77   76 1
    77   78   76 1
    78   79   76 1
    79   80   69 1
    80   81   80 1
    81   82   80 1
    82   83   80 1
    83   84   69 1
    84   85   84 2
    85   86   84 1
    86   87   86 1
    87   88   86 1
    88   89   88 1
    89   90   89 1
    90   91   89 1
    91   92   91 1
    92   93   91 1
    93   94   91 1
    94   95   89 1
    95   96   95 1
    96   97   95 1
    97   98   95 1
    98   99   88 1
    99  100   99 1
   100  101   99 1
   101  102   99 1
   102  103   88 1
   103  104  103 2
   104  105  103 1
   105  106  105 1
   106  107  105 1
   107  108  107 1
   108  109  108 1
   109  110  108 1
   110  111  110 1
   111  112  110 1
   112  113  110 1
   113  114  108 1
   114  115  114 1
   115  116  114 1
   116  117  114 1
   117  118  107 1
   118  119  118 1
   119  120  118 1
   120  121  118 1
   121  122  107 1
   122  123  122 2
   123  124  122 1
   124  125  124 1
   125  126  124 1
   126  127  126 1
   127  128  127 1
   128  129  127 1
   129  130  127 1
   130  131  126 1
   131  132  131 1
   132  133  131 1
   133  134  131 1
   134  135  126 1
   135  136  135 1
   136  137  135 1
   137  138  135 1
   138   34   43 1
@<TRIPOS>SUBSTRUCTURE
     1 RES1 1

@<TRIPOS>CRYSIN
  12.0450   18.2460   12.5870  90.0000 111.4500  90.0000   4 1

