# MOL2 file generated by ConQuest
# Please check atom types

@<TRIPOS>MOLECULE
WAPQIO
   156   160     1
SMALL
NO_CHARGES
****
Generated from CSD

@<TRIPOS>ATOM
      1 C1         2.6995    2.9507    3.6887 C.ar      1 RES1    0.0000
      2 H1         3.0688    2.9950    4.5525 H         1 RES1    0.0000
      3 C2         3.5139    3.0106    2.5677 C.ar      1 RES1    0.0000
      4 C3         1.3424    2.8263    3.5124 C.ar      1 RES1    0.0000
      5 H2         0.7864    2.7784    4.2698 H         1 RES1    0.0000
      6 C4         0.7703    2.7689    2.2562 C.ar      1 RES1    0.0000
      7 H3        -0.1617    2.6959    2.1656 H         1 RES1    0.0000
      8 C5         1.5801    2.8215    1.1281 C.ar      1 RES1    0.0000
      9 H4         1.2040    2.7617    0.2694 H         1 RES1    0.0000
     10 C6         2.9346    2.9603    1.2873 C.ar      1 RES1    0.0000
     11 C7         3.9743    3.0740   -1.0905 C.ar      1 RES1    0.0000
     12 H5         3.1569    2.9747   -1.5442 H         1 RES1    0.0000
     13 C8         4.0174    3.0872    0.3003 C.ar      1 RES1    0.0000
     14 C9         5.1523    3.2068   -1.7837 C.ar      1 RES1    0.0000
     15 H6         5.1435    3.1865   -2.7230 H         1 RES1    0.0000
     16 C10        6.3459    3.3695   -1.1185 C.ar      1 RES1    0.0000
     17 H7         7.1401    3.4784   -1.6108 H         1 RES1    0.0000
     18 C11        6.3909    3.3755    0.2616 C.ar      1 RES1    0.0000
     19 H8         7.2114    3.4856    0.7094 H         1 RES1    0.0000
     20 C12        5.2321    3.2176    0.9684 C.ar      1 RES1    0.0000
     21 C13        5.0149    3.1314    2.4571 C.3       1 RES1    0.0000
     22 H9         5.4114    2.2783    2.7710 H         1 RES1    0.0000
     23 C14        5.6278    4.2574    3.2812 C.3       1 RES1    0.0000
     24 H10        5.4335    4.1186    4.2325 H         1 RES1    0.0000
     25 H11        6.6005    4.2658    3.1630 H         1 RES1    0.0000
     26 O1         5.0732    5.5042    2.8475 O.3       1 RES1    0.0000
     27 C15        4.3483    6.2126    3.7460 C.2       1 RES1    0.0000
     28 O2         4.1563    5.8608    4.8981 O.2       1 RES1    0.0000
     29 N1         3.8925    7.3457    3.2033 N.am      1 RES1    0.0000
     30 H12        4.2286    7.6222    2.4509 H         1 RES1    0.0000
     31 C16        2.8370    8.1331    3.8487 C.3       1 RES1    0.0000
     32 C17        3.3527    8.5830    5.2427 C.2       1 RES1    0.0000
     33 O3         2.5825    8.6715    6.2119 O.2       1 RES1    0.0000
     34 C18        2.6292    9.4003    2.9753 C.3       1 RES1    0.0000
     35 H13        3.2384   10.0967    3.2990 H         1 RES1    0.0000
     36 H14        2.8942    9.1849    2.0562 H         1 RES1    0.0000
     37 C19        1.2281    9.9782    2.9401 C.3       1 RES1    0.0000
     38 C20        0.8330   10.6722    4.2418 C.3       1 RES1    0.0000
     39 H15        0.8630   10.0332    4.9712 H         1 RES1    0.0000
     40 H16       -0.0654   11.0264    4.1605 H         1 RES1    0.0000
     41 H17        1.4512   11.3985    4.4218 H         1 RES1    0.0000
     42 C21        1.1715   10.9893    1.7709 C.3       1 RES1    0.0000
     43 H18        1.4135   10.5430    0.9441 H         1 RES1    0.0000
     44 H19        1.7914   11.7156    1.9415 H         1 RES1    0.0000
     45 H20        0.2704   11.3447    1.6935 H         1 RES1    0.0000
     46 N2         0.2651    8.8977    2.6502 N.3       1 RES1    0.0000
     47 O4        -0.9048    9.2519    2.2570 O.2       1 RES1    0.0000
     48 C22        0.5729    7.4522    2.8214 C.3       1 RES1    0.0000
     49 C23        1.1111    6.8994    1.5023 C.3       1 RES1    0.0000
     50 H21        0.4451    7.0167    0.8054 H         1 RES1    0.0000
     51 H22        1.3090    5.9541    1.6028 H         1 RES1    0.0000
     52 H23        1.9221    7.3745    1.2588 H         1 RES1    0.0000
     53 C24       -0.7140    6.7211    3.1897 C.3       1 RES1    0.0000
     54 H24       -1.3462    6.7905    2.4589 H         1 RES1    0.0000
     55 H25       -1.0963    7.1220    3.9871 H         1 RES1    0.0000
     56 H26       -0.5173    5.7866    3.3604 H         1 RES1    0.0000
     57 C25        1.5519    7.3374    3.9850 C.3       1 RES1    0.0000
     58 H27        1.0954    7.6281    4.8005 H         1 RES1    0.0000
     59 H28        1.7847    6.3921    4.0991 H         1 RES1    0.0000
     60 N3         4.6360    8.9061    5.3483 N.am      1 RES1    0.0000
     61 H29        5.1486    8.8068    4.6538 H         1 RES1    0.0000
     62 C26        5.2250    9.4242    6.5906 C.3       1 RES1    0.0000
     63 C27        4.8597    8.4657    7.7475 C.2       1 RES1    0.0000
     64 O5         4.6832    8.8965    8.8938 O.2       1 RES1    0.0000
     65 C28        4.7150   10.8373    6.9370 C.3       1 RES1    0.0000
     66 H30        3.8611   10.9737    6.4780 H         1 RES1    0.0000
     67 H31        4.5364   10.8672    7.8995 H         1 RES1    0.0000
     68 C29        5.6297   12.0100    6.5909 C.3       1 RES1    0.0000
     69 C30        5.6877   12.2900    5.0795 C.3       1 RES1    0.0000
     70 H32        6.2901   13.0306    4.9099 H         1 RES1    0.0000
     71 H33        4.8005   12.5149    4.7579 H         1 RES1    0.0000
     72 H34        6.0079   11.5002    4.6165 H         1 RES1    0.0000
     73 C31        5.0807   13.2544    7.3000 C.3       1 RES1    0.0000
     74 H35        5.0449   13.0929    8.2569 H         1 RES1    0.0000
     75 H36        4.1889   13.4471    6.9714 H         1 RES1    0.0000
     76 H37        5.6632   14.0106    7.1208 H         1 RES1    0.0000
     77 N4         6.9859   11.7443    7.0800 N.3       1 RES1    0.0000
     78 O6         7.7537   12.7518    7.2917 O.2       1 RES1    0.0000
     79 C32        7.5705   10.3970    7.2395 C.3       1 RES1    0.0000
     80 C33        8.9954   10.4293    6.6903 C.3       1 RES1    0.0000
     81 H38        9.5316   11.0431    7.2168 H         1 RES1    0.0000
     82 H39        8.9799   10.7249    5.7660 H         1 RES1    0.0000
     83 H40        9.3820    9.5403    6.7394 H         1 RES1    0.0000
     84 C34        7.6076   10.0536    8.7263 C.3       1 RES1    0.0000
     85 H41        8.1342   10.7165    9.1983 H         1 RES1    0.0000
     86 H42        8.0066    9.1777    8.8463 H         1 RES1    0.0000
     87 H43        6.7036   10.0476    9.0783 H         1 RES1    0.0000
     88 C35        6.7562    9.4206    6.3924 C.3       1 RES1    0.0000
     89 H44        7.0837    8.5148    6.5741 H         1 RES1    0.0000
     90 H45        6.9402    9.6120    5.4486 H         1 RES1    0.0000
     91 N5         4.8096    7.1591    7.4848 N.am      1 RES1    0.0000
     92 H46        4.9014    6.8827    6.6647 H         1 RES1    0.0000
     93 C36        4.6007    6.1803    8.5607 C.3       1 RES1    0.0000
     94 C37        3.3396    6.5165    9.3728 C.2       1 RES1    0.0000
     95 O7         3.2857    6.2138   10.5630 O.2       1 RES1    0.0000
     96 C38        4.3620    4.8102    7.9054 C.3       1 RES1    0.0000
     97 H47        3.5826    4.8569    7.3315 H         1 RES1    0.0000
     98 H48        4.2182    4.1425    8.5956 H         1 RES1    0.0000
     99 H49        5.1393    4.5649    7.3768 H         1 RES1    0.0000
    100 C39        5.8203    6.1432    9.4885 C.3       1 RES1    0.0000
    101 H50        5.9542    7.0191    9.8811 H         1 RES1    0.0000
    102 H51        6.6058    5.8931    8.9796 H         1 RES1    0.0000
    103 H52        5.6699    5.4911   10.1931 H         1 RES1    0.0000
    104 N6         2.3039    7.0550    8.7314 N.am      1 RES1    0.0000
    105 H53        2.3945    7.2536    7.8889 H         1 RES1    0.0000
    106 C40        1.0166    7.3302    9.3837 C.3       1 RES1    0.0000
    107 C41        1.2029    8.2300   10.6177 C.2       1 RES1    0.0000
    108 O8         0.4218    8.1462   11.5573 O.2       1 RES1    0.0000
    109 C42        0.1578    8.1163    8.3676 C.3       1 RES1    0.0000
    110 H54        0.0216    7.5755    7.5742 H         1 RES1    0.0000
    111 H55        0.6146    8.9360    8.1236 H         1 RES1    0.0000
    112 H56       -0.6997    8.3293    8.7663 H         1 RES1    0.0000
    113 C43        0.3426    6.0211    9.7797 C.3       1 RES1    0.0000
    114 H57        0.9020    5.5473   10.4145 H         1 RES1    0.0000
    115 H58        0.2115    5.4719    8.9903 H         1 RES1    0.0000
    116 H59       -0.5186    6.2102   10.1878 H         1 RES1    0.0000
    117 N7         2.2026    9.1250   10.5702 N.am      1 RES1    0.0000
    118 H60        2.6985    9.1693    9.8571 H         1 RES1    0.0000
    119 C44        2.4799   10.0344   11.6925 C.3       1 RES1    0.0000
    120 C45        2.7686    9.2184   12.9587 C.2       1 RES1    0.0000
    121 O9         2.5054    9.6779   14.0807 O.2       1 RES1    0.0000
    122 C46        3.7564   10.8086   11.3807 C.3       1 RES1    0.0000
    123 H61        4.4871   10.1864   11.2412 H         1 RES1    0.0000
    124 H62        3.9689   11.3949   12.1240 H         1 RES1    0.0000
    125 H63        3.6255   11.3387   10.5798 H         1 RES1    0.0000
    126 C47        1.3239   11.0192   11.9176 C.3       1 RES1    0.0000
    127 H64        0.5139   10.5262   12.1240 H         1 RES1    0.0000
    128 H65        1.1858   11.5457   11.1132 H         1 RES1    0.0000
    129 H66        1.5410   11.6091   12.6574 H         1 RES1    0.0000
    130 N8         3.4096    8.0673   12.8070 N.am      1 RES1    0.0000
    131 H67        3.6092    7.8004   12.0040 H         1 RES1    0.0000
    132 C48        3.7938    7.2273   13.9477 C.3       1 RES1    0.0000
    133 C49        4.4102    8.1151   15.0390 C.2       1 RES1    0.0000
    134 O10        4.1070    8.0433   16.2071 O.2       1 RES1    0.0000
    135 C50        4.8839    6.2581   13.4841 C.3       1 RES1    0.0000
    136 H68        5.6554    6.7594   13.1774 H         1 RES1    0.0000
    137 H69        4.5441    5.7112   12.7587 H         1 RES1    0.0000
    138 H70        5.1444    5.6861   14.2229 H         1 RES1    0.0000
    139 C51        2.5796    6.4579   14.4544 C.3       1 RES1    0.0000
    140 H71        1.8995    7.0849   14.7456 H         1 RES1    0.0000
    141 H72        2.8411    5.8955   15.1990 H         1 RES1    0.0000
    142 H73        2.2259    5.9063   13.7402 H         1 RES1    0.0000
    143 O11        5.3565    8.8785   14.5219 O.3       1 RES1    0.0000
    144 C52        6.1778    9.7616   15.3587 C.3       1 RES1    0.0000
    145 C53        7.0139    8.9575   16.3058 C.3       1 RES1    0.0000
    146 H74        7.5903    8.3616   15.7991 H         1 RES1    0.0000
    147 H75        6.4380    8.4346   16.8845 H         1 RES1    0.0000
    148 H76        7.5582    9.5534   16.8418 H         1 RES1    0.0000
    149 C54        5.2783   10.7524   16.0898 C.3       1 RES1    0.0000
    150 H77        4.7701   11.2669   15.4444 H         1 RES1    0.0000
    151 H78        5.8250   11.3519   16.6231 H         1 RES1    0.0000
    152 H79        4.6684   10.2690   16.6712 H         1 RES1    0.0000
    153 C55        7.0377   10.4556   14.3216 C.3       1 RES1    0.0000
    154 H80        7.6120    9.8035   13.8895 H         1 RES1    0.0000
    155 H81        7.5821   11.1317   14.7509 H         1 RES1    0.0000
    156 H82        6.4680   10.8732   13.6575 H         1 RES1    0.0000
@<TRIPOS>BOND
     1    1    2 1
     2    3    1 ar
     3    4    1 ar
     4    5    4 1
     5    6    4 ar
     6    7    6 1
     7    8    6 ar
     8    9    8 1
     9   10    3 ar
    10   11   12 1
    11   13   10 1
    12   14   11 ar
    13   15   14 1
    14   16   14 ar
    15   17   16 1
    16   18   16 ar
    17   19   18 1
    18   20   13 ar
    19   21    3 1
    20   22   21 1
    21   23   21 1
    22   24   23 1
    23   25   23 1
    24   26   23 1
    25   27   26 1
    26   28   27 2
    27   29   27 1
    28   30   29 1
    29   31   29 1
    30   32   31 1
    31   33   32 2
    32   34   31 1
    33   35   34 1
    34   36   34 1
    35   37   34 1
    36   38   37 1
    37   39   38 1
    38   40   38 1
    39   41   38 1
    40   42   37 1
    41   43   42 1
    42   44   42 1
    43   45   42 1
    44   46   37 1
    45   47   46 1
    46   48   46 1
    47   49   48 1
    48   50   49 1
    49   51   49 1
    50   52   49 1
    51   53   48 1
    52   54   53 1
    53   55   53 1
    54   56   53 1
    55   57   31 1
    56   58   57 1
    57   59   57 1
    58   60   32 1
    59   61   60 1
    60   62   60 1
    61   63   62 1
    62   64   63 2
    63   65   62 1
    64   66   65 1
    65   67   65 1
    66   68   65 1
    67   69   68 1
    68   70   69 1
    69   71   69 1
    70   72   69 1
    71   73   68 1
    72   74   73 1
    73   75   73 1
    74   76   73 1
    75   77   68 1
    76   78   77 1
    77   79   77 1
    78   80   79 1
    79   81   80 1
    80   82   80 1
    81   83   80 1
    82   84   79 1
    83   85   84 1
    84   86   84 1
    85   87   84 1
    86   88   62 1
    87   89   88 1
    88   90   88 1
    89   91   63 1
    90   92   91 1
    91   93   91 1
    92   94   93 1
    93   95   94 2
    94   96   93 1
    95   97   96 1
    96   98   96 1
    97   99   96 1
    98  100   93 1
    99  101  100 1
   100  102  100 1
   101  103  100 1
   102  104   94 1
   103  105  104 1
   104  106  104 1
   105  107  106 1
   106  108  107 2
   107  109  106 1
   108  110  109 1
   109  111  109 1
   110  112  109 1
   111  113  106 1
   112  114  113 1
   113  115  113 1
   114  116  113 1
   115  117  107 1
   116  118  117 1
   117  119  117 1
   118  120  119 1
   119  121  120 2
   120  122  119 1
   121  123  122 1
   122  124  122 1
   123  125  122 1
   124  126  119 1
   125  127  126 1
   126  128  126 1
   127  129  126 1
   128  130  120 1
   129  131  130 1
   130  132  130 1
   131  133  132 1
   132  134  133 2
   133  135  132 1
   134  136  135 1
   135  137  135 1
   136  138  135 1
   137  139  132 1
   138  140  139 1
   139  141  139 1
   140  142  139 1
   141  143  133 1
   142  144  143 1
   143  145  144 1
   144  146  145 1
   145  147  145 1
   146  148  145 1
   147  149  144 1
   148  150  149 1
   149  151  149 1
   150  152  149 1
   151  153  144 1
   152  154  153 1
   153  155  153 1
   154  156  153 1
   155    8   10 ar
   156   11   13 ar
   157   18   20 ar
   158   20   21 1
   159   48   57 1
   160   79   88 1
@<TRIPOS>SUBSTRUCTURE
     1 RES1 1

@<TRIPOS>CRYSIN
  19.6866   11.9657   27.1250  90.0000 100.5140  90.0000  14 1

