# MOL2 file generated by ConQuest
# Please check atom types

@<TRIPOS>MOLECULE
WAPTOX
    40    40     2
SMALL
NO_CHARGES
****
Generated from CSD

@<TRIPOS>ATOM
      1 O1         7.1704    5.6237    6.8383 O.3       1 RES1    0.0000
      2 O2         3.0394   12.4531    3.8269 O.2       1 RES1    0.0000
      3 O3         2.0858   12.1915    5.7407 O.2       1 RES1    0.0000
      4 N1         6.2037    6.6464    6.8991 N.2       1 RES1    0.0000
      5 N2         2.8882   11.8488    4.8863 N.pl3     1 RES1    0.0000
      6 C1         7.9946    5.7715    5.6134 C.3       1 RES1    0.0000
      7 H1         7.9485    4.9411    5.0587 H         1 RES1    0.0000
      8 C2         8.3301    6.4449    6.1425 Du        2 SUP2    0.0000
      9 C3         7.3439    6.9445    4.8765 C.3       1 RES1    0.0000
     10 H2         7.9959    7.6697    4.7058 H         1 RES1    0.0000
     11 H3         6.9472    6.6547    4.0174 H         1 RES1    0.0000
     12 C4         6.2839    7.3786    5.8511 C.2       1 RES1    0.0000
     13 C5         9.4337    6.0571    6.0257 C.3       1 RES1    0.0000
     14 H4         9.4669    6.9469    6.4812 H         1 RES1    0.0000
     15 C6         9.1517    5.3816    5.7098 Du        2 SUP2    0.0000
     16 C7         9.9638    4.9913    6.9907 C.ar      1 RES1    0.0000
     17 C8        10.6009    5.4179    8.1301 C.ar      1 RES1    0.0000
     18 H5        10.6591    6.3493    8.3102 H         1 RES1    0.0000
     19 C9        11.1616    4.5164    9.0250 C.ar      1 RES1    0.0000
     20 H6        11.6119    4.8345    9.7983 H         1 RES1    0.0000
     21 C10       11.0673    3.1657    8.7956 C.ar      1 RES1    0.0000
     22 H7        11.4394    2.5463    9.4126 H         1 RES1    0.0000
     23 C11       10.4251    2.7170    7.6590 C.ar      1 RES1    0.0000
     24 H8        10.3566    1.7851    7.4875 H         1 RES1    0.0000
     25 C12        9.8798    3.6305    6.7651 C.ar      1 RES1    0.0000
     26 H9         9.4411    3.3142    5.9841 H         1 RES1    0.0000
     27 C13        5.3807    8.5192    5.6364 C.ar      1 RES1    0.0000
     28 C14        5.4817    9.2331    4.4429 C.ar      1 RES1    0.0000
     29 H10        6.1304    8.9769    3.7978 H         1 RES1    0.0000
     30 C15        4.6540   10.3069    4.1835 C.ar      1 RES1    0.0000
     31 H11        4.7164   10.7829    3.3641 H         1 RES1    0.0000
     32 C16        3.7306   10.6731    5.1466 C.ar      1 RES1    0.0000
     33 C17        3.6010    9.9968    6.3481 C.ar      1 RES1    0.0000
     34 H12        2.9607   10.2710    6.9936 H         1 RES1    0.0000
     35 C18        4.4264    8.9130    6.5851 C.ar      1 RES1    0.0000
     36 H13        4.3459    8.4299    7.3990 H         1 RES1    0.0000
     37 C19       10.3083    6.1156    4.7654 C.3       1 RES1    0.0000
     38 H14       10.3038    5.2409    4.3234 H         1 RES1    0.0000
     39 H15       11.2266    6.3504    5.0161 H         1 RES1    0.0000
     40 H16        9.9529    6.7931    4.1529 H         1 RES1    0.0000
@<TRIPOS>BOND
     1    1    4 1
     2    2    5 2
     3    3    5 2
     4    4   12 2
     5    5   32 1
     6    6    1 1
     7    7    6 1
     8    9    6 1
     9   10    9 1
    10   11    9 1
    11   12    9 1
    12   13    6 1
    13   14   13 1
    14   16   13 1
    15   17   16 ar
    16   18   17 1
    17   19   17 ar
    18   20   19 1
    19   21   19 ar
    20   22   21 1
    21   23   21 ar
    22   24   23 1
    23   25   16 ar
    24   26   25 1
    25   27   12 1
    26   28   27 ar
    27   29   28 1
    28   30   28 ar
    29   31   30 1
    30   32   30 ar
    31   33   32 ar
    32   34   33 1
    33   35   27 ar
    34   36   35 1
    35   37   13 1
    36   38   37 1
    37   39   37 1
    38   40   37 1
    39   23   25 ar
    40   33   35 ar
@<TRIPOS>SUBSTRUCTURE
     1 RES1 1
     2 SUP2 8

@<TRIPOS>CRYSIN
  12.4280   10.9850   10.9590  90.0000  94.4580  90.0000  14 1

