# MOL2 file generated by ConQuest
# Please check atom types

@<TRIPOS>MOLECULE
WAPTIR
    32    33     1
SMALL
NO_CHARGES
****
Generated from CSD

@<TRIPOS>ATOM
      1 O1         6.8080    0.0829    5.7030 O.3       1 RES1    0.0000
      2 O2         0.3498    4.0758    2.3053 O.2       1 RES1    0.0000
      3 O3         1.1995    5.8967    3.0997 O.2       1 RES1    0.0000
      4 O4         6.7611    1.6066    8.0941 O.3       1 RES1    0.0000
      5 H1         6.2522    0.9388    8.0238 H         1 RES1    0.0000
      6 N1         5.6238    0.5411    5.1190 N.2       1 RES1    0.0000
      7 N2         1.2395    4.6841    2.9001 N.pl3     1 RES1    0.0000
      8 C1         7.7509    1.2073    5.9040 C.3       1 RES1    0.0000
      9 C2         6.9936    2.4034    5.3380 C.3       1 RES1    0.0000
     10 H2         6.8479    3.0958    6.0312 H         1 RES1    0.0000
     11 H3         7.4774    2.8054    4.5745 H         1 RES1    0.0000
     12 C3         5.6989    1.8007    4.8980 C.2       1 RES1    0.0000
     13 C4         7.9707    1.2697    7.4136 C.3       1 RES1    0.0000
     14 H4         8.2668    0.3674    7.7257 H         1 RES1    0.0000
     15 C5         4.5689    2.5324    4.3186 C.ar      1 RES1    0.0000
     16 C6         3.4518    1.8613    3.8223 C.ar      1 RES1    0.0000
     17 H5         3.4450    0.9121    3.8063 H         1 RES1    0.0000
     18 C7         2.3597    2.5586    3.3555 C.ar      1 RES1    0.0000
     19 H6         1.5973    2.1037    3.0173 H         1 RES1    0.0000
     20 C8         2.4036    3.9444    3.3930 C.ar      1 RES1    0.0000
     21 C9         3.4970    4.6403    3.8411 C.ar      1 RES1    0.0000
     22 H7         3.5027    5.5904    3.8411 H         1 RES1    0.0000
     23 C10        4.5879    3.9274    4.2932 C.ar      1 RES1    0.0000
     24 H8         5.3614    4.3910    4.5906 H         1 RES1    0.0000
     25 C11        9.0144    0.8911    5.1364 C.3       1 RES1    0.0000
     26 H9         9.4164    0.0722    5.4941 H         1 RES1    0.0000
     27 H10        9.6477    1.6327    5.2288 H         1 RES1    0.0000
     28 H11        8.7980    0.7630    4.1894 H         1 RES1    0.0000
     29 C12        9.0113    2.2855    7.8382 C.3       1 RES1    0.0000
     30 H12        8.7799    3.1633    7.4705 H         1 RES1    0.0000
     31 H13        9.8906    2.0126    7.5027 H         1 RES1    0.0000
     32 H14        9.0373    2.3376    8.8168 H         1 RES1    0.0000
@<TRIPOS>BOND
     1    1    6 1
     2    2    7 2
     3    3    7 2
     4    4    5 1
     5    6   12 2
     6    7   20 1
     7    8    1 1
     8    9    8 1
     9   10    9 1
    10   11    9 1
    11   12    9 1
    12   13    4 1
    13   14   13 1
    14   15   12 1
    15   16   15 ar
    16   17   16 1
    17   18   16 ar
    18   19   18 1
    19   20   18 ar
    20   21   20 ar
    21   22   21 1
    22   23   15 ar
    23   24   23 1
    24   25    8 1
    25   26   25 1
    26   27   25 1
    27   28   25 1
    28   29   13 1
    29   30   29 1
    30   31   29 1
    31   32   29 1
    32    8   13 1
    33   21   23 ar
@<TRIPOS>SUBSTRUCTURE
     1 RES1 1

@<TRIPOS>CRYSIN
  11.3940   15.6990    6.7175  90.0000  94.4070  90.0000  14 1

