# MOL2 file generated by ConQuest
# Please check atom types

@<TRIPOS>MOLECULE
WAPTEN
    41    42     1
SMALL
NO_CHARGES
****
Generated from CSD

@<TRIPOS>ATOM
      1 O1         2.5040   -0.2845    6.2474 O.3       1 RES1    0.0000
      2 O2         8.7179    3.9134    9.8430 O.2       1 RES1    0.0000
      3 O3         7.3993    5.6311    9.9610 O.2       1 RES1    0.0000
      4 O4         0.3212    0.1826    8.3090 O.3       1 RES1    0.0000
      5 N1         3.7157    0.2706    6.6969 N.2       1 RES1    0.0000
      6 N2         7.6451    4.4720    9.6289 N.pl3     1 RES1    0.0000
      7 C1         1.4535    0.7549    6.2506 C.3       1 RES1    0.0000
      8 H1         1.2458    1.0204    5.3084 H         1 RES1    0.0000
      9 C2         2.0896    1.9326    6.9811 C.3       1 RES1    0.0000
     10 H2         2.0217    2.7670    6.4520 H         1 RES1    0.0000
     11 H3         1.6784    2.0731    7.8709 H         1 RES1    0.0000
     12 C3         3.5087    1.4706    7.0985 C.2       1 RES1    0.0000
     13 C4         0.2078    0.1368    6.8912 C.3       1 RES1    0.0000
     14 H4         0.1681   -0.8245    6.6172 H         1 RES1    0.0000
     15 C5         4.6006    2.2528    7.7060 C.ar      1 RES1    0.0000
     16 C6         5.8668    1.6813    7.9294 C.ar      1 RES1    0.0000
     17 H5         6.0385    0.7897    7.6487 H         1 RES1    0.0000
     18 C7         6.8606    2.4064    8.5516 C.ar      1 RES1    0.0000
     19 H6         7.7143    2.0202    8.7108 H         1 RES1    0.0000
     20 C8         6.5920    3.7097    8.9409 C.ar      1 RES1    0.0000
     21 C9         5.3614    4.3078    8.7334 C.ar      1 RES1    0.0000
     22 H7         5.2000    5.2014    9.0125 H         1 RES1    0.0000
     23 C10        4.3681    3.5666    8.1057 C.ar      1 RES1    0.0000
     24 H8         3.5185    3.9609    7.9463 H         1 RES1    0.0000
     25 C11        0.7083   -0.9986    8.9597 C.3       1 RES1    0.0000
     26 H9         1.6446   -1.1970    8.7475 H         1 RES1    0.0000
     27 H10        0.1414   -1.7392    8.6578 H         1 RES1    0.0000
     28 H11        0.6094   -0.8854    9.9278 H         1 RES1    0.0000
     29 C12       -1.1285    0.7978    6.4898 C.3       1 RES1    0.0000
     30 C13       -1.3434    0.6659    4.9831 C.3       1 RES1    0.0000
     31 H12       -1.2261   -0.2699    4.7172 H         1 RES1    0.0000
     32 H13       -0.6910    1.2237    4.5093 H         1 RES1    0.0000
     33 H14       -2.2504    0.9588    4.7560 H         1 RES1    0.0000
     34 C14       -1.1787    2.2671    6.9038 C.3       1 RES1    0.0000
     35 H15       -0.5024    2.7707    6.4031 H         1 RES1    0.0000
     36 H16       -0.9984    2.3423    7.8648 H         1 RES1    0.0000
     37 H17       -2.0672    2.6315    6.7089 H         1 RES1    0.0000
     38 C15       -2.2556    0.0398    7.2035 C.3       1 RES1    0.0000
     39 H18       -2.1651    0.1555    8.1726 H         1 RES1    0.0000
     40 H19       -2.1993   -0.9134    6.9821 H         1 RES1    0.0000
     41 H20       -3.1223    0.3924    6.9128 H         1 RES1    0.0000
@<TRIPOS>BOND
     1    1    5 1
     2    2    6 2
     3    3    6 2
     4    4   13 1
     5    5   12 2
     6    6   20 1
     7    7    1 1
     8    8    7 1
     9    9    7 1
    10   10    9 1
    11   11    9 1
    12   12    9 1
    13   13    7 1
    14   14   13 1
    15   15   12 1
    16   16   15 ar
    17   17   16 1
    18   18   16 ar
    19   19   18 1
    20   20   18 ar
    21   21   20 ar
    22   22   21 1
    23   23   15 ar
    24   24   23 1
    25   25    4 1
    26   26   25 1
    27   27   25 1
    28   28   25 1
    29   29   13 1
    30   30   29 1
    31   31   30 1
    32   32   30 1
    33   33   30 1
    34   34   29 1
    35   35   34 1
    36   36   34 1
    37   37   34 1
    38   38   29 1
    39   39   38 1
    40   40   38 1
    41   41   38 1
    42   21   23 ar
@<TRIPOS>SUBSTRUCTURE
     1 RES1 1

@<TRIPOS>CRYSIN
  11.6390    6.2180   20.3960  90.0000  91.8290  90.0000 231 1

