# MOL2 file generated by ConQuest
# Please check atom types

@<TRIPOS>MOLECULE
WAQKAD
    92    98     2
SMALL
NO_CHARGES
****
Generated from CSD

@<TRIPOS>ATOM
      1 O1         7.3414    5.7166    5.9712 O.2       1 RES1    0.0000
      2 O2         9.5750    8.5969    2.5653 O.2       1 RES1    0.0000
      3 O3         7.8813    4.8490    7.8674 O.2       1 RES1    0.0000
      4 N1         8.8352    3.9318    3.6417 N.ar      1 RES1    0.0000
      5 N2         8.1357    5.5215    6.8782 N.pl3     1 RES1    0.0000
      6 N3         8.8625    6.5497    3.2067 N.am      1 RES1    0.0000
      7 C1         9.4862    6.0963    6.7635 C.ar      1 RES1    0.0000
      8 C2        10.5423    5.3392    7.2419 C.ar      1 RES1    0.0000
      9 H1        10.3858    4.5027    7.6631 H         1 RES1    0.0000
     10 C3         7.8559    8.8853    6.8224 C.ar      1 RES1    0.0000
     11 H2         8.1152    8.7391    7.7237 H         1 RES1    0.0000
     12 C4         9.6599    7.3350    6.1655 C.ar      1 RES1    0.0000
     13 C5         8.1622    8.4716    4.4755 C.ar      1 RES1    0.0000
     14 C6         8.5293    8.2299    5.7980 C.ar      1 RES1    0.0000
     15 C7        11.8204    5.8207    7.0945 C.ar      1 RES1    0.0000
     16 H3        12.5526    5.3034    7.4100 H         1 RES1    0.0000
     17 C8         9.3816    4.3365    2.4683 C.ar      1 RES1    0.0000
     18 C9         6.8147    9.7450    6.5381 C.ar      1 RES1    0.0000
     19 H4         6.3659   10.2032    7.2401 H         1 RES1    0.0000
     20 C10        6.4364    9.9313    5.2381 C.ar      1 RES1    0.0000
     21 H5         5.6979   10.4998    5.0527 H         1 RES1    0.0000
     22 C11        8.9448    7.8828    3.3384 C.2       1 RES1    0.0000
     23 C12        7.0978    9.3141    4.1756 C.ar      1 RES1    0.0000
     24 C13       12.0537    7.0286    6.5035 C.ar      1 RES1    0.0000
     25 H6        12.9411    7.3544    6.4047 H         1 RES1    0.0000
     26 C14       10.9731    7.7776    6.0493 C.ar      1 RES1    0.0000
     27 H7        11.1376    8.6213    5.6437 H         1 RES1    0.0000
     28 C15        9.4301    5.7351    2.2083 C.ar      1 RES1    0.0000
     29 C16        9.8606    3.4481    1.5045 C.ar      1 RES1    0.0000
     30 C17        9.9612    6.2063    1.0313 C.ar      1 RES1    0.0000
     31 H8         9.9891    7.1385    0.8493 H         1 RES1    0.0000
     32 C18        8.7599    2.6388    3.8653 C.ar      1 RES1    0.0000
     33 H9         8.3700    2.3439    4.6800 H         1 RES1    0.0000
     34 C19       10.4120    3.9375    0.3189 C.ar      1 RES1    0.0000
     35 H10       10.7480    3.3321   -0.3328 H         1 RES1    0.0000
     36 C20        6.5769    9.5464    2.7837 C.3       1 RES1    0.0000
     37 H11        5.8267   10.1750    2.8167 H         1 RES1    0.0000
     38 H12        7.2910    9.9180    2.2256 H         1 RES1    0.0000
     39 H13        6.2735    8.6956    2.4024 H         1 RES1    0.0000
     40 C21        9.7787    2.0643    1.8079 C.ar      1 RES1    0.0000
     41 H14       10.1161    1.4239    1.1925 H         1 RES1    0.0000
     42 C22       10.4674    5.2664    0.0953 C.ar      1 RES1    0.0000
     43 H15       10.8560    5.5837   -0.7124 H         1 RES1    0.0000
     44 C23        9.2271    1.6618    2.9571 C.ar      1 RES1    0.0000
     45 H16        9.1500    0.7363    3.1599 H         1 RES1    0.0000
     46 H17        8.5092    6.1109    3.7440 H         1 RES1    0.0000
     47 O4         3.6212    1.3336    5.9531 O.2       2 RES2    0.0000
     48 O5         4.2272    2.4145    7.7113 O.2       2 RES2    0.0000
     49 O6         5.8316   -1.5363    2.6416 O.2       2 RES2    0.0000
     50 N4         4.4494    1.6283    6.8091 N.pl3     2 RES2    0.0000
     51 N5         5.0645    3.1245    3.6729 N.ar      2 RES2    0.0000
     52 N6         5.0746    0.5132    3.2530 N.am      2 RES2    0.0000
     53 C24        6.8419    1.7973    7.1864 C.ar      2 RES2    0.0000
     54 H18        6.6836    2.6615    7.5469 H         2 RES2    0.0000
     55 C25        4.7975   -1.1578    5.8725 C.ar      2 RES2    0.0000
     56 C26        5.9422   -0.2517    6.2157 C.ar      2 RES2    0.0000
     57 C27        4.4280   -1.3971    4.5535 C.ar      2 RES2    0.0000
     58 C28        4.1514   -1.7990    6.9125 C.ar      2 RES2    0.0000
     59 H19        4.4231   -1.6469    7.8104 H         2 RES2    0.0000
     60 C29        5.1823   -0.8189    3.4025 C.2       2 RES2    0.0000
     61 C30        5.6225    1.3258    2.2256 C.ar      2 RES2    0.0000
     62 C31        2.6903   -2.8754    5.3439 C.ar      2 RES2    0.0000
     63 H20        1.9589   -3.4564    5.1705 H         2 RES2    0.0000
     64 C32        3.3240   -2.2485    4.2865 C.ar      2 RES2    0.0000
     65 C33        5.5874    2.7151    2.4804 C.ar      2 RES2    0.0000
     66 C34        3.0930   -2.6769    6.6369 C.ar      2 RES2    0.0000
     67 H21        2.6558   -3.1332    7.3459 H         2 RES2    0.0000
     68 C35        8.1129    1.3051    7.1101 C.ar      2 RES2    0.0000
     69 H22        8.8449    1.8242    7.4221 H         2 RES2    0.0000
     70 C36        7.2497   -0.7202    6.1481 C.ar      2 RES2    0.0000
     71 H23        7.4094   -1.5900    5.8015 H         2 RES2    0.0000
     72 C37        6.1283    0.8478    1.0435 C.ar      2 RES2    0.0000
     73 H24        6.1571   -0.0857    0.8701 H         2 RES2    0.0000
     74 C38        8.3301    0.0443    6.5745 C.ar      2 RES2    0.0000
     75 H25        9.2138   -0.2955    6.5000 H         2 RES2    0.0000
     76 C39        6.0687    3.6141    1.4993 C.ar      2 RES2    0.0000
     77 C40        5.9645    4.9948    1.7992 C.ar      2 RES2    0.0000
     78 H26        6.2520    5.6425    1.1665 H         2 RES2    0.0000
     79 C41        6.6047    1.7718    0.0884 C.ar      2 RES2    0.0000
     80 H27        6.9637    1.4439   -0.7297 H         2 RES2    0.0000
     81 C42        5.0074    4.4238    3.8896 C.ar      2 RES2    0.0000
     82 H28        4.6385    4.7270    4.7095 H         2 RES2    0.0000
     83 C43        6.5663    3.0949    0.2964 C.ar      2 RES2    0.0000
     84 H29        6.8797    3.6875   -0.3779 H         2 RES2    0.0000
     85 C44        2.8178   -2.4838    2.8791 C.3       2 RES2    0.0000
     86 H30        3.3658   -1.9755    2.2447 H         2 RES2    0.0000
     87 H31        2.8752   -3.4382    2.6676 H         2 RES2    0.0000
     88 H32        1.8856   -2.1898    2.8132 H         2 RES2    0.0000
     89 C45        5.4645    5.3833    2.9692 C.ar      2 RES2    0.0000
     90 H33        5.4163    6.3088    3.1824 H         2 RES2    0.0000
     91 C46        5.7861    1.0252    6.7340 C.ar      2 RES2    0.0000
     92 H34        4.7363    0.9752    3.8827 H         2 RES2    0.0000
@<TRIPOS>BOND
     1    1    5 2
     2    2   22 2
     3    3    5 2
     4    4   17 ar
     5    5    7 1
     6    6   22 1
     7    7    8 ar
     8    8    9 1
     9   10   11 1
    10   12    7 ar
    11   13   14 ar
    12   14   10 ar
    13   15    8 ar
    14   16   15 1
    15   17   28 ar
    16   18   10 ar
    17   19   18 1
    18   20   18 ar
    19   21   20 1
    20   22   13 1
    21   23   13 ar
    22   24   15 ar
    23   25   24 1
    24   26   12 ar
    25   27   26 1
    26   28    6 1
    27   29   17 ar
    28   30   28 ar
    29   31   30 1
    30   32    4 ar
    31   33   32 1
    32   34   29 ar
    33   35   34 1
    34   36   23 1
    35   37   36 1
    36   38   36 1
    37   39   36 1
    38   40   29 ar
    39   41   40 1
    40   42   30 ar
    41   43   42 1
    42   44   32 ar
    43   45   44 1
    44   46    6 1
    45   47   50 2
    46   48   50 2
    47   49   60 2
    48   50   91 1
    49   51   65 ar
    50   52   60 1
    51   53   54 1
    52   55   56 1
    53   56   70 ar
    54   57   55 ar
    55   58   55 ar
    56   59   58 1
    57   60   57 1
    58   61   52 1
    59   62   63 1
    60   64   57 ar
    61   65   61 ar
    62   66   58 ar
    63   67   66 1
    64   68   53 ar
    65   69   68 1
    66   70   71 1
    67   72   61 ar
    68   73   72 1
    69   74   68 ar
    70   75   74 1
    71   76   65 ar
    72   77   76 ar
    73   78   77 1
    74   79   72 ar
    75   80   79 1
    76   81   51 ar
    77   82   81 1
    78   83   76 ar
    79   84   83 1
    80   85   64 1
    81   86   85 1
    82   87   85 1
    83   88   85 1
    84   89   77 ar
    85   90   89 1
    86   91   53 ar
    87   92   52 1
    88   12   14 1
    89   20   23 ar
    90   24   26 ar
    91   34   42 ar
    92   40   44 ar
    93   56   91 ar
    94   62   64 ar
    95   62   66 ar
    96   70   74 ar
    97   79   83 ar
    98   81   89 ar
@<TRIPOS>SUBSTRUCTURE
     1 RES1 1
     2 RES2 47

@<TRIPOS>CRYSIN
   7.5920   14.3900   17.4500  95.3100  93.9300  90.2800   2 1

