# MOL2 file generated by ConQuest
# Please check atom types

@<TRIPOS>MOLECULE
WAQPAH
    76    80     2
SMALL
NO_CHARGES
****
Generated from CSD

@<TRIPOS>ATOM
      1 O1        -5.6802    4.5977   10.4622 O.2       1 RES1    0.0000
      2 O2         8.3324   -0.5226    7.1018 O.2       1 RES1    0.0000
      3 N1        -0.0808    2.7169    8.3710 N.3       1 RES1    0.0000
      4 N2         2.4037    1.3773    7.7602 N.pl3     1 RES1    0.0000
      5 N3        -4.5589    5.0685   10.7079 N.2       1 RES1    0.0000
      6 N4         7.3368   -1.1433    7.5429 N.2       1 RES1    0.0000
      7 C1        -1.1933    3.2747    8.9269 C.ar      1 RES1    0.0000
      8 C2        -2.4752    2.6970    8.7445 C.ar      1 RES1    0.0000
      9 H1        -2.5653    1.9137    8.2133 H         1 RES1    0.0000
     10 C3        -3.5798    3.2511    9.3219 C.ar      1 RES1    0.0000
     11 H2        -4.4315    2.8508    9.1911 H         1 RES1    0.0000
     12 C4        -3.4690    4.4035   10.1037 C.ar      1 RES1    0.0000
     13 C5        -2.2259    4.9934   10.2649 C.ar      1 RES1    0.0000
     14 H3        -2.1514    5.7853   10.7844 H         1 RES1    0.0000
     15 C6        -1.1012    4.4585    9.6917 C.ar      1 RES1    0.0000
     16 H4        -0.2601    4.8842    9.8091 H         1 RES1    0.0000
     17 C7         1.2044    3.4160    8.3979 C.3       1 RES1    0.0000
     18 H5         1.5806    3.3825    9.3137 H         1 RES1    0.0000
     19 H6         1.0688    4.3673    8.1567 H         1 RES1    0.0000
     20 C8         2.1773    2.7820    7.4288 C.3       1 RES1    0.0000
     21 H7         1.8177    2.8508    6.5091 H         1 RES1    0.0000
     22 H8         3.0373    3.2709    7.4585 H         1 RES1    0.0000
     23 C9         1.2175    0.6443    8.2280 C.3       1 RES1    0.0000
     24 H9         1.2512    0.5564    9.2135 H         1 RES1    0.0000
     25 H10        1.2169   -0.2659    7.8383 H         1 RES1    0.0000
     26 C10       -0.0546    1.3658    7.8290 C.3       1 RES1    0.0000
     27 H11       -0.1148    1.4065    6.8417 H         1 RES1    0.0000
     28 H12       -0.8384    0.8616    8.1638 H         1 RES1    0.0000
     29 C11        3.6141    0.7853    7.6797 C.ar      1 RES1    0.0000
     30 C12        4.7285    1.4490    7.0867 C.ar      1 RES1    0.0000
     31 H13        4.6200    2.3240    6.7320 H         1 RES1    0.0000
     32 C13        5.9465    0.8419    7.0236 C.ar      1 RES1    0.0000
     33 H14        6.6768    1.2982    6.6235 H         1 RES1    0.0000
     34 C14        6.1354   -0.4451    7.5412 C.ar      1 RES1    0.0000
     35 C15        5.0328   -1.1209    8.0928 C.ar      1 RES1    0.0000
     36 H15        5.1424   -2.0072    8.4162 H         1 RES1    0.0000
     37 C16        3.8119   -0.5265    8.1707 C.ar      1 RES1    0.0000
     38 H16        3.0836   -0.9979    8.5589 H         1 RES1    0.0000
     39 O3         2.8151    5.7744    5.7269 O.2       2 RES2    0.0000
     40 N5         8.8301    7.6121    5.9776 N.3       2 RES2    0.0000
     41 N6         3.7438    5.3794    6.4565 N.2       2 RES2    0.0000
     42 C17        7.5866    7.0255    6.0304 C.ar      2 RES2    0.0000
     43 C18        6.5423    7.4378    5.1701 C.ar      2 RES2    0.0000
     44 H17        6.7168    8.0961    4.5088 H         2 RES2    0.0000
     45 C19        5.2890    6.9095    5.2712 C.ar      2 RES2    0.0000
     46 H18        4.6064    7.2000    4.6775 H         2 RES2    0.0000
     47 C20        4.9995    5.9469    6.2371 C.ar      2 RES2    0.0000
     48 C21        6.0244    5.5081    7.0687 C.ar      2 RES2    0.0000
     49 H19        5.8429    4.8383    7.7168 H         2 RES2    0.0000
     50 C22        7.2897    6.0221    6.9727 C.ar      2 RES2    0.0000
     51 H20        7.9734    5.6983    7.5470 H         2 RES2    0.0000
     52 C23       10.0288    6.8804    6.3875 C.3       2 RES2    0.0000
     53 H21       10.3372    6.3187    5.6328 H         2 RES2    0.0000
     54 H22        9.7963    6.2776    7.1377 H         2 RES2    0.0000
     55 C24        9.1307    8.6359    4.9810 C.3       2 RES2    0.0000
     56 H23        8.3201    9.1809    4.8202 H         2 RES2    0.0000
     57 H24        9.3755    8.1962    4.1279 H         2 RES2    0.0000
     58 O3B       17.4584   10.6377    6.0671 O.2       2 RES2    0.0000
     59 N5B       11.4434    8.8000    5.8164 N.3       2 RES2    0.0000
     60 N6B       16.5297   11.0327    5.3375 N.2       2 RES2    0.0000
     61 C17B      12.6869    9.3866    5.7636 C.ar      2 RES2    0.0000
     62 C18B      13.7312    8.9743    6.6239 C.ar      2 RES2    0.0000
     63 H17B      13.5567    8.3160    7.2852 H         2 RES2    0.0000
     64 C19B      14.9845    9.5026    6.5228 C.ar      2 RES2    0.0000
     65 H18B      15.6671    9.2121    7.1165 H         2 RES2    0.0000
     66 C20B      15.2740   10.4652    5.5569 C.ar      2 RES2    0.0000
     67 C21B      14.2492   10.9040    4.7253 C.ar      2 RES2    0.0000
     68 H19B      14.4306   11.5738    4.0772 H         2 RES2    0.0000
     69 C22B      12.9838   10.3900    4.8213 C.ar      2 RES2    0.0000
     70 H20B      12.3001   10.7138    4.2470 H         2 RES2    0.0000
     71 C23B      10.2447    9.5317    5.4065 C.3       2 RES2    0.0000
     72 H21B       9.9364   10.0934    6.1612 H         2 RES2    0.0000
     73 H22B      10.4773   10.1345    4.6563 H         2 RES2    0.0000
     74 C24B      11.1428    7.7762    6.8130 C.3       2 RES2    0.0000
     75 H23B      11.9535    7.2312    6.9738 H         2 RES2    0.0000
     76 H24B      10.8980    8.2159    7.6661 H         2 RES2    0.0000
@<TRIPOS>BOND
     1    1    5 2
     2    2    6 2
     3    3    7 1
     4    4   20 1
     5    5   12 1
     6    6   34 1
     7    7    8 ar
     8    8    9 1
     9   10    8 ar
    10   11   10 1
    11   12   10 ar
    12   13   12 ar
    13   14   13 1
    14   15    7 ar
    15   16   15 1
    16   17    3 1
    17   18   17 1
    18   19   17 1
    19   20   17 1
    20   21   20 1
    21   22   20 1
    22   23    4 1
    23   24   23 1
    24   25   23 1
    25   26    3 1
    26   27   26 1
    27   28   26 1
    28   29    4 1
    29   30   29 ar
    30   31   30 1
    31   32   30 ar
    32   33   32 1
    33   34   32 ar
    34   35   34 ar
    35   36   35 1
    36   37   29 ar
    37   38   37 1
    38   39   41 2
    39   40   42 1
    40   41   47 1
    41   42   43 ar
    42   43   44 1
    43   45   43 ar
    44   46   45 1
    45   47   45 ar
    46   48   47 ar
    47   49   48 1
    48   50   42 ar
    49   51   50 1
    50   52   40 1
    51   53   52 1
    52   54   52 1
    53   55   40 1
    54   56   55 1
    55   57   55 1
    56   58   60 2
    57   59   61 1
    58   60   66 1
    59   61   62 ar
    60   62   63 1
    61   64   62 ar
    62   65   64 1
    63   66   64 ar
    64   67   66 ar
    65   68   67 1
    66   69   61 ar
    67   70   69 1
    68   71   55 1
    69   72   71 1
    70   73   71 1
    71   74   52 1
    72   75   74 1
    73   76   74 1
    74   13   15 ar
    75   23   26 1
    76   35   37 ar
    77   48   50 ar
    78   59   71 1
    79   59   74 1
    80   67   69 ar
@<TRIPOS>SUBSTRUCTURE
     1 RES1 1
     2 RES2 39

@<TRIPOS>CRYSIN
  11.0562   16.4121   11.9365  90.0000  98.8620  90.0000  14 1

