# MOL2 file generated by ConQuest
# Please check atom types

@<TRIPOS>MOLECULE
WAQYEV
    28    28     1
SMALL
NO_CHARGES
****
Generated from CSD

@<TRIPOS>ATOM
      1 C1         5.1108    3.4937    2.2549 C.ar      1 RES1    0.0000
      2 C2         5.1961    4.0809    3.5072 C.ar      1 RES1    0.0000
      3 C3         6.2261    3.1715    1.5087 C.ar      1 RES1    0.0000
      4 H1         6.1296    2.7798    0.6696 H         1 RES1    0.0000
      5 C4         7.4705    3.4288    2.0031 C.ar      1 RES1    0.0000
      6 H2         8.2262    3.2138    1.5076 H         1 RES1    0.0000
      7 C5         6.4859    4.3319    3.9931 C.ar      1 RES1    0.0000
      8 H3         6.5967    4.7206    4.8288 H         1 RES1    0.0000
      9 C6         3.8146    4.2006    5.5979 C.2       1 RES1    0.0000
     10 C7         7.5980    4.0035    3.2309 C.ar      1 RES1    0.0000
     11 H4         8.4478    4.1803    3.5661 H         1 RES1    0.0000
     12 C8         4.0242    4.4813    4.3084 C.2       1 RES1    0.0000
     13 H5         3.3681    4.9778    3.8761 H         1 RES1    0.0000
     14 C9         2.5454    4.6580    6.2270 C.2       1 RES1    0.0000
     15 C10        4.7186    3.4069    6.3666 C.1       1 RES1    0.0000
     16 C11        1.1623    4.5384    8.1080 C.3       1 RES1    0.0000
     17 H6         1.3018    5.3078    8.6819 H         1 RES1    0.0000
     18 H7         0.5341    4.8074    7.4192 H         1 RES1    0.0000
     19 C12        0.6505    3.6994    8.7546 C.3       1 RES1    0.0000
     20 H8         0.6752    2.8682    8.2725 H         1 RES1    0.0000
     21 H9        -0.2623    3.9418    8.9268 H         1 RES1    0.0000
     22 H10        1.1193    3.6040    9.5849 H         1 RES1    0.0000
     23 N1         3.8154    3.1113    1.6882 N.pl3     1 RES1    0.0000
     24 N2         5.4440    2.7501    6.9608 N.1       1 RES1    0.0000
     25 O1         1.7458    5.3360    5.6519 O.2       1 RES1    0.0000
     26 O2         2.4211    4.2397    7.4613 O.3       1 RES1    0.0000
     27 O3         2.8292    3.2904    2.3157 O.2       1 RES1    0.0000
     28 O4         3.7874    2.5546    0.6248 O.2       1 RES1    0.0000
@<TRIPOS>BOND
     1    1    2 ar
     2    2    7 ar
     3    3    1 ar
     4    4    3 1
     5    5    3 ar
     6    6    5 1
     7    7    8 1
     8    9   12 2
     9   10    5 ar
    10   11   10 1
    11   12    2 1
    12   13   12 1
    13   14    9 1
    14   15    9 1
    15   16   17 1
    16   18   16 1
    17   19   16 1
    18   20   19 1
    19   21   19 1
    20   22   19 1
    21   23    1 1
    22   24   15 3
    23   25   14 2
    24   26   14 1
    25   27   23 2
    26   28   23 2
    27    7   10 ar
    28   16   26 1
@<TRIPOS>SUBSTRUCTURE
     1 RES1 1

@<TRIPOS>CRYSIN
   7.9719    7.8194   38.2632  90.0000  90.0000  90.0000  61 1

