# MOL2 file generated by ConQuest
# Please check atom types

@<TRIPOS>MOLECULE
WAQYUK
    92    92     1
SMALL
NO_CHARGES
****
Generated from CSD

@<TRIPOS>ATOM
      1 O1        10.1444   -2.0593    2.2478 O.2       1 RES1    0.0000
      2 O2         8.1102   -2.7833    2.2325 O.2       1 RES1    0.0000
      3 N1         9.8977   -2.2174   -0.8122 N.2       1 RES1    0.0000
      4 N2        10.2981   -4.4769   -0.6778 N.3       1 RES1    0.0000
      5 N3         8.0932   -3.7798   -0.8488 N.3       1 RES1    0.0000
      6 N4         7.5511    0.2064    2.7083 N.2       1 RES1    0.0000
      7 N5         6.1540    1.0455    4.3319 N.3       1 RES1    0.0000
      8 N6         5.1662    0.0628    2.4902 N.3       1 RES1    0.0000
      9 N7         8.9860   -2.0114    1.8519 N.pl3     1 RES1    0.0000
     10 C1         9.1043   -1.1242   -0.4279 C.ar      1 RES1    0.0000
     11 C2         8.6267   -0.9685    0.8749 C.ar      1 RES1    0.0000
     12 C3         7.8482    0.0936    1.3459 C.ar      1 RES1    0.0000
     13 C4         9.4177   -3.4225   -0.7770 C.2       1 RES1    0.0000
     14 C5        11.6745   -4.1695   -0.3327 C.3       1 RES1    0.0000
     15 H1        12.1570   -3.9296   -1.1267 H         1 RES1    0.0000
     16 H2        12.0833   -4.9389    0.0695 H         1 RES1    0.0000
     17 H3        11.6925   -3.4372    0.2875 H         1 RES1    0.0000
     18 C6        10.1310   -5.6493   -1.5310 C.3       1 RES1    0.0000
     19 H4         9.2441   -5.6538   -1.8985 H         1 RES1    0.0000
     20 H5        10.2669   -6.4443   -1.0109 H         1 RES1    0.0000
     21 H6        10.7723   -5.6199   -2.2439 H         1 RES1    0.0000
     22 C7         7.5377   -4.8974   -0.1007 C.3       1 RES1    0.0000
     23 H7         8.2318   -5.3143    0.4149 H         1 RES1    0.0000
     24 H8         7.1643   -5.5369   -0.7118 H         1 RES1    0.0000
     25 H9         6.8493   -4.5785    0.4875 H         1 RES1    0.0000
     26 C8         7.1117   -2.9526   -1.5240 C.3       1 RES1    0.0000
     27 H10        6.5855   -2.4845   -0.8719 H         1 RES1    0.0000
     28 H11        6.5387   -3.5070   -2.0586 H         1 RES1    0.0000
     29 H12        7.5610   -2.3185   -2.0881 H         1 RES1    0.0000
     30 C9         6.3328    0.4346    3.1155 C.2       1 RES1    0.0000
     31 C10        5.1474    0.5850    5.2789 C.3       1 RES1    0.0000
     32 H13        4.6296   -0.1170    4.8796 H         1 RES1    0.0000
     33 H14        4.5694    1.3149    5.5114 H         1 RES1    0.0000
     34 H15        5.5793    0.2547    6.0694 H         1 RES1    0.0000
     35 C11        7.2336    1.8135    4.9142 C.3       1 RES1    0.0000
     36 H16        7.8242    1.2262    5.3903 H         1 RES1    0.0000
     37 H17        6.8722    2.4638    5.5208 H         1 RES1    0.0000
     38 H18        7.7206    2.2600    4.2172 H         1 RES1    0.0000
     39 C12        4.0295    0.9768    2.4387 C.3       1 RES1    0.0000
     40 H19        4.1328    1.6545    3.1116 H         1 RES1    0.0000
     41 H20        3.2185    0.4886    2.5977 H         1 RES1    0.0000
     42 H21        3.9893    1.3885    1.5732 H         1 RES1    0.0000
     43 C13        5.1682   -0.9338    1.4331 C.3       1 RES1    0.0000
     44 H22        5.3165   -0.5037    0.5876 H         1 RES1    0.0000
     45 H23        4.3216   -1.3866    1.4173 H         1 RES1    0.0000
     46 H24        5.8679   -1.5715    1.5953 H         1 RES1    0.0000
     47 O1B        6.5216    2.0593   -2.2478 O.2       1 RES1    0.0000
     48 O2B        8.5558    2.7833   -2.2325 O.2       1 RES1    0.0000
     49 N1B        6.7683    2.2174    0.8122 N.2       1 RES1    0.0000
     50 N2B        6.3679    4.4769    0.6778 N.3       1 RES1    0.0000
     51 N3B        8.5728    3.7798    0.8488 N.3       1 RES1    0.0000
     52 N4B        9.1149   -0.2064   -2.7083 N.2       1 RES1    0.0000
     53 N5B       10.5120   -1.0455   -4.3319 N.3       1 RES1    0.0000
     54 N6B       11.4998   -0.0628   -2.4902 N.3       1 RES1    0.0000
     55 N7B        7.6800    2.0114   -1.8519 N.pl3     1 RES1    0.0000
     56 C1B        7.5617    1.1242    0.4279 C.ar      1 RES1    0.0000
     57 C2B        8.0393    0.9685   -0.8749 C.ar      1 RES1    0.0000
     58 C3B        8.8178   -0.0936   -1.3459 C.ar      1 RES1    0.0000
     59 C4B        7.2483    3.4225    0.7770 C.2       1 RES1    0.0000
     60 C5B        4.9915    4.1695    0.3327 C.3       1 RES1    0.0000
     61 H1B        4.5090    3.9296    1.1267 H         1 RES1    0.0000
     62 H2B        4.5827    4.9389   -0.0695 H         1 RES1    0.0000
     63 H3B        4.9735    3.4372   -0.2875 H         1 RES1    0.0000
     64 C6B        6.5350    5.6493    1.5310 C.3       1 RES1    0.0000
     65 H4B        7.4219    5.6538    1.8985 H         1 RES1    0.0000
     66 H5B        6.3991    6.4443    1.0109 H         1 RES1    0.0000
     67 H6B        5.8937    5.6199    2.2439 H         1 RES1    0.0000
     68 C7B        9.1283    4.8974    0.1007 C.3       1 RES1    0.0000
     69 H7B        8.4342    5.3143   -0.4149 H         1 RES1    0.0000
     70 H8B        9.5017    5.5369    0.7118 H         1 RES1    0.0000
     71 H9B        9.8167    4.5785   -0.4875 H         1 RES1    0.0000
     72 C8B        9.5543    2.9526    1.5240 C.3       1 RES1    0.0000
     73 H10B      10.0805    2.4845    0.8719 H         1 RES1    0.0000
     74 H11B      10.1273    3.5070    2.0586 H         1 RES1    0.0000
     75 H12B       9.1050    2.3185    2.0881 H         1 RES1    0.0000
     76 C9B       10.3332   -0.4346   -3.1155 C.2       1 RES1    0.0000
     77 C10B      11.5186   -0.5850   -5.2789 C.3       1 RES1    0.0000
     78 H13B      12.0364    0.1170   -4.8796 H         1 RES1    0.0000
     79 H14B      12.0966   -1.3149   -5.5114 H         1 RES1    0.0000
     80 H15B      11.0867   -0.2547   -6.0694 H         1 RES1    0.0000
     81 C11B       9.4324   -1.8135   -4.9142 C.3       1 RES1    0.0000
     82 H16B       8.8418   -1.2262   -5.3903 H         1 RES1    0.0000
     83 H17B       9.7938   -2.4638   -5.5208 H         1 RES1    0.0000
     84 H18B       8.9454   -2.2600   -4.2172 H         1 RES1    0.0000
     85 C12B      12.6365   -0.9768   -2.4387 C.3       1 RES1    0.0000
     86 H19B      12.5332   -1.6545   -3.1116 H         1 RES1    0.0000
     87 H20B      13.4475   -0.4886   -2.5977 H         1 RES1    0.0000
     88 H21B      12.6767   -1.3885   -1.5732 H         1 RES1    0.0000
     89 C13B      11.4978    0.9338   -1.4331 C.3       1 RES1    0.0000
     90 H22B      11.3495    0.5037   -0.5876 H         1 RES1    0.0000
     91 H23B      12.3444    1.3866   -1.4173 H         1 RES1    0.0000
     92 H24B      10.7981    1.5715   -1.5953 H         1 RES1    0.0000
@<TRIPOS>BOND
     1    1    9 2
     2    2    9 2
     3    3   10 1
     4    4   13 1
     5    5   13 1
     6    6   12 1
     7    7   30 1
     8    8   30 1
     9    9   11 1
    10   10   11 ar
    11   11   12 ar
    12   12   56 ar
    13   13    3 2
    14   14    4 1
    15   15   14 1
    16   16   14 1
    17   17   14 1
    18   18    4 1
    19   19   18 1
    20   20   18 1
    21   21   18 1
    22   22    5 1
    23   23   22 1
    24   24   22 1
    25   25   22 1
    26   26    5 1
    27   27   26 1
    28   28   26 1
    29   29   26 1
    30   30    6 2
    31   31    7 1
    32   32   31 1
    33   33   31 1
    34   34   31 1
    35   35    7 1
    36   36   35 1
    37   37   35 1
    38   38   35 1
    39   39    8 1
    40   40   39 1
    41   41   39 1
    42   42   39 1
    43   43    8 1
    44   44   43 1
    45   45   43 1
    46   46   43 1
    47   47   55 2
    48   48   55 2
    49   49   56 1
    50   50   59 1
    51   51   59 1
    52   52   58 1
    53   53   76 1
    54   54   76 1
    55   55   57 1
    56   56   57 ar
    57   57   58 ar
    58   58   10 ar
    59   59   49 2
    60   60   50 1
    61   61   60 1
    62   62   60 1
    63   63   60 1
    64   64   50 1
    65   65   64 1
    66   66   64 1
    67   67   64 1
    68   68   51 1
    69   69   68 1
    70   70   68 1
    71   71   68 1
    72   72   51 1
    73   73   72 1
    74   74   72 1
    75   75   72 1
    76   76   52 2
    77   77   53 1
    78   78   77 1
    79   79   77 1
    80   80   77 1
    81   81   53 1
    82   82   81 1
    83   83   81 1
    84   84   81 1
    85   85   54 1
    86   86   85 1
    87   87   85 1
    88   88   85 1
    89   89   54 1
    90   90   89 1
    91   91   89 1
    92   92   89 1
@<TRIPOS>SUBSTRUCTURE
     1 RES1 1

@<TRIPOS>CRYSIN
   8.3330   18.8650   10.6290  90.0000  97.8300  90.0000 231 1

