# MOL2 file generated by ConQuest
# Please check atom types

@<TRIPOS>MOLECULE
WARLIN
    53    54     1
SMALL
NO_CHARGES
****
Generated from CSD

@<TRIPOS>ATOM
      1 O1         6.8437    0.3011   13.4711 O.2       1 RES1    0.0000
      2 O2         6.2465    2.1940   14.5102 O.3       1 RES1    0.0000
      3 O3         5.9087    0.6080   17.2610 O.3       1 RES1    0.0000
      4 O4         6.7010   -1.3376   16.2291 O.3       1 RES1    0.0000
      5 O5         3.6266    5.3229   10.8584 O.2       1 RES1    0.0000
      6 N1         4.2533    4.5857   11.7023 N.3       1 RES1    0.0000
      7 C1         6.8886    1.0292   14.4291 C.2       1 RES1    0.0000
      8 C2         7.7498    0.7792   15.6695 C.3       1 RES1    0.0000
      9 C3         7.1029    1.3280   16.9420 C.3       1 RES1    0.0000
     10 H1         7.7424    1.2554   17.6950 H         1 RES1    0.0000
     11 H2         6.8861    2.2857   16.8154 H         1 RES1    0.0000
     12 C4         6.1062   -0.7960   17.4109 C.3       1 RES1    0.0000
     13 C5         7.9318   -0.7245   15.8557 C.3       1 RES1    0.0000
     14 H3         8.2572   -1.1253   15.0116 H         1 RES1    0.0000
     15 H4         8.6104   -0.8908   16.5569 H         1 RES1    0.0000
     16 C6         9.1067    1.4538   15.4309 C.3       1 RES1    0.0000
     17 H5         9.5159    1.0876   14.6197 H         1 RES1    0.0000
     18 H6         9.6945    1.2857   16.1976 H         1 RES1    0.0000
     19 H7         8.9772    2.4196   15.3248 H         1 RES1    0.0000
     20 C7         4.7265   -1.4133   17.4816 C.3       1 RES1    0.0000
     21 H8         4.2704   -1.1018   18.2905 H         1 RES1    0.0000
     22 H9         4.8067   -2.3900   17.5067 H         1 RES1    0.0000
     23 H10        4.2096   -1.1487   16.6921 H         1 RES1    0.0000
     24 C8         6.9335   -1.1284   18.6475 C.3       1 RES1    0.0000
     25 H11        7.8069   -0.6879   18.5849 H         1 RES1    0.0000
     26 H12        7.0601   -2.0988   18.7046 H         1 RES1    0.0000
     27 H13        6.4650   -0.8125   19.4491 H         1 RES1    0.0000
     28 C9         5.4208    2.6011   13.3797 C.3       1 RES1    0.0000
     29 H14        4.9439    1.8162   12.9837 H         1 RES1    0.0000
     30 C10        6.2723    3.2957   12.3415 C.3       1 RES1    0.0000
     31 H15        6.9412    2.6559   11.9895 H         1 RES1    0.0000
     32 H16        6.7633    4.0415   12.7698 H         1 RES1    0.0000
     33 C11        5.4402    3.8469   11.1733 C.3       1 RES1    0.0000
     34 C12        3.4867    4.1769   12.9158 C.3       1 RES1    0.0000
     35 C13        4.4413    3.5914   13.9588 C.3       1 RES1    0.0000
     36 H17        4.9450    4.3302   14.3836 H         1 RES1    0.0000
     37 H18        3.9100    3.1432   14.6642 H         1 RES1    0.0000
     38 C14        6.2841    4.8546   10.3942 C.3       1 RES1    0.0000
     39 H19        5.7719    5.1852    9.6261 H         1 RES1    0.0000
     40 H20        7.1037    4.4196   10.0779 H         1 RES1    0.0000
     41 H21        6.5175    5.6060   10.9781 H         1 RES1    0.0000
     42 C15        4.9707    2.7237   10.2374 C.3       1 RES1    0.0000
     43 H22        4.5200    2.0291   10.7607 H         1 RES1    0.0000
     44 H23        5.7457    2.3357    9.7784 H         1 RES1    0.0000
     45 H24        4.3473    3.0889    9.5748 H         1 RES1    0.0000
     46 C16        2.4019    3.1759   12.5109 C.3       1 RES1    0.0000
     47 H25        1.8502    3.5621   11.7978 H         1 RES1    0.0000
     48 H26        1.8387    2.9736   13.2866 H         1 RES1    0.0000
     49 H27        2.8223    2.3517   12.1880 H         1 RES1    0.0000
     50 C17        2.8295    5.4252   13.4952 C.3       1 RES1    0.0000
     51 H28        3.5184    6.0921   13.7008 H         1 RES1    0.0000
     52 H29        2.3485    5.1902   14.3151 H         1 RES1    0.0000
     53 H30        2.2008    5.7966   12.8417 H         1 RES1    0.0000
@<TRIPOS>BOND
     1    1    7 2
     2    2    7 1
     3    3    9 1
     4    4   12 1
     5    5    6 1
     6    6   33 1
     7    7    8 1
     8    8    9 1
     9    9   10 1
    10   11    9 1
    11   12    3 1
    12   13    4 1
    13   14   13 1
    14   15   13 1
    15   16    8 1
    16   17   16 1
    17   18   16 1
    18   19   16 1
    19   20   12 1
    20   21   20 1
    21   22   20 1
    22   23   20 1
    23   24   12 1
    24   25   24 1
    25   26   24 1
    26   27   24 1
    27   28    2 1
    28   29   28 1
    29   30   28 1
    30   31   30 1
    31   32   30 1
    32   33   30 1
    33   34    6 1
    34   35   28 1
    35   36   35 1
    36   37   35 1
    37   38   33 1
    38   39   38 1
    39   40   38 1
    40   41   38 1
    41   42   33 1
    42   43   42 1
    43   44   42 1
    44   45   42 1
    45   46   34 1
    46   47   46 1
    47   48   46 1
    48   49   46 1
    49   50   34 1
    50   51   50 1
    51   52   50 1
    52   53   50 1
    53    8   13 1
    54   34   35 1
@<TRIPOS>SUBSTRUCTURE
     1 RES1 1

