# MOL2 file generated by ConQuest
# Please check atom types

@<TRIPOS>MOLECULE
WARVAO
   112   113     1
SMALL
NO_CHARGES
****
Generated from CSD

@<TRIPOS>ATOM
      1 O1         7.8823    3.1246    6.0308 O.3       1 RES1    0.0000
      2 O2         6.6083    5.6491    8.2466 O.3       1 RES1    0.0000
      3 O3         4.3785    5.3684    8.3081 O.2       1 RES1    0.0000
      4 O4         6.0488    5.2118    5.0399 O.3       1 RES1    0.0000
      5 O5         5.5275    7.3838    5.3444 O.2       1 RES1    0.0000
      6 O6         7.8303    6.1162    3.1831 O.3       1 RES1    0.0000
      7 O7         9.8045    7.1850    3.0663 O.2       1 RES1    0.0000
      8 O8         9.3813    3.8007    2.7548 O.3       1 RES1    0.0000
      9 O9         8.1815    2.2751    1.6068 O.2       1 RES1    0.0000
     10 O10       16.0039    0.5100    6.2042 O.2       1 RES1    0.0000
     11 O11       15.8540    0.9325    4.0995 O.2       1 RES1    0.0000
     12 O12       10.2514   -2.8707    9.1646 O.2       1 RES1    0.0000
     13 O13       10.8295   -4.5712    7.8131 O.3       1 RES1    0.0000
     14 N1         8.9692    1.5992    4.6251 N.3       1 RES1    0.0000
     15 H1         8.6884    1.2695    3.8593 H         1 RES1    0.0000
     16 N2        15.3529    0.7357    5.1942 N.pl3     1 RES1    0.0000
     17 C1         7.7949    4.4503    6.5433 C.3       1 RES1    0.0000
     18 H2         8.6773    4.7110    6.9329 H         1 RES1    0.0000
     19 C2         7.4047    5.4601    5.4657 C.3       1 RES1    0.0000
     20 H3         7.4843    6.3905    5.8256 H         1 RES1    0.0000
     21 C3         8.3203    5.2880    4.2623 C.3       1 RES1    0.0000
     22 H4         9.2420    5.5889    4.5107 H         1 RES1    0.0000
     23 C4         8.3828    3.8393    3.8027 C.3       1 RES1    0.0000
     24 H5         7.4934    3.5312    3.4644 H         1 RES1    0.0000
     25 C5         8.8548    2.9727    4.9752 C.3       1 RES1    0.0000
     26 H6         9.7411    3.3055    5.2964 H         1 RES1    0.0000
     27 C6         6.7664    4.3390    7.6600 C.3       1 RES1    0.0000
     28 H7         5.9012    4.0227    7.2952 H         1 RES1    0.0000
     29 H8         7.0739    3.6940    8.3456 H         1 RES1    0.0000
     30 C7         5.3455    6.0495    8.5235 C.2       1 RES1    0.0000
     31 C8         5.3213    7.4148    9.1948 C.3       1 RES1    0.0000
     32 C9         5.5644    7.1458   10.6986 C.3       1 RES1    0.0000
     33 H9         4.8343    6.5977   11.0528 H         1 RES1    0.0000
     34 H10        5.5986    7.9980   11.1830 H         1 RES1    0.0000
     35 H11        6.4144    6.6708   10.8126 H         1 RES1    0.0000
     36 C10        6.4124    8.3411    8.6570 C.3       1 RES1    0.0000
     37 H12        7.2927    7.9537    8.8463 H         1 RES1    0.0000
     38 H13        6.3418    9.2169    9.0946 H         1 RES1    0.0000
     39 H14        6.3015    8.4493    7.6901 H         1 RES1    0.0000
     40 C11        3.9348    8.0309    8.9969 C.3       1 RES1    0.0000
     41 H15        3.7644    8.1505    8.0402 H         1 RES1    0.0000
     42 H16        3.8975    8.9016    9.4447 H         1 RES1    0.0000
     43 H17        3.2561    7.4364    9.3796 H         1 RES1    0.0000
     44 C12        5.2265    6.2968    4.9548 C.2       1 RES1    0.0000
     45 C13        3.8995    5.9310    4.2986 C.3       1 RES1    0.0000
     46 C14        4.2121    5.3282    2.9193 C.3       1 RES1    0.0000
     47 H18        4.6961    4.4833    3.0329 H         1 RES1    0.0000
     48 H19        4.7657    5.9537    2.4060 H         1 RES1    0.0000
     49 H20        3.3751    5.1623    2.4385 H         1 RES1    0.0000
     50 C15        3.0948    7.1943    4.1190 C.3       1 RES1    0.0000
     51 H21        2.3365    7.0160    3.5255 H         1 RES1    0.0000
     52 H22        3.6625    7.8898    3.7250 H         1 RES1    0.0000
     53 H23        2.7630    7.4962    4.9910 H         1 RES1    0.0000
     54 C16        3.1694    4.8954    5.1120 C.3       1 RES1    0.0000
     55 H24        3.0131    5.2406    6.0169 H         1 RES1    0.0000
     56 H25        3.7089    4.0794    5.1620 H         1 RES1    0.0000
     57 H26        2.3102    4.6935    4.6857 H         1 RES1    0.0000
     58 C17        8.6743    7.0479    2.6730 C.2       1 RES1    0.0000
     59 C18        8.0077    7.8692    1.5836 C.3       1 RES1    0.0000
     60 C19        7.5771    6.9954    0.4661 C.3       1 RES1    0.0000
     61 H27        8.3606    6.5585    0.0733 H         1 RES1    0.0000
     62 H28        7.1254    7.5353   -0.2158 H         1 RES1    0.0000
     63 H29        6.9590    6.3133    0.8020 H         1 RES1    0.0000
     64 C20        6.8017    8.5770    2.1617 C.3       1 RES1    0.0000
     65 H30        6.3912    9.1396    1.4737 H         1 RES1    0.0000
     66 H31        7.0820    9.1376    2.9148 H         1 RES1    0.0000
     67 H32        6.1512    7.9135    2.4711 H         1 RES1    0.0000
     68 C21        8.9838    8.9078    1.1061 C.3       1 RES1    0.0000
     69 H33        9.7391    8.4668    0.6636 H         1 RES1    0.0000
     70 H34        9.3095    9.4261    1.8727 H         1 RES1    0.0000
     71 H35        8.5381    9.5065    0.4722 H         1 RES1    0.0000
     72 C22        9.1603    2.9696    1.7053 C.2       1 RES1    0.0000
     73 C23       10.2786    3.0428    0.6672 C.3       1 RES1    0.0000
     74 C24       10.7163    1.6085    0.3550 C.3       1 RES1    0.0000
     75 H36       11.0833    1.1953    1.1643 H         1 RES1    0.0000
     76 H37       11.4020    1.6208   -0.3460 H         1 RES1    0.0000
     77 H38        9.9438    1.0912    0.0448 H         1 RES1    0.0000
     78 C25       11.4685    3.8661    1.1497 C.3       1 RES1    0.0000
     79 H39       11.1811    4.7872    1.3231 H         1 RES1    0.0000
     80 H40       12.1663    3.8661    0.4600 H         1 RES1    0.0000
     81 H41       11.8235    3.4745    1.9744 H         1 RES1    0.0000
     82 C26        9.6927    3.6600   -0.6017 C.3       1 RES1    0.0000
     83 H42        8.9344    3.1190   -0.9078 H         1 RES1    0.0000
     84 H43       10.3795    3.6847   -1.2986 H         1 RES1    0.0000
     85 H44        9.3872    4.5719   -0.4112 H         1 RES1    0.0000
     86 C27        9.6030    0.7893    5.6709 C.3       1 RES1    0.0000
     87 H45        9.3448    1.1551    6.5665 H         1 RES1    0.0000
     88 C28       11.1247    0.8284    5.5419 C.ar      1 RES1    0.0000
     89 C29       11.9253    0.6182    6.6634 C.ar      1 RES1    0.0000
     90 H46       11.5190    0.4977    7.5151 H         1 RES1    0.0000
     91 C30       13.3149    0.5853    6.5511 C.ar      1 RES1    0.0000
     92 H47       13.8605    0.4441    7.3156 H         1 RES1    0.0000
     93 C31       13.8796    0.7604    5.3078 C.ar      1 RES1    0.0000
     94 C32       13.1223    0.9675    4.1724 C.ar      1 RES1    0.0000
     95 H48       13.5337    1.0881    3.3260 H         1 RES1    0.0000
     96 C33       11.7348    0.9933    4.3096 C.ar      1 RES1    0.0000
     97 H49       11.1953    1.1273    3.5377 H         1 RES1    0.0000
     98 C34        9.1169   -0.6729    5.5679 C.3       1 RES1    0.0000
     99 H50        8.1338   -0.6811    5.4511 H         1 RES1    0.0000
    100 H51        9.5213   -1.0953    4.7712 H         1 RES1    0.0000
    101 C35        9.4749   -1.4652    6.7794 C.2       1 RES1    0.0000
    102 H52        9.2017   -1.1170    7.6209 H         1 RES1    0.0000
    103 C36       10.1395   -2.6079    6.7872 C.2       1 RES1    0.0000
    104 H53       10.4490   -2.9758    5.9681 H         1 RES1    0.0000
    105 C37       10.4087   -3.3261    8.0647 C.2       1 RES1    0.0000
    106 C38       11.0662   -5.4292    8.9725 C.3       1 RES1    0.0000
    107 H54       10.2766   -5.4261    9.5709 H         1 RES1    0.0000
    108 H55       11.8507   -5.1098    9.4854 H         1 RES1    0.0000
    109 C39       11.3122   -6.7996    8.4465 C.3       1 RES1    0.0000
    110 H56       10.5358   -7.0933    7.9262 H         1 RES1    0.0000
    111 H57       11.4554   -7.4158    9.1964 H         1 RES1    0.0000
    112 H58       12.1069   -6.7914    7.8733 H         1 RES1    0.0000
@<TRIPOS>BOND
     1    1   17 1
     2    2   27 1
     3    3   30 2
     4    4   19 1
     5    5   44 2
     6    6   21 1
     7    7   58 2
     8    8   23 1
     9    9   72 2
    10   10   16 2
    11   11   16 2
    12   12  105 2
    13   13  105 1
    14   14   15 1
    15   16   93 1
    16   17   18 1
    17   19   17 1
    18   20   19 1
    19   21   19 1
    20   22   21 1
    21   23   21 1
    22   24   23 1
    23   25    1 1
    24   26   25 1
    25   27   17 1
    26   28   27 1
    27   29   27 1
    28   30    2 1
    29   31   30 1
    30   32   31 1
    31   33   32 1
    32   34   32 1
    33   35   32 1
    34   36   31 1
    35   37   36 1
    36   38   36 1
    37   39   36 1
    38   40   31 1
    39   41   40 1
    40   42   40 1
    41   43   40 1
    42   44    4 1
    43   45   44 1
    44   46   45 1
    45   47   46 1
    46   48   46 1
    47   49   46 1
    48   50   45 1
    49   51   50 1
    50   52   50 1
    51   53   50 1
    52   54   45 1
    53   55   54 1
    54   56   54 1
    55   57   54 1
    56   58    6 1
    57   59   58 1
    58   60   59 1
    59   61   60 1
    60   62   60 1
    61   63   60 1
    62   64   59 1
    63   65   64 1
    64   66   64 1
    65   67   64 1
    66   68   59 1
    67   69   68 1
    68   70   68 1
    69   71   68 1
    70   72    8 1
    71   73   72 1
    72   74   73 1
    73   75   74 1
    74   76   74 1
    75   77   74 1
    76   78   73 1
    77   79   78 1
    78   80   78 1
    79   81   78 1
    80   82   73 1
    81   83   82 1
    82   84   82 1
    83   85   82 1
    84   86   14 1
    85   87   86 1
    86   88   86 1
    87   89   88 ar
    88   90   89 1
    89   91   89 ar
    90   92   91 1
    91   93   91 ar
    92   94   93 ar
    93   95   94 1
    94   96   88 ar
    95   97   96 1
    96   98   86 1
    97   99   98 1
    98  100   98 1
    99  101   98 1
   100  102  101 1
   101  103  101 2
   102  104  103 1
   103  105  103 1
   104  106   13 1
   105  107  106 1
   106  108  106 1
   107  109  106 1
   108  110  109 1
   109  111  109 1
   110  112  109 1
   111   14   25 1
   112   23   25 1
   113   94   96 ar
@<TRIPOS>SUBSTRUCTURE
     1 RES1 1

@<TRIPOS>CRYSIN
  10.0840   10.3040   40.7100  90.0000  90.0000  90.0000  19 1

