# MOL2 file generated by ConQuest
# Please check atom types

@<TRIPOS>MOLECULE
WARZIY
   108   114     2
SMALL
NO_CHARGES
****
Generated from CSD

@<TRIPOS>ATOM
      1 O1         0.2305   13.8089    5.3989 O.3       1 RES1    0.0000
      2 O2        -3.1860   12.8231    3.5436 O.3       1 RES1    0.0000
      3 O3        -2.4220   14.2188    1.9233 O.3       1 RES1    0.0000
      4 O4         7.0536   13.7794   12.7750 O.3       2 RES2    0.0000
      5 O5         7.8729   12.4145   14.3861 O.3       2 RES2    0.0000
      6 O6         9.3140    9.9536   10.4947 O.3       2 RES2    0.0000
      7 O7        -1.1985    9.6553    2.4219 O.3       1 RES1    0.0000
      8 O8         9.0890   17.0154   13.8854 O.3       2 RES2    0.0000
      9 O9        12.4241    8.1413   15.2631 O.3       2 RES2    0.0000
     10 O10        2.0853   18.5291    0.9826 O.3       1 RES1    0.0000
     11 O11       12.5749    7.1826   13.2744 O.2       2 RES2    0.0000
     12 O12       -0.8201   16.5942    5.8338 O.3       1 RES1    0.0000
     13 O13        2.1937   19.5558    2.9388 O.2       1 RES1    0.0000
     14 O14       10.9425   16.5168   15.0471 O.2       2 RES2    0.0000
     15 O15        0.5120   10.0736    1.0312 O.2       1 RES1    0.0000
     16 O16       10.4626   12.7495   10.9051 O.3       2 RES2    0.0000
     17 O17        0.3769   13.9423    7.6500 O.2       1 RES1    0.0000
     18 O18       10.6611   12.6645    8.6586 O.2       2 RES2    0.0000
     19 N1         8.9947   11.7068   14.9454 N.3       2 RES2    0.0000
     20 N2        -1.3058   14.9650    1.3657 N.3       1 RES1    0.0000
     21 N3         9.3452   14.8919   14.6033 N.am      2 RES2    0.0000
     22 N4        -0.9642   11.7215    1.6158 N.am      1 RES1    0.0000
     23 N5        12.4735   12.8665    9.9861 N.am      2 RES2    0.0000
     24 N6         2.2197   13.8804    6.3344 N.am      1 RES1    0.0000
     25 C1         0.9087   13.8840    6.5638 C.2       1 RES1    0.0000
     26 C2        -0.4224   16.6852    4.5201 C.ar      1 RES1    0.0000
     27 C3        10.4683    9.8703   14.4541 C.ar      2 RES2    0.0000
     28 C4         9.9177   12.6796   15.5369 C.3       2 RES2    0.0000
     29 C5         9.2795   10.9115   12.6111 C.ar      2 RES2    0.0000
     30 C6        -0.9459   15.6738    3.6864 C.ar      1 RES1    0.0000
     31 C7        -0.8542   12.5890    2.7992 C.3       1 RES1    0.0000
     32 C8        -0.4213   13.9991    0.6776 C.3       1 RES1    0.0000
     33 C9        -1.2064   13.8785    5.4788 C.3       1 RES1    0.0000
     34 C10       -1.7629   14.5201    4.2157 C.3       1 RES1    0.0000
     35 C11        9.3986   14.0243   13.3933 C.3       2 RES2    0.0000
     36 C12        0.1998   16.7590    1.8326 C.ar      1 RES1    0.0000
     37 C13        8.4583   12.0543   12.0799 C.3       2 RES2    0.0000
     38 C14       10.2828   13.7837   14.5999 C.3       2 RES2    0.0000
     39 C15        9.5939   10.8346   13.9784 C.ar      2 RES2    0.0000
     40 C16        8.2140   13.0981   13.1483 C.3       2 RES2    0.0000
     41 C17       11.0387    8.9459   13.5713 C.ar      2 RES2    0.0000
     42 C18       12.0784    7.9756   13.9900 C.2       2 RES2    0.0000
     43 C19        9.7734    9.8974   11.7640 C.ar      2 RES2    0.0000
     44 C20       -0.6684   15.7764    2.3283 C.ar      1 RES1    0.0000
     45 C21        0.7747   17.6483    2.7058 C.ar      1 RES1    0.0000
     46 C22       -2.0316   13.5023    3.0925 C.3       1 RES1    0.0000
     47 C23       -0.4493   10.4388    1.6636 C.2       1 RES1    0.0000
     48 C24       10.6684    8.9510   12.2326 C.ar      2 RES2    0.0000
     49 C25        9.9113    9.1145    9.5029 C.3       2 RES2    0.0000
     50 C26       -3.8041   11.8540    2.6845 C.3       1 RES1    0.0000
     51 C27        0.4259   17.6351    4.0608 C.ar      1 RES1    0.0000
     52 C28       -0.0219   12.8461    1.5796 C.3       1 RES1    0.0000
     53 C29        9.0099   12.6865   10.7808 C.3       2 RES2    0.0000
     54 C30        1.7395   18.6684    2.2544 C.2       1 RES1    0.0000
     55 C31        6.4985   14.7588   13.6252 C.3       2 RES2    0.0000
     56 C32       -0.1241   17.3854    6.7828 C.3       1 RES1    0.0000
     57 C33        9.9187   16.1752   14.5267 C.2       2 RES2    0.0000
     58 C34       11.1549   12.7660    9.7466 C.2       2 RES2    0.0000
     59 C35        9.5788   18.3744   13.7946 C.3       2 RES2    0.0000
     60 C36        2.9394   19.5133    0.3818 C.3       1 RES1    0.0000
     61 C37       13.4591    7.2607   15.7885 C.3       2 RES2    0.0000
     62 C38       -0.7744    8.2851    2.5629 C.3       1 RES1    0.0000
     63 H1         2.5823   13.8336    5.4325 H         1 RES1    0.0000
     64 H2         2.8405   13.9315    7.0522 H         1 RES1    0.0000
     65 H3        10.7510    9.7994   15.3759 H         2 RES2    0.0000
     66 H4        10.7051   12.2238   15.8351 H         2 RES2    0.0000
     67 H5         9.4856   13.0439   16.3279 H         2 RES2    0.0000
     68 H6        -0.4029   12.1865    3.5623 H         1 RES1    0.0000
     69 H7         0.3448   14.4473    0.3414 H         1 RES1    0.0000
     70 H8        -0.9018   13.6309   -0.0807 H         1 RES1    0.0000
     71 H9        -1.4791   14.3228    6.2668 H         1 RES1    0.0000
     72 H10       -1.5710   12.9549    5.5469 H         1 RES1    0.0000
     73 H11       -2.6026   14.9116    4.4604 H         1 RES1    0.0000
     74 H12        9.8222   14.3797   12.6193 H         2 RES2    0.0000
     75 H13        0.3623   16.8238    0.8981 H         1 RES1    0.0000
     76 H14        7.5766   11.7098   11.8692 H         2 RES2    0.0000
     77 H15       11.2175   14.0240   14.5114 H         2 RES2    0.0000
     78 H16       11.0363    8.2909   11.6472 H         2 RES2    0.0000
     79 H17        9.3747    9.3333    8.6651 H         2 RES2    0.0000
     80 H18        9.7708    8.2411    9.6894 H         2 RES2    0.0000
     81 H19       10.7645    9.3796    9.3480 H         2 RES2    0.0000
     82 H20       -4.0898   12.2612    1.8484 H         1 RES1    0.0000
     83 H21       -4.6252   11.5230    3.1031 H         1 RES1    0.0000
     84 H22       -3.2407   11.1477    2.5128 H         1 RES1    0.0000
     85 H23        0.8315   18.3037    4.6370 H         1 RES1    0.0000
     86 H24        0.9112   12.6721    1.6298 H         1 RES1    0.0000
     87 H25        8.7758   12.1723   10.0241 H         2 RES2    0.0000
     88 H26        8.6730   13.5757   10.6700 H         2 RES2    0.0000
     89 H27        7.1209   15.4648   13.8185 H         2 RES2    0.0000
     90 H28        6.2692   14.3531   14.4812 H         2 RES2    0.0000
     91 H29        5.7081   15.1411   13.2702 H         2 RES2    0.0000
     92 H30        0.8626   17.0693    6.7747 H         1 RES1    0.0000
     93 H31       -0.3867   17.2507    7.6745 H         1 RES1    0.0000
     94 H32       -0.0703   18.2895    6.5695 H         1 RES1    0.0000
     95 H33       10.3738   18.3802   13.2601 H         2 RES2    0.0000
     96 H34        9.6978   18.7307   14.6107 H         2 RES2    0.0000
     97 H35        8.9015   18.8641   13.2870 H         2 RES2    0.0000
     98 H36        3.0934   19.3212   -0.5533 H         1 RES1    0.0000
     99 H37        3.7666   19.5952    0.8157 H         1 RES1    0.0000
    100 H38        2.4944   20.3814    0.4037 H         1 RES1    0.0000
    101 H39       13.1968    6.3752   15.7695 H         2 RES2    0.0000
    102 H40       13.5861    7.5154   16.7416 H         2 RES2    0.0000
    103 H41       14.2635    7.4193   15.3507 H         2 RES2    0.0000
    104 H42       -0.7166    7.8462    1.6937 H         1 RES1    0.0000
    105 H43       -1.3277    7.7573    3.1166 H         1 RES1    0.0000
    106 H44        0.1325    8.2429    2.9265 H         1 RES1    0.0000
    107 H45       13.0819   12.9496    9.2454 H         2 RES2    0.0000
    108 H46       12.8006   12.9389   10.8651 H         2 RES2    0.0000
@<TRIPOS>BOND
     1    1   25 1
     2    2   46 1
     3    3   20 1
     4    4   40 1
     5    5   19 1
     6    6   43 1
     7    7   47 1
     8    8   57 1
     9    9   42 1
    10   10   54 1
    11   11   42 2
    12   12   26 1
    13   13   54 2
    14   14   57 2
    15   15   47 2
    16   16   53 1
    17   17   25 2
    18   18   58 2
    19   19   28 1
    20   20   32 1
    21   21   35 1
    22   22   31 1
    23   23   58 1
    24   24   25 1
    25   26   30 ar
    26   27   39 ar
    27   28   38 1
    28   29   37 1
    29   30   34 1
    30   31   46 1
    31   32   52 1
    32   33    1 1
    33   34   33 1
    34   35   38 1
    35   36   44 ar
    36   37   40 1
    37   38   21 1
    38   39   19 1
    39   40    5 1
    40   41   27 ar
    41   42   41 1
    42   43   29 ar
    43   44   20 1
    44   45   36 ar
    45   46    3 1
    46   47   22 1
    47   48   41 ar
    48   49    6 1
    49   50    2 1
    50   51   26 ar
    51   52   22 1
    52   53   37 1
    53   54   45 1
    54   55    4 1
    55   56   12 1
    56   57   21 1
    57   58   16 1
    58   59    8 1
    59   60   10 1
    60   61    9 1
    61   62    7 1
    62   63   24 1
    63   64   24 1
    64   65   27 1
    65   66   28 1
    66   67   28 1
    67   68   31 1
    68   69   32 1
    69   70   32 1
    70   71   33 1
    71   72   33 1
    72   73   34 1
    73   74   35 1
    74   75   36 1
    75   76   37 1
    76   77   38 1
    77   78   48 1
    78   79   49 1
    79   80   49 1
    80   81   49 1
    81   82   50 1
    82   83   50 1
    83   84   50 1
    84   85   51 1
    85   86   52 1
    86   87   53 1
    87   88   53 1
    88   89   55 1
    89   90   55 1
    90   91   55 1
    91   92   56 1
    92   93   56 1
    93   94   56 1
    94   95   59 1
    95   96   59 1
    96   97   59 1
    97   98   60 1
    98   99   60 1
    99  100   60 1
   100  101   61 1
   101  102   61 1
   102  103   61 1
   103  104   62 1
   104  105   62 1
   105  106   62 1
   106  107   23 1
   107  108   23 1
   108   29   39 ar
   109   30   44 ar
   110   31   52 1
   111   34   46 1
   112   35   40 1
   113   43   48 ar
   114   45   51 ar
@<TRIPOS>SUBSTRUCTURE
     1 RES1 1
     2 RES2 4

@<TRIPOS>CRYSIN
  13.5199   17.7879   16.8190  90.0000  90.0000  90.0000  33 1

