# MOL2 file generated by ConQuest
# Please check atom types

@<TRIPOS>MOLECULE
WASBUP
    60    51     2
SMALL
NO_CHARGES
****
Generated from CSD

@<TRIPOS>ATOM
      1 C1        -1.2752    2.5276   11.0706 C.ar      1 RES1    0.0000
      2 H1        -1.3095    3.0359   11.8479 H         1 RES1    0.0000
      3 C2        -2.3604    1.7396   10.7141 C.ar      1 RES1    0.0000
      4 H2        -3.1109    1.7298   11.2649 H         1 RES1    0.0000
      5 C3        -2.3588    0.9847    9.5887 C.ar      1 RES1    0.0000
      6 C4        -1.2396    1.0302    8.7905 C.ar      1 RES1    0.0000
      7 H3        -1.2224    0.5276    8.0076 H         1 RES1    0.0000
      8 C5        -0.1308    1.8072    9.1218 C.ar      1 RES1    0.0000
      9 H4         0.6146    1.8161    8.5654 H         1 RES1    0.0000
     10 C6        -0.1418    2.5637   10.2777 C.ar      1 RES1    0.0000
     11 C7         1.3437    3.6888   11.8605 C.2       1 RES1    0.0000
     12 H5         0.7747    3.4007   12.5371 H         1 RES1    0.0000
     13 C8         2.4322    4.4088   12.2540 C.2       1 RES1    0.0000
     14 C9         3.3534    4.9391   11.2589 C.2       1 RES1    0.0000
     15 C10        5.3881    6.1078   10.9026 C.3       1 RES1    0.0000
     16 H6         5.6803    5.4188   10.3017 H         1 RES1    0.0000
     17 H7         6.1387    6.4386   11.4005 H         1 RES1    0.0000
     18 H8         4.9948    6.8250   10.4010 H         1 RES1    0.0000
     19 C11        2.6886    4.5610   13.7507 C.3       1 RES1    0.0000
     20 H9         1.8957    4.1950   14.1965 H         1 RES1    0.0000
     21 C12        2.8052    6.0087   14.2279 C.3       1 RES1    0.0000
     22 H10        2.8482    6.0346   15.1960 H         1 RES1    0.0000
     23 H11        3.6173    6.4072   13.8777 H         1 RES1    0.0000
     24 N1         1.6211    6.7763   13.7546 N.pl3     1 RES1    0.0000
     25 C13        3.8624    3.7218   14.2377 C.ar      1 RES1    0.0000
     26 C14        3.7052    2.3495   14.3061 C.ar      1 RES1    0.0000
     27 H12        2.8997    1.9730   14.0329 H         1 RES1    0.0000
     28 C15        4.7116    1.5195   14.7696 C.ar      1 RES1    0.0000
     29 H13        4.5758    0.6001   14.7948 H         1 RES1    0.0000
     30 C16        5.9134    2.0455   15.1918 C.ar      1 RES1    0.0000
     31 C17        6.0893    3.4019   15.1492 C.ar      1 RES1    0.0000
     32 H14        6.8868    3.7733   15.4505 H         1 RES1    0.0000
     33 C18        5.0809    4.2329   14.6581 C.ar      1 RES1    0.0000
     34 H15        5.2294    5.1501   14.6117 H         1 RES1    0.0000
     35 N2         0.9946    3.3458   10.6028 N.pl3     1 RES1    0.0000
     36 H16        1.4940    3.6184    9.9578 H         1 RES1    0.0000
     37 O1         3.2174    4.8379   10.0435 O.2       1 RES1    0.0000
     38 O2         4.4090    5.5663   11.8136 O.3       1 RES1    0.0000
     39 O3         1.8063    7.6167   12.8965 O.2       1 RES1    0.0000
     40 O4         0.5267    6.5157   14.2186 O.2       1 RES1    0.0000
     41 O5        -3.6291    0.3613    9.5608 O.3       1 RES1    0.0000
     42 C19       -3.7315   -0.4746    8.4214 C.3       1 RES1    0.0000
     43 H17       -3.7201    0.0647    7.6274 H         1 RES1    0.0000
     44 H18       -4.5531   -0.9708    8.4606 H         1 RES1    0.0000
     45 H19       -2.9909   -1.0845    8.4060 H         1 RES1    0.0000
     46 O6         6.6730    0.9610   15.7384 O.3       1 RES1    0.0000
     47 C20        7.8283    1.4258   16.4430 C.3       1 RES1    0.0000
     48 H20        8.3902    1.9239   15.8447 H         1 RES1    0.0000
     49 H21        8.3161    0.6766   16.7883 H         1 RES1    0.0000
     50 H22        7.5542    1.9926   17.1686 H         1 RES1    0.0000
     51 C21        7.0055    0.1961   15.8587 Du        2 SUP2    0.0000
     52 C22       -4.3183   -0.0294    9.5286 Du        2 SUP2    0.0000
     53 H23        6.2141    0.0706   16.3885 Du        2 SUP2    0.0000
     54 H24        7.7720   -0.1020   16.3522 Du        2 SUP2    0.0000
     55 H25        6.9301   -0.3099   15.0464 Du        2 SUP2    0.0000
     56 H26       -4.1488   -0.4158   10.3912 Du        2 SUP2    0.0000
     57 H27       -4.9395   -0.5805    9.0477 Du        2 SUP2    0.0000
     58 H28       -4.6887    0.8492    9.6391 Du        2 SUP2    0.0000
     59 O7        -3.0844    0.0608    8.7919 Du        2 SUP2    0.0000
     60 O8         7.1510    1.5768   15.5455 Du        2 SUP2    0.0000
@<TRIPOS>BOND
     1    1    2 1
     2    3    1 ar
     3    4    3 1
     4    5    3 ar
     5    6    5 ar
     6    7    6 1
     7    8    6 ar
     8    9    8 1
     9   10    1 ar
    10   11   12 1
    11   13   11 2
    12   14   13 1
    13   15   16 1
    14   17   15 1
    15   18   15 1
    16   19   13 1
    17   20   19 1
    18   21   19 1
    19   22   21 1
    20   23   21 1
    21   24   21 1
    22   25   19 1
    23   26   25 ar
    24   27   26 1
    25   28   26 ar
    26   29   28 1
    27   30   28 ar
    28   31   30 ar
    29   32   31 1
    30   33   25 ar
    31   34   33 1
    32   35   10 1
    33   36   35 1
    34   37   14 2
    35   38   14 1
    36   39   24 2
    37   40   24 2
    38   41    5 1
    39   42   41 1
    40   43   42 1
    41   44   42 1
    42   45   42 1
    43   46   30 1
    44   47   46 1
    45   48   47 1
    46   49   47 1
    47   50   47 1
    48    8   10 ar
    49   11   35 1
    50   15   38 1
    51   31   33 ar
@<TRIPOS>SUBSTRUCTURE
     1 RES1 1
     2 SUP2 51

@<TRIPOS>CRYSIN
   7.0587   19.6120   14.3600  90.0000 103.2140  90.0000  14 1

