# MOL2 file generated by ConQuest
# Please check atom types

@<TRIPOS>MOLECULE
WASGOO
   136   144     2
SMALL
NO_CHARGES
****
Generated from CSD

@<TRIPOS>ATOM
      1 O1         5.1399    3.6758   -0.3177 O.3       1 RES1    0.0000
      2 O2         6.9700    2.4361    0.1602 O.2       1 RES1    0.0000
      3 O3         8.3414    9.3861   -2.6335 O.2       1 RES1    0.0000
      4 O4         9.8284   10.4952   -4.7930 O.3       1 RES1    0.0000
      5 O5        10.5002   11.7710   -3.0522 O.2       1 RES1    0.0000
      6 O6        11.8756   14.0366   -5.5833 O.2       1 RES1    0.0000
      7 O7        10.7920   15.8911   -5.7684 O.2       1 RES1    0.0000
      8 N1         9.3336    7.3738   -3.2518 N.am      1 RES1    0.0000
      9 N2        10.9042   14.7565   -5.3588 N.pl3     1 RES1    0.0000
     10 C1         4.2966    2.6743    0.2941 C.3       1 RES1    0.0000
     11 H1         4.6638    1.7957    0.1129 H         1 RES1    0.0000
     12 H2         3.4134    2.7151   -0.1063 H         1 RES1    0.0000
     13 C2         4.1726    2.8611    1.7802 C.ar      1 RES1    0.0000
     14 C3         4.6085    1.9077    2.6650 C.ar      1 RES1    0.0000
     15 H3         5.0165    1.1384    2.3394 H         1 RES1    0.0000
     16 C4         4.4518    2.0670    4.0250 C.ar      1 RES1    0.0000
     17 H4         4.7689    1.4181    4.6105 H         1 RES1    0.0000
     18 C5         3.8235    3.1948    4.5160 C.ar      1 RES1    0.0000
     19 H5         3.6894    3.2973    5.4310 H         1 RES1    0.0000
     20 C6         3.3945    4.1696    3.6325 C.ar      1 RES1    0.0000
     21 H6         2.9855    4.9389    3.9581 H         1 RES1    0.0000
     22 C7         3.5672    4.0156    2.2895 C.ar      1 RES1    0.0000
     23 H7         3.2812    4.6817    1.7079 H         1 RES1    0.0000
     24 C8         6.4795    3.4181   -0.3348 C.2       1 RES1    0.0000
     25 C9         7.2118    4.4866   -1.0358 C.ar      1 RES1    0.0000
     26 C10        6.6887    5.7716   -1.2091 C.ar      1 RES1    0.0000
     27 H8         5.8589    5.9848   -0.8468 H         1 RES1    0.0000
     28 C11        7.3995    6.7342   -1.9180 C.ar      1 RES1    0.0000
     29 H9         7.0475    7.5895   -2.0151 H         1 RES1    0.0000
     30 C12        8.6305    6.4252   -2.4825 C.ar      1 RES1    0.0000
     31 C13        9.1536    5.1473   -2.3118 C.ar      1 RES1    0.0000
     32 H10        9.9734    4.9271   -2.6925 H         1 RES1    0.0000
     33 C14        8.4598    4.2020   -1.5780 C.ar      1 RES1    0.0000
     34 H11        8.8333    3.3601   -1.4454 H         1 RES1    0.0000
     35 C15        9.1729    8.7416   -3.2308 C.2       1 RES1    0.0000
     36 C16       10.2603    9.3001   -4.1301 C.3       1 RES1    0.0000
     37 H12       11.0645    9.4844   -3.6036 H         1 RES1    0.0000
     38 C17       10.5413    8.1895   -5.1265 C.3       1 RES1    0.0000
     39 C18        9.4536    8.1617   -6.2148 C.3       1 RES1    0.0000
     40 H13        9.6372    7.4507   -6.8331 H         1 RES1    0.0000
     41 H14        9.4478    8.9994   -6.6834 H         1 RES1    0.0000
     42 H15        8.5959    8.0175   -5.8078 H         1 RES1    0.0000
     43 C19       11.9213    8.2826   -5.7855 C.3       1 RES1    0.0000
     44 H16       12.0325    7.5514   -6.3973 H         1 RES1    0.0000
     45 H17       12.6017    8.2418   -5.1094 H         1 RES1    0.0000
     46 H18       11.9924    9.1122   -6.2620 H         1 RES1    0.0000
     47 C20       10.4016    6.9874   -4.1970 C.3       1 RES1    0.0000
     48 H19       10.1515    6.1940   -4.6959 H         1 RES1    0.0000
     49 H20       11.2329    6.8160   -3.7283 H         1 RES1    0.0000
     50 C21        9.9975   11.6713   -4.1353 C.2       1 RES1    0.0000
     51 C22        9.4320   12.7806   -4.9821 C.3       1 RES1    0.0000
     52 H21        9.7994   12.6809   -5.8853 H         1 RES1    0.0000
     53 C23        9.8171   14.1683   -4.4766 C.3       1 RES1    0.0000
     54 H22       10.1811   14.0702   -3.5721 H         1 RES1    0.0000
     55 C24        8.5990   15.0805   -4.3952 C.3       1 RES1    0.0000
     56 H23        8.8522   16.0029   -4.1799 H         1 RES1    0.0000
     57 C25        7.8695   15.0014   -5.7015 C.2       1 RES1    0.0000
     58 H24        7.7036   15.7512   -6.2253 H         1 RES1    0.0000
     59 C26        7.4820   13.8057   -6.0507 C.2       1 RES1    0.0000
     60 H25        7.0019   13.6417   -6.8292 H         1 RES1    0.0000
     61 C27        7.8748   12.7166   -5.0950 C.3       1 RES1    0.0000
     62 H26        7.5769   11.8391   -5.4140 H         1 RES1    0.0000
     63 C28        7.2826   13.0381   -3.7008 C.3       1 RES1    0.0000
     64 H27        6.3164   12.9630   -3.7244 H         1 RES1    0.0000
     65 H28        7.6220   12.4110   -3.0431 H         1 RES1    0.0000
     66 C29        7.6898   14.4761   -3.3161 C.3       1 RES1    0.0000
     67 H29        6.8951   15.0237   -3.2163 H         1 RES1    0.0000
     68 H30        8.1576   14.4652   -2.4654 H         1 RES1    0.0000
     69 O8        13.7027    9.9134   -1.6778 O.3       2 RES2    0.0000
     70 O9        14.3688    7.7964   -2.1057 O.2       2 RES2    0.0000
     71 O10        7.5165    8.6552    1.1539 O.2       2 RES2    0.0000
     72 O11        5.9633    7.2575    3.0483 O.3       2 RES2    0.0000
     73 O12        4.5816    7.4658    1.2668 O.2       2 RES2    0.0000
     74 O13        1.7170    7.0942    3.6102 O.2       2 RES2    0.0000
     75 O14        0.6321    8.9525    3.8714 O.2       2 RES2    0.0000
     76 N3         9.0258    6.8839    1.3391 N.am      2 RES2    0.0000
     77 N4         1.6084    8.3155    3.4802 N.pl3     2 RES2    0.0000
     78 C30       14.9229   10.3986   -2.3026 C.3       2 RES2    0.0000
     79 H31       15.6659    9.8374   -2.0309 H         2 RES2    0.0000
     80 H32       15.1018   11.3007   -1.9954 H         2 RES2    0.0000
     81 C31       14.8224   10.3957   -3.7887 C.ar      2 RES2    0.0000
     82 C32       14.0178   11.3128   -4.4714 C.ar      2 RES2    0.0000
     83 H33       13.5057   11.9220   -3.9896 H         2 RES2    0.0000
     84 C33       13.9710   11.3244   -5.8380 C.ar      2 RES2    0.0000
     85 H34       13.4242   11.9380   -6.2738 H         2 RES2    0.0000
     86 C34       14.7206   10.4433   -6.5745 C.ar      2 RES2    0.0000
     87 H35       14.6813   10.4546   -7.5039 H         2 RES2    0.0000
     88 C35       15.5398    9.5346   -5.9194 C.ar      2 RES2    0.0000
     89 H36       16.0514    8.9331   -6.4104 H         2 RES2    0.0000
     90 C36       15.5967    9.5185   -4.5462 C.ar      2 RES2    0.0000
     91 H37       16.1592    8.9145   -4.1182 H         2 RES2    0.0000
     92 C37       13.5638    8.5585   -1.6266 C.2       2 RES2    0.0000
     93 C38       12.3277    8.1549   -0.9216 C.ar      2 RES2    0.0000
     94 C39       11.2989    9.0496   -0.6078 C.ar      2 RES2    0.0000
     95 H38       11.3568    9.9321   -0.8940 H         2 RES2    0.0000
     96 C40       10.2081    8.6442    0.1168 C.ar      2 RES2    0.0000
     97 H39        9.5311    9.2516    0.3098 H         2 RES2    0.0000
     98 C41       10.1082    7.3160    0.5684 C.ar      2 RES2    0.0000
     99 C42       11.1203    6.4264    0.2311 C.ar      2 RES2    0.0000
    100 H40       11.0646    5.5416    0.5107 H         2 RES2    0.0000
    101 C43       12.2091    6.8366   -0.5146 C.ar      2 RES2    0.0000
    102 H41       12.8677    6.2219   -0.7444 H         2 RES2    0.0000
    103 C44        7.8129    7.5332    1.5123 C.2       2 RES2    0.0000
    104 C45        6.9041    6.5479    2.2239 C.3       2 RES2    0.0000
    105 H42        6.4260    5.9989    1.5675 H         2 RES2    0.0000
    106 C46        7.8462    5.6784    3.0378 C.3       2 RES2    0.0000
    107 C47        8.3089    6.3897    4.3099 C.3       2 RES2    0.0000
    108 H43        8.9051    5.8173    4.7983 H         2 RES2    0.0000
    109 H44        7.5473    6.5988    4.8547 H         2 RES2    0.0000
    110 H45        8.7664    7.2010    4.0749 H         2 RES2    0.0000
    111 C48        7.2821    4.3016    3.3791 C.3       2 RES2    0.0000
    112 H46        7.9270    3.8092    3.8911 H         2 RES2    0.0000
    113 H47        7.0867    3.8254    2.5691 H         2 RES2    0.0000
    114 H48        6.4769    4.4039    3.8924 H         2 RES2    0.0000
    115 C49        9.0233    5.5893    2.0191 C.3       2 RES2    0.0000
    116 H49        9.8645    5.4386    2.4759 H         2 RES2    0.0000
    117 H50        8.8765    4.8679    1.3863 H         2 RES2    0.0000
    118 C50        4.8583    7.7219    2.4050 C.2       2 RES2    0.0000
    119 C51        4.0827    8.6199    3.3411 C.3       2 RES2    0.0000
    120 H51        3.9337    8.1383    4.1813 H         2 RES2    0.0000
    121 C52        2.7168    9.0422    2.7713 C.3       2 RES2    0.0000
    122 H52        2.6897    8.7840    1.8261 H         2 RES2    0.0000
    123 C53        2.5415   10.5669    2.8527 C.3       2 RES2    0.0000
    124 H53        1.6381   10.8417    2.5888 H         2 RES2    0.0000
    125 C54        2.8593   10.9891    4.2482 C.2       2 RES2    0.0000
    126 H54        2.2473   11.4354    4.7878 H         2 RES2    0.0000
    127 C55        4.0644   10.6833    4.6565 C.2       2 RES2    0.0000
    128 H55        4.3866   10.9180    5.4967 H         2 RES2    0.0000
    129 C56        4.8895    9.9191    3.6496 C.3       2 RES2    0.0000
    130 H56        5.7752    9.7057    4.0119 H         2 RES2    0.0000
    131 C57        5.0055   10.7537    2.3762 C.3       2 RES2    0.0000
    132 H57        5.4507   10.2393    1.6843 H         2 RES2    0.0000
    133 H58        5.5306   11.5498    2.5494 H         2 RES2    0.0000
    134 C58        3.6055   11.1461    1.9088 C.3       2 RES2    0.0000
    135 H59        3.4572   10.8132    1.0095 H         2 RES2    0.0000
    136 H60        3.5297   12.1126    1.8891 H         2 RES2    0.0000
@<TRIPOS>BOND
     1    1   10 1
     2    2   24 2
     3    3   35 2
     4    4   36 1
     5    5   50 2
     6    6    9 2
     7    7    9 2
     8    8   30 1
     9    9   53 1
    10   10   11 1
    11   12   10 1
    12   13   10 1
    13   14   13 ar
    14   15   14 1
    15   16   14 ar
    16   17   16 1
    17   18   16 ar
    18   19   18 1
    19   20   18 ar
    20   21   20 1
    21   22   13 ar
    22   23   22 1
    23   24    1 1
    24   25   24 1
    25   26   25 ar
    26   27   26 1
    27   28   26 ar
    28   29   28 1
    29   30   28 ar
    30   31   30 ar
    31   32   31 1
    32   33   25 ar
    33   34   33 1
    34   35    8 1
    35   36   35 1
    36   37   36 1
    37   38   36 1
    38   39   38 1
    39   40   39 1
    40   41   39 1
    41   42   39 1
    42   43   38 1
    43   44   43 1
    44   45   43 1
    45   46   43 1
    46   47    8 1
    47   48   47 1
    48   49   47 1
    49   50    4 1
    50   51   50 1
    51   52   51 1
    52   53   51 1
    53   54   53 1
    54   55   53 1
    55   56   55 1
    56   57   55 1
    57   58   57 1
    58   59   57 2
    59   60   59 1
    60   61   51 1
    61   62   61 1
    62   63   61 1
    63   64   63 1
    64   65   63 1
    65   66   55 1
    66   67   66 1
    67   68   66 1
    68   69   78 1
    69   70   92 2
    70   71  103 2
    71   72  104 1
    72   73  118 2
    73   74   77 2
    74   75   77 2
    75   76   98 1
    76   77  121 1
    77   78   79 1
    78   80   78 1
    79   81   78 1
    80   82   81 ar
    81   83   82 1
    82   84   82 ar
    83   85   84 1
    84   86   84 ar
    85   87   86 1
    86   88   86 ar
    87   89   88 1
    88   90   81 ar
    89   91   90 1
    90   92   69 1
    91   93   92 1
    92   94   93 ar
    93   95   94 1
    94   96   94 ar
    95   97   96 1
    96   98   96 ar
    97   99   98 ar
    98  100   99 1
    99  101   93 ar
   100  102  101 1
   101  103   76 1
   102  104  103 1
   103  105  104 1
   104  106  104 1
   105  107  106 1
   106  108  107 1
   107  109  107 1
   108  110  107 1
   109  111  106 1
   110  112  111 1
   111  113  111 1
   112  114  111 1
   113  115   76 1
   114  116  115 1
   115  117  115 1
   116  118   72 1
   117  119  118 1
   118  120  119 1
   119  121  119 1
   120  122  121 1
   121  123  121 1
   122  124  123 1
   123  125  123 1
   124  126  125 1
   125  127  125 2
   126  128  127 1
   127  129  119 1
   128  130  129 1
   129  131  129 1
   130  132  131 1
   131  133  131 1
   132  134  123 1
   133  135  134 1
   134  136  134 1
   135   20   22 ar
   136   31   33 ar
   137   38   47 1
   138   59   61 1
   139   63   66 1
   140   88   90 ar
   141   99  101 ar
   142  106  115 1
   143  127  129 1
   144  131  134 1
@<TRIPOS>SUBSTRUCTURE
     1 RES1 1
     2 RES2 69

@<TRIPOS>CRYSIN
  10.0377   10.5374   13.5760  89.6670  76.1920  68.2040   1 1

