# MOL2 file generated by ConQuest
# Please check atom types

@<TRIPOS>MOLECULE
WASHII
    34    35     1
SMALL
NO_CHARGES
****
Generated from CSD

@<TRIPOS>ATOM
      1 O1         0.5335    0.2216    5.5772 O.2       1 RES1    0.0000
      2 C1         3.1297    2.7337    8.1631 C.ar      1 RES1    0.0000
      3 C2         2.2104    2.2794    7.2261 C.ar      1 RES1    0.0000
      4 N1         0.1162    1.4295    5.5730 N.3       1 RES1    0.0000
      5 C3         0.9342    2.5440    5.0367 C.3       1 RES1    0.0000
      6 O2         3.4252    2.0407    9.2984 O.3       1 RES1    0.0000
      7 C4        -1.2100    1.8300    6.1177 C.3       1 RES1    0.0000
      8 C5         1.9318    3.0256    6.0950 C.ar      1 RES1    0.0000
      9 C6         3.7840    3.9362    7.9651 C.ar      1 RES1    0.0000
     10 C7         3.4972    4.6819    6.8453 C.ar      1 RES1    0.0000
     11 C8         2.5879    4.2390    5.9099 C.ar      1 RES1    0.0000
     12 C9        -1.3387    1.3678    7.5577 C.3       1 RES1    0.0000
     13 C10       -2.3106    1.2257    5.2514 C.3       1 RES1    0.0000
     14 C11       -1.1260    3.3436    5.9683 C.3       1 RES1    0.0000
     15 C12       -0.1796    3.5719    4.8083 C.3       1 RES1    0.0000
     16 C13        1.6542    2.1070    3.7735 C.3       1 RES1    0.0000
     17 H1         1.7787    1.4657    7.3604 H         1 RES1    0.0000
     18 H2         2.9355    1.3848    9.3534 H         1 RES1    0.0000
     19 H3         4.4104    4.2374    8.5826 H         1 RES1    0.0000
     20 H4         3.9236    5.4989    6.7186 H         1 RES1    0.0000
     21 H5         2.4136    4.7509    5.1535 H         1 RES1    0.0000
     22 H6        -1.2856    0.4104    7.5918 H         1 RES1    0.0000
     23 H7        -2.1827    1.6557    7.9120 H         1 RES1    0.0000
     24 H8        -0.6272    1.7467    8.0796 H         1 RES1    0.0000
     25 H9        -2.2248    1.5506    4.3524 H         1 RES1    0.0000
     26 H10       -3.1687    1.4778    5.6019 H         1 RES1    0.0000
     27 H11       -2.2314    0.2689    5.2544 H         1 RES1    0.0000
     28 H12       -2.0002    3.7198    5.7771 H         1 RES1    0.0000
     29 H13       -0.7808    3.7502    6.7785 H         1 RES1    0.0000
     30 H14        0.1733    4.4759    4.8205 H         1 RES1    0.0000
     31 H15       -0.6254    3.4186    3.9609 H         1 RES1    0.0000
     32 H16        2.2761    1.4071    3.9859 H         1 RES1    0.0000
     33 H17        2.1277    2.8546    3.4003 H         1 RES1    0.0000
     34 H18        1.0133    1.7831    3.1363 H         1 RES1    0.0000
@<TRIPOS>BOND
     1    1    4 1
     2    2    3 ar
     3    3    8 ar
     4    4    5 1
     5    5    8 1
     6    6    2 1
     7    7    4 1
     8    8   11 ar
     9    9    2 ar
    10   10    9 ar
    11   11   10 ar
    12   12    7 1
    13   13    7 1
    14   14    7 1
    15   15    5 1
    16   16    5 1
    17   17    3 1
    18   18    6 1
    19   19    9 1
    20   20   10 1
    21   21   11 1
    22   22   12 1
    23   23   12 1
    24   24   12 1
    25   25   13 1
    26   26   13 1
    27   27   13 1
    28   28   14 1
    29   29   14 1
    30   30   15 1
    31   31   15 1
    32   32   16 1
    33   33   16 1
    34   34   16 1
    35   14   15 1
@<TRIPOS>SUBSTRUCTURE
     1 RES1 1

@<TRIPOS>CRYSIN
   8.1217   20.2165    8.0943  90.0000 110.4030  90.0000  14 1

