# MOL2 file generated by ConQuest
# Please check atom types

@<TRIPOS>MOLECULE
WASMAE
    52    60     2
SMALL
NO_CHARGES
****
Generated from CSD

@<TRIPOS>ATOM
      1 O1        11.6448    1.4377    2.4944 O.2       1 RES1    0.0000
      2 O2        12.5873    1.8195    4.3250 O.2       1 RES1    0.0000
      3 O3         9.7166    8.0102    3.2000 O.2       1 RES1    0.0000
      4 O4         8.0230    6.9699    4.0385 O.2       1 RES1    0.0000
      5 O5         7.4014    2.8621    3.4376 O.3       1 RES1    0.0000
      6 O6         8.9035    1.3172    3.9756 O.2       1 RES1    0.0000
      7 N1        11.8430    2.1276    3.4446 N.pl3     1 RES1    0.0000
      8 N2         9.1637    7.0034    3.6123 N.pl3     1 RES1    0.0000
      9 C1        11.1445    3.4180    3.5075 C.3       1 RES1    0.0000
     10 C2         9.5912    3.5608    3.6263 C.3       1 RES1    0.0000
     11 C3         9.6559    4.6548    2.5013 C.3       1 RES1    0.0000
     12 C4         9.8824    5.7241    3.5843 C.3       1 RES1    0.0000
     13 C5         9.8258    4.6682    4.7023 C.3       1 RES1    0.0000
     14 C6        11.3765    4.4963    4.5765 C.3       1 RES1    0.0000
     15 C7        11.4250    5.5679    3.4586 C.3       1 RES1    0.0000
     16 C8        11.1917    4.4695    2.3756 C.3       1 RES1    0.0000
     17 C9         8.6311    2.4357    3.7031 C.2       1 RES1    0.0000
     18 C10        6.3402    1.8530    3.4586 C.3       1 RES1    0.0000
     19 O7         1.5722    4.3177    6.3093 O.2       2 RES2    0.0000
     20 O8        -0.0580    3.3019    7.1868 O.2       2 RES2    0.0000
     21 O9         5.1468   -1.2390    7.6158 O.2       2 RES2    0.0000
     22 O10        3.5396   -2.4066    6.8542 O.2       2 RES2    0.0000
     23 O11        5.4273    3.0608    6.5496 O.3       2 RES2    0.0000
     24 O12        4.1261    4.0922    7.9652 O.2       2 RES2    0.0000
     25 N3         1.0679    3.3532    6.7963 N.pl3     2 RES2    0.0000
     26 N4         4.0128   -1.3797    7.2036 N.pl3     2 RES2    0.0000
     27 C11        1.8648    2.1276    6.9032 C.3       2 RES2    0.0000
     28 C12        3.4182    2.0517    7.0639 C.3       2 RES2    0.0000
     29 C13        3.1876    0.9488    8.1888 C.3       2 RES2    0.0000
     30 C14        3.2159   -0.1563    7.0918 C.3       2 RES2    0.0000
     31 C15        3.4640    0.9176    5.9809 C.3       2 RES2    0.0000
     32 C16        1.8959    1.0158    5.8062 C.3       2 RES2    0.0000
     33 C17        1.6828   -0.0670    6.9171 C.3       2 RES2    0.0000
     34 C18        1.6397    1.0649    8.0071 C.3       2 RES2    0.0000
     35 C19        4.3432    3.1768    7.2525 C.2       2 RES2    0.0000
     36 C20        6.4454    4.0788    6.7634 C.3       2 RES2    0.0000
     37 H1         9.0747    4.7999    1.7957 H         1 RES1    0.0000
     38 H2         9.3309    4.7775    5.5197 H         1 RES1    0.0000
     39 H3        11.7985    4.4873    5.3800 H         1 RES1    0.0000
     40 H4        11.9738    6.4073    3.4236 H         1 RES1    0.0000
     41 H5        11.5423    4.2641    1.6070 H         1 RES1    0.0000
     42 H6         5.6498    2.4781    3.2839 H         1 RES1    0.0000
     43 H7         6.4858    1.1832    2.8647 H         1 RES1    0.0000
     44 H8         6.3644    1.3842    4.4018 H         1 RES1    0.0000
     45 H9         3.7216    0.9377    8.9503 H         2 RES2    0.0000
     46 H10        4.4767    0.7814    5.2402 H         2 RES2    0.0000
     47 H11        1.4293    0.9600    4.8909 H         2 RES2    0.0000
     48 H12        1.1192   -0.8260    6.7774 H         2 RES2    0.0000
     49 H13        0.9169    1.1832    8.7827 H         2 RES2    0.0000
     50 H14        6.7218    4.0721    7.6745 H         2 RES2    0.0000
     51 H15        7.1978    3.9069    6.2073 H         2 RES2    0.0000
     52 H16        6.0921    4.9383    6.5524 H         2 RES2    0.0000
@<TRIPOS>BOND
     1    1    7 2
     2    2    7 2
     3    3    8 2
     4    4    8 2
     5    5   17 1
     6    6   17 2
     7    7    9 1
     8    8   12 1
     9    9   10 1
    10   10   11 1
    11   11   12 1
    12   12   13 1
    13   13   10 1
    14   14    9 1
    15   15   12 1
    16   16    9 1
    17   17   10 1
    18   18    5 1
    19   19   25 2
    20   20   25 2
    21   21   26 2
    22   22   26 2
    23   23   35 1
    24   24   35 2
    25   25   27 1
    26   26   30 1
    27   27   28 1
    28   28   29 1
    29   29   30 1
    30   30   31 1
    31   31   28 1
    32   32   27 1
    33   33   30 1
    34   34   27 1
    35   35   28 1
    36   36   23 1
    37   37   11 1
    38   38   13 1
    39   39   14 1
    40   40   15 1
    41   41   16 1
    42   42   18 1
    43   43   18 1
    44   44   18 1
    45   45   29 1
    46   46   31 1
    47   47   32 1
    48   48   33 1
    49   49   34 1
    50   50   36 1
    51   51   36 1
    52   52   36 1
    53   11   16 1
    54   13   14 1
    55   14   15 1
    56   15   16 1
    57   29   34 1
    58   31   32 1
    59   32   33 1
    60   33   34 1
@<TRIPOS>SUBSTRUCTURE
     1 RES1 1
     2 RES2 19

@<TRIPOS>CRYSIN
  13.4840   22.3250    6.9870  90.0000  90.0000  90.0000  18 1

