# MOL2 file generated by ConQuest
# Please check atom types

@<TRIPOS>MOLECULE
WASRAJ01
    20    20     1
SMALL
NO_CHARGES
****
Generated from CSD

@<TRIPOS>ATOM
      1 O1         3.1520    4.4635    3.6985 O.2       1 RES1    0.0000
      2 O2         1.4503    5.6514    4.3218 O.2       1 RES1    0.0000
      3 O3        -1.0165    4.5999    8.2518 O.2       1 RES1    0.0000
      4 O4        -0.4031    2.9230    9.4857 O.2       1 RES1    0.0000
      5 N1         3.5582    2.0894    4.7087 N.3       1 RES1    0.0000
      6 N2         2.1835    4.6630    4.4480 N.pl3     1 RES1    0.0000
      7 N3        -0.3109    3.6179    8.4648 N.pl3     1 RES1    0.0000
      8 N4         4.1656    0.8181    4.8405 N.3       1 RES1    0.0000
      9 C1         2.6319    2.4917    5.5982 C.ar      1 RES1    0.0000
     10 C2         1.9210    3.7243    5.5028 C.ar      1 RES1    0.0000
     11 C3         0.9413    4.0809    6.4223 C.ar      1 RES1    0.0000
     12 C4         0.6820    3.2404    7.4780 C.ar      1 RES1    0.0000
     13 C5         1.3717    2.0288    7.6264 C.ar      1 RES1    0.0000
     14 C6         2.3139    1.6644    6.7135 C.ar      1 RES1    0.0000
     15 H1         3.7860    2.6183    4.0435 H         1 RES1    0.0000
     16 H2         0.4590    4.8935    6.3231 H         1 RES1    0.0000
     17 H3         1.1820    1.4616    8.3649 H         1 RES1    0.0000
     18 H4         2.7698    0.8380    6.8235 H         1 RES1    0.0000
     19 H5         3.8087    0.3187    4.1005 H         1 RES1    0.0000
     20 H6         5.1209    1.0489    4.8802 H         1 RES1    0.0000
@<TRIPOS>BOND
     1    1    6 2
     2    2    6 2
     3    3    7 2
     4    4    7 2
     5    5    8 1
     6    6   10 1
     7    7   12 1
     8    8   19 1
     9    9    5 1
    10   10    9 ar
    11   11   10 ar
    12   12   11 ar
    13   13   12 ar
    14   14    9 ar
    15   15    5 1
    16   16   11 1
    17   17   13 1
    18   18   14 1
    19   20    8 1
    20   13   14 ar
@<TRIPOS>SUBSTRUCTURE
     1 RES1 1

@<TRIPOS>CRYSIN
   4.7917   11.5905   14.0496  90.0000  98.3720  90.0000  14 1

