# MOL2 file generated by ConQuest
# Please check atom types

@<TRIPOS>MOLECULE
WASTUF
    23    27     1
SMALL
NO_CHARGES
****
Generated from CSD

@<TRIPOS>ATOM
      1 C1        -0.1885    5.1180    9.7913 C.3       1 RES1    0.0000
      2 C2        -0.4341    4.5322   11.1749 C.3       1 RES1    0.0000
      3 C3         0.7241    4.8311   12.1245 C.3       1 RES1    0.0000
      4 C4         2.0637    4.6654   11.4386 C.3       1 RES1    0.0000
      5 C5         2.1088    5.2290   10.0096 C.3       1 RES1    0.0000
      6 C6         3.4936    5.0582    9.4081 C.3       1 RES1    0.0000
      7 C7         3.7835    3.5759    9.1392 C.3       1 RES1    0.0000
      8 C8         2.6879    2.9116    8.2883 C.3       1 RES1    0.0000
      9 C9         1.2921    3.0773    8.9170 C.3       1 RES1    0.0000
     10 C10        1.0600    4.5698    9.1223 C.3       1 RES1    0.0000
     11 C11        0.1949    2.4215    8.0739 C.3       1 RES1    0.0000
     12 C12        0.4959    0.9546    7.7504 C.3       1 RES1    0.0000
     13 C13        1.8728    0.7992    7.1204 C.3       1 RES1    0.0000
     14 C14        2.9311    1.4293    8.0414 C.3       1 RES1    0.0000
     15 C15        4.2573    0.9614    7.4425 C.3       1 RES1    0.0000
     16 C16        3.9428   -0.4338    6.9099 C.3       1 RES1    0.0000
     17 C17        2.4321   -0.6387    7.0645 C.3       1 RES1    0.0000
     18 C18        1.8807    1.3696    5.7005 C.3       1 RES1    0.0000
     19 O1         0.6013    6.1392   12.7143 O.3       1 RES1    0.0000
     20 O2         1.9314   -1.4669    6.0252 O.3       1 RES1    0.0000
     21 O3         0.1378    6.5268    9.8862 O.3       1 RES1    0.0000
     22 N1         1.6177    6.6430   10.1291 N.3       1 RES1    0.0000
     23 C19        2.0724    7.5788    9.1145 C.3       1 RES1    0.0000
@<TRIPOS>BOND
     1    1    2 1
     2    2    3 1
     3    3    4 1
     4    4    5 1
     5    5    6 1
     6    6    7 1
     7    7    8 1
     8    8    9 1
     9    9   10 1
    10   10    1 1
    11   11    9 1
    12   12   11 1
    13   13   12 1
    14   14    8 1
    15   15   14 1
    16   16   15 1
    17   17   13 1
    18   18   13 1
    19   19    3 1
    20   20   17 1
    21   21    1 1
    22   22    5 1
    23   23   22 1
    24    5   10 1
    25   13   14 1
    26   16   17 1
    27   21   22 1
@<TRIPOS>SUBSTRUCTURE
     1 RES1 1

@<TRIPOS>CRYSIN
   7.9220   17.0770   12.9910  90.0000  90.0000  90.0000  19 1

