# MOL2 file generated by ConQuest
# Please check atom types

@<TRIPOS>MOLECULE
WASTOZ
    25    29     1
SMALL
NO_CHARGES
****
Generated from CSD

@<TRIPOS>ATOM
      1 C1         5.3399   29.6929   -0.2790 C.3       1 RES1    0.0000
      2 C2         5.6205   31.0390    0.3737 C.3       1 RES1    0.0000
      3 C3         7.0511   31.1459    0.7549 C.2       1 RES1    0.0000
      4 C4         7.8893   30.1458    0.6384 C.2       1 RES1    0.0000
      5 C5         7.4367   28.8123    0.0813 C.3       1 RES1    0.0000
      6 C6         8.3134   27.6423    0.5035 C.3       1 RES1    0.0000
      7 C7         8.1378   27.3718    2.0049 C.3       1 RES1    0.0000
      8 C8         6.6685   27.1076    2.3584 C.3       1 RES1    0.0000
      9 C9         5.8027   28.3436    1.9889 C.3       1 RES1    0.0000
     10 C10        5.9871   28.5418    0.4801 C.3       1 RES1    0.0000
     11 C11        4.3276   28.1675    2.3835 C.3       1 RES1    0.0000
     12 C12        4.1585   27.7398    3.8463 C.3       1 RES1    0.0000
     13 C13        4.9631   26.4755    4.1421 C.3       1 RES1    0.0000
     14 C14        6.4535   26.7837    3.8313 C.3       1 RES1    0.0000
     15 C15        7.2093   25.6043    4.4563 C.3       1 RES1    0.0000
     16 C16        6.3763   25.2709    5.7130 C.3       1 RES1    0.0000
     17 C17        5.0958   26.1012    5.6225 C.3       1 RES1    0.0000
     18 C18        4.4020   25.2803    3.3579 C.3       1 RES1    0.0000
     19 O1         3.9064   25.3747    6.0472 O.3       1 RES1    0.0000
     20 C19        3.7489   25.1608    7.3475 C.2       1 RES1    0.0000
     21 O2         4.5062   25.5697    8.1778 O.2       1 RES1    0.0000
     22 C20        2.5632   24.3305    7.6474 C.3       1 RES1    0.0000
     23 N1         7.2537   28.8311   -1.3933 N.3       1 RES1    0.0000
     24 O3         6.0090   29.6426   -1.5617 O.3       1 RES1    0.0000
     25 C21        8.2493   29.5388   -2.1590 C.3       1 RES1    0.0000
@<TRIPOS>BOND
     1    1    2 1
     2    2    3 1
     3    3    4 2
     4    4    5 1
     5    5    6 1
     6    6    7 1
     7    7    8 1
     8    8    9 1
     9    9   10 1
    10   10    1 1
    11   11    9 1
    12   12   11 1
    13   13   12 1
    14   14    8 1
    15   15   14 1
    16   16   15 1
    17   17   13 1
    18   18   13 1
    19   19   17 1
    20   20   19 1
    21   21   20 2
    22   22   20 1
    23   23    5 1
    24   24    1 1
    25   25   23 1
    26    5   10 1
    27   13   14 1
    28   16   17 1
    29   23   24 1
@<TRIPOS>SUBSTRUCTURE
     1 RES1 1

@<TRIPOS>CRYSIN
   7.2880   31.4510    8.3780  90.0000  90.0000  90.0000  19 1

