# MOL2 file generated by ConQuest
# Please check atom types

@<TRIPOS>MOLECULE
WATTAN
    70    72     2
SMALL
NO_CHARGES
****
Generated from CSD

@<TRIPOS>ATOM
      1 N1         1.4182    2.2673   -0.3906 N.pl3     1 RES1    0.0000
      2 H1         0.5826    2.2434   -0.0444 H         1 RES1    0.0000
      3 C1         1.8435    1.4333   -1.4847 C.3       1 RES1    0.0000
      4 H2         2.0849    0.5567   -1.1208 H         1 RES1    0.0000
      5 C2         3.0520    2.0149   -2.1239 C.3       1 RES1    0.0000
      6 H3         2.7941    2.8676   -2.5322 H         1 RES1    0.0000
      7 C3         4.1365    2.3109   -1.0497 C.2       1 RES1    0.0000
      8 C4         3.6513    2.7575    0.1731 C.2       1 RES1    0.0000
      9 H4         4.2506    3.0358    0.8278 H         1 RES1    0.0000
     10 C5         2.2782    2.7949    0.4372 C.2       1 RES1    0.0000
     11 C6         0.6885    1.2339   -2.4723 C.ar      1 RES1    0.0000
     12 C7        -0.1597    2.2662   -2.8207 C.ar      1 RES1    0.0000
     13 H5        -0.0133    3.1262   -2.4989 H         1 RES1    0.0000
     14 C8        -1.2200    2.0045   -3.6530 C.ar      1 RES1    0.0000
     15 C9        -1.4564    0.7758   -4.1923 C.ar      1 RES1    0.0000
     16 H6        -2.1758    0.6346   -4.7649 H         1 RES1    0.0000
     17 C10       -0.6082   -0.2378   -3.8705 C.ar      1 RES1    0.0000
     18 H7        -0.7389   -1.0853   -4.2300 H         1 RES1    0.0000
     19 C11        0.4335   -0.0125   -3.0205 C.ar      1 RES1    0.0000
     20 H8         0.9947   -0.7218   -2.8008 H         1 RES1    0.0000
     21 N2        -2.1382    3.1002   -3.9703 N.pl3     1 RES1    0.0000
     22 O1        -1.8264    4.2188   -3.6818 O.2       1 RES1    0.0000
     23 O2        -3.2000    2.8198   -4.5141 O.2       1 RES1    0.0000
     24 C12        3.6621    1.1580   -3.1980 C.2       1 RES1    0.0000
     25 O3         3.9027    0.0031   -3.0760 O.2       1 RES1    0.0000
     26 O4         3.9310    1.8664   -4.2744 O.3       1 RES1    0.0000
     27 C13        4.6236    1.0552   -5.3241 C.3       1 RES1    0.0000
     28 H9         5.5254    0.8735   -5.0467 H         1 RES1    0.0000
     29 H10        4.6369    1.5444   -6.1519 H         1 RES1    0.0000
     30 H11        4.1553    0.2264   -5.4506 H         1 RES1    0.0000
     31 O5         5.3478    2.2652   -1.3804 O.2       1 RES1    0.0000
     32 C14        1.7411    3.4793    1.6489 C.3       1 RES1    0.0000
     33 H12        1.3362    4.3112    1.3959 H         1 RES1    0.0000
     34 H13        2.4575    3.6476    2.2659 H         1 RES1    0.0000
     35 H14        1.0839    2.9185    2.0684 H         1 RES1    0.0000
     36 N3         7.8497    2.2122   -0.0644 N.pl3     2 RES2    0.0000
     37 H15        7.1423    2.3992   -0.2441 H         2 RES2    0.0000
     38 C15        8.3527    3.2986    0.7990 C.3       2 RES2    0.0000
     39 H16        8.5629    4.0713    0.2352 H         2 RES2    0.0000
     40 C16        9.6182    2.8291    1.4559 C.3       2 RES2    0.0000
     41 H17        9.3817    2.1125    2.0795 H         2 RES2    0.0000
     42 C17       10.6143    2.2558    0.4461 C.2       2 RES2    0.0000
     43 C18       10.0357    1.5382   -0.6192 C.2       2 RES2    0.0000
     44 H18       10.5911    1.0957   -1.2184 H         2 RES2    0.0000
     45 C19        8.6858    1.4727   -0.7967 C.2       2 RES2    0.0000
     46 C20        7.2470    3.7047    1.7843 C.ar      2 RES2    0.0000
     47 C21        6.6645    2.7679    2.6277 C.ar      2 RES2    0.0000
     48 H19        6.9560    1.8851    2.6365 H         2 RES2    0.0000
     49 C22        5.6325    3.1854    3.4599 C.ar      2 RES2    0.0000
     50 C23        5.1903    4.4795    3.5198 C.ar      2 RES2    0.0000
     51 H20        4.4941    4.7298    4.0835 H         2 RES2    0.0000
     52 C24        5.8200    5.3862    2.7120 C.ar      2 RES2    0.0000
     53 H21        5.5582    6.2783    2.7408 H         2 RES2    0.0000
     54 C25        6.8226    5.0144    1.8620 C.ar      2 RES2    0.0000
     55 H22        7.2277    5.6573    1.3249 H         2 RES2    0.0000
     56 N4         4.9377    2.1759    4.2788 N.pl3     2 RES2    0.0000
     57 O6         5.5209    1.1227    4.4719 O.2       2 RES2    0.0000
     58 O7         3.8370    2.4293    4.7049 O.2       2 RES2    0.0000
     59 C26       10.2887    3.9041    2.2348 C.2       2 RES2    0.0000
     60 O8        10.3621    5.0382    1.9175 O.2       2 RES2    0.0000
     61 O9        10.8906    3.4367    3.3267 O.3       2 RES2    0.0000
     62 C27       11.6977    4.3985    4.0835 C.3       2 RES2    0.0000
     63 H23       12.3404    4.8077    3.4999 H         2 RES2    0.0000
     64 H24       12.1549    3.9425    4.7937 H         2 RES2    0.0000
     65 H25       11.1265    5.0756    4.4542 H         2 RES2    0.0000
     66 O10       11.8352    2.3680    0.6569 O.2       2 RES2    0.0000
     67 C28        8.0742    0.5847   -1.8331 C.3       2 RES2    0.0000
     68 H26        7.2639    0.2015   -1.4892 H         2 RES2    0.0000
     69 H27        8.6903   -0.1174   -2.0573 H         2 RES2    0.0000
     70 H28        7.8764    1.0988   -2.6210 H         2 RES2    0.0000
@<TRIPOS>BOND
     1    1    2 1
     2    3    1 1
     3    4    3 1
     4    5    3 1
     5    6    5 1
     6    7    5 1
     7    8    7 1
     8    9    8 1
     9   10    1 1
    10   11    3 1
    11   12   11 ar
    12   13   12 1
    13   14   12 ar
    14   15   14 ar
    15   16   15 1
    16   17   15 ar
    17   18   17 1
    18   19   11 ar
    19   20   19 1
    20   21   14 1
    21   22   21 2
    22   23   21 2
    23   24    5 1
    24   25   24 2
    25   26   24 1
    26   27   26 1
    27   28   27 1
    28   29   27 1
    29   30   27 1
    30   31    7 2
    31   32   10 1
    32   33   32 1
    33   34   32 1
    34   35   32 1
    35   36   37 1
    36   38   36 1
    37   39   38 1
    38   40   38 1
    39   41   40 1
    40   42   40 1
    41   43   42 1
    42   44   43 1
    43   45   36 1
    44   46   38 1
    45   47   46 ar
    46   48   47 1
    47   49   47 ar
    48   50   49 ar
    49   51   50 1
    50   52   50 ar
    51   53   52 1
    52   54   46 ar
    53   55   54 1
    54   56   49 1
    55   57   56 2
    56   58   56 2
    57   59   40 1
    58   60   59 2
    59   61   59 1
    60   62   61 1
    61   63   62 1
    62   64   62 1
    63   65   62 1
    64   66   42 2
    65   67   45 1
    66   68   67 1
    67   69   67 1
    68   70   67 1
    69    8   10 2
    70   17   19 ar
    71   43   45 2
    72   52   54 ar
@<TRIPOS>SUBSTRUCTURE
     1 RES1 1
     2 RES2 36

@<TRIPOS>CRYSIN
  12.9960   10.3860   22.8430  90.0000 103.7000  90.0000 231 1

