# MOL2 file generated by ConQuest
# Please check atom types

@<TRIPOS>MOLECULE
WAVJOV
    60    61     1
SMALL
NO_CHARGES
****
Generated from CSD

@<TRIPOS>ATOM
      1 O1         8.2468   -2.2329    6.8555 O.2       1 RES1    0.0000
      2 O2         6.4166   -2.6530    7.8849 O.2       1 RES1    0.0000
      3 O3         4.4679    3.9398    8.5850 O.2       1 RES1    0.0000
      4 O4         6.4066    2.9245    8.1475 O.3       1 RES1    0.0000
      5 O5         3.6184    3.0412    5.3577 O.3       1 RES1    0.0000
      6 H1         3.3276    3.8076    5.3806 H         1 RES1    0.0000
      7 N1         4.5286    5.3296    6.2565 N.3       1 RES1    0.0000
      8 N2         7.1111   -1.9563    7.1617 N.pl3     1 RES1    0.0000
      9 C1         4.7539    0.8471    6.5688 C.ar      1 RES1    0.0000
     10 H2         3.8960    1.1031    6.8182 H         1 RES1    0.0000
     11 C2         5.2567   -0.3652    7.0012 C.ar      1 RES1    0.0000
     12 H3         4.7508   -0.9222    7.5476 H         1 RES1    0.0000
     13 C3         6.5193   -0.7276    6.6066 C.ar      1 RES1    0.0000
     14 C4         7.2591    0.0455    5.7553 C.ar      1 RES1    0.0000
     15 H4         8.0993   -0.2372    5.4715 H         1 RES1    0.0000
     16 C5         6.7446    1.2490    5.3221 C.ar      1 RES1    0.0000
     17 H5         7.2307    1.7689    4.7247 H         1 RES1    0.0000
     18 C6         5.5151    1.6895    5.7663 C.ar      1 RES1    0.0000
     19 C7         5.0244    3.0708    5.4087 C.3       1 RES1    0.0000
     20 H6         5.3566    3.2886    4.5131 H         1 RES1    0.0000
     21 C8         5.4995    4.2270    6.4091 C.3       1 RES1    0.0000
     22 C9         4.8937    6.6564    5.8486 C.ar      1 RES1    0.0000
     23 C10        5.1114    6.9444    4.5040 C.ar      1 RES1    0.0000
     24 C11        5.4240    8.2540    4.1463 C.ar      1 RES1    0.0000
     25 H7         5.6065    8.4425    3.2535 H         1 RES1    0.0000
     26 C12        5.4746    9.2807    5.0612 C.ar      1 RES1    0.0000
     27 C13        5.2021    8.9763    6.3833 C.ar      1 RES1    0.0000
     28 H8         5.2104    9.6613    7.0124 H         1 RES1    0.0000
     29 C14        4.9174    7.6881    6.8011 C.ar      1 RES1    0.0000
     30 C15        5.3739    3.7016    7.8359 C.2       1 RES1    0.0000
     31 C16        6.4377    2.3241    9.4624 C.3       1 RES1    0.0000
     32 H9         5.6810    1.7288    9.5801 H         1 RES1    0.0000
     33 H10        6.4017    3.0099   10.1489 H         1 RES1    0.0000
     34 C17        7.7112    1.5669    9.5502 C.3       1 RES1    0.0000
     35 H11        7.7731    1.1432   10.4102 H         1 RES1    0.0000
     36 H12        8.4507    2.1692    9.4357 H         1 RES1    0.0000
     37 H13        7.7335    0.8985    8.8619 H         1 RES1    0.0000
     38 C18        6.9496    4.6127    6.1141 C.3       1 RES1    0.0000
     39 H14        6.9781    5.0441    5.2462 H         1 RES1    0.0000
     40 H15        7.4738    3.7987    6.0515 H         1 RES1    0.0000
     41 C19        7.6219    5.5374    7.1311 C.3       1 RES1    0.0000
     42 H16        7.2916    6.4394    6.9974 H         1 RES1    0.0000
     43 H17        7.3621    5.2591    8.0230 H         1 RES1    0.0000
     44 C20        9.0847    5.5542    7.0509 C.3       1 RES1    0.0000
     45 H18        9.4346    6.1488    7.7181 H         1 RES1    0.0000
     46 H19        9.3542    5.8567    6.1797 H         1 RES1    0.0000
     47 H20        9.4241    4.6690    7.2015 H         1 RES1    0.0000
     48 C21        4.6318    7.4267    8.2566 C.3       1 RES1    0.0000
     49 H21        4.6907    8.2497    8.7474 H         1 RES1    0.0000
     50 H22        5.2731    6.8011    8.6018 H         1 RES1    0.0000
     51 H23        3.7480    7.0621    8.3491 H         1 RES1    0.0000
     52 C22        4.9391    5.9243    3.4156 C.3       1 RES1    0.0000
     53 H24        5.1354    6.3267    2.5665 H         1 RES1    0.0000
     54 H25        4.0338    5.6046    3.4166 H         1 RES1    0.0000
     55 H26        5.5371    5.1895    3.5684 H         1 RES1    0.0000
     56 C23        5.7835   10.6953    4.6313 C.3       1 RES1    0.0000
     57 H27        5.7754   11.2730    5.3980 H         1 RES1    0.0000
     58 H28        5.1214   10.9898    4.0015 H         1 RES1    0.0000
     59 H29        6.6508   10.7229    4.2194 H         1 RES1    0.0000
     60 H30        4.0642    5.3629    6.9626 H         1 RES1    0.0000
@<TRIPOS>BOND
     1    1    8 2
     2    2    8 2
     3    3   30 2
     4    4   30 1
     5    5    6 1
     6    7   21 1
     7    8   13 1
     8    9   10 1
     9   11    9 ar
    10   12   11 1
    11   13   11 ar
    12   14   13 ar
    13   15   14 1
    14   16   14 ar
    15   17   16 1
    16   18    9 ar
    17   19    5 1
    18   20   19 1
    19   21   19 1
    20   22    7 1
    21   23   22 ar
    22   24   23 ar
    23   25   24 1
    24   26   24 ar
    25   27   26 ar
    26   28   27 1
    27   29   22 ar
    28   30   21 1
    29   31    4 1
    30   32   31 1
    31   33   31 1
    32   34   31 1
    33   35   34 1
    34   36   34 1
    35   37   34 1
    36   38   21 1
    37   39   38 1
    38   40   38 1
    39   41   38 1
    40   42   41 1
    41   43   41 1
    42   44   41 1
    43   45   44 1
    44   46   44 1
    45   47   44 1
    46   48   29 1
    47   49   48 1
    48   50   48 1
    49   51   48 1
    50   52   23 1
    51   53   52 1
    52   54   52 1
    53   55   52 1
    54   56   26 1
    55   57   56 1
    56   58   56 1
    57   59   56 1
    58   60    7 1
    59   16   18 ar
    60   18   19 1
    61   27   29 ar
@<TRIPOS>SUBSTRUCTURE
     1 RES1 1

@<TRIPOS>CRYSIN
  12.0803   14.8270   13.7314  90.0000 114.9840  90.0000  14 1

