# MOL2 file generated by ConQuest
# Please check atom types

@<TRIPOS>MOLECULE
WAVLOU
    90    91     2
SMALL
NO_CHARGES
****
Generated from CSD

@<TRIPOS>ATOM
      1 N1        -0.9884    2.8710    5.9847 N.3       1 RES1    0.0000
      2 N2        -0.8033    0.0620    5.6843 N.2       1 RES1    0.0000
      3 N3         0.5322   -0.2286    8.3737 N.3       1 RES1    0.0000
      4 N4         0.3078    2.5881    8.6895 N.2       1 RES1    0.0000
      5 C1        -0.9317    4.1777    6.3682 C.2       1 RES1    0.0000
      6 C2        -1.5201    4.9824    5.3315 C.2       1 RES1    0.0000
      7 C3        -1.6930    6.4692    5.4006 C.3       1 RES1    0.0000
      8 C4        -2.8903    6.8671    6.2557 C.3       1 RES1    0.0000
      9 C5        -1.9196    4.1459    4.3281 C.2       1 RES1    0.0000
     10 C6        -2.5934    4.5396    3.0473 C.3       1 RES1    0.0000
     11 C7        -4.0889    4.7656    3.2109 C.3       1 RES1    0.0000
     12 C8        -1.5754    2.8104    4.7551 C.2       1 RES1    0.0000
     13 C9        -1.7591    1.6038    4.0674 C.2       1 RES1    0.0000
     14 C10       -1.3886    0.3190    4.4802 C.2       1 RES1    0.0000
     15 C11       -1.5857   -0.9067    3.7184 C.2       1 RES1    0.0000
     16 C12       -2.1225   -1.0259    2.3238 C.3       1 RES1    0.0000
     17 C13       -1.0538   -0.8457    1.2540 C.3       1 RES1    0.0000
     18 C14       -1.1116   -1.9115    4.5007 C.2       1 RES1    0.0000
     19 C15       -1.0643   -3.3806    4.2016 C.3       1 RES1    0.0000
     20 C16        0.2772   -3.8525    3.6558 C.3       1 RES1    0.0000
     21 C17       -0.6112   -1.2879    5.7240 C.2       1 RES1    0.0000
     22 C18       -0.0223   -1.9931    6.7696 C.2       1 RES1    0.0000
     23 C19        0.5141   -1.5236    7.9481 C.2       1 RES1    0.0000
     24 C20        1.1519   -2.3194    8.9502 C.2       1 RES1    0.0000
     25 C21        1.3821   -3.7959    8.8608 C.3       1 RES1    0.0000
     26 C22        2.6585   -4.1204    8.0951 C.3       1 RES1    0.0000
     27 C23        1.5533   -1.4877    9.9703 C.2       1 RES1    0.0000
     28 C24        2.2399   -1.9594   11.2166 C.3       1 RES1    0.0000
     29 C25        1.2628   -2.3588   12.3120 C.3       1 RES1    0.0000
     30 C26        1.1351   -0.1558    9.5957 C.2       1 RES1    0.0000
     31 C27        1.2774    1.0542   10.2886 C.2       1 RES1    0.0000
     32 C28        0.8790    2.3424    9.9025 C.2       1 RES1    0.0000
     33 C29        1.0511    3.5787   10.6682 C.2       1 RES1    0.0000
     34 C30        1.5163    3.7445   12.0845 C.3       1 RES1    0.0000
     35 C31        0.4088    3.5166   13.1032 C.3       1 RES1    0.0000
     36 C32        0.6101    4.5677    9.8565 C.2       1 RES1    0.0000
     37 C33        0.5733    6.0413   10.1364 C.3       1 RES1    0.0000
     38 C34       -0.7601    6.5392   10.6733 C.3       1 RES1    0.0000
     39 C35        0.1530    3.9419    8.6320 C.2       1 RES1    0.0000
     40 C36       -0.3991    4.6534    7.5659 C.2       1 RES1    0.0000
     41 N5        -2.3838    1.6909    2.8428 N.pl3     1 RES1    0.0000
     42 O1        -3.6133    1.6564    2.8134 O.2       1 RES1    0.0000
     43 O2        -1.7171    1.7580    1.7755 O.2       1 RES1    0.0000
     44 N6         2.0373    0.9295   11.5067 Du        2 SUP2    0.0000
     45 O3         1.4625    0.6475   12.5523 Du        2 SUP2    0.0000
     46 O4         3.2611    1.1030   11.4390 Du        2 SUP2    0.0000
     47 H1        -0.6928    2.1722    6.4692 H         1 RES1    0.0000
     48 H2         0.2067    0.4714    7.9110 H         1 RES1    0.0000
     49 H3        -1.8175    6.8056    4.5096 H         1 RES1    0.0000
     50 H4        -0.9028    6.8740    5.7649 H         1 RES1    0.0000
     51 H5        -2.9881    7.8207    6.2762 H         1 RES1    0.0000
     52 H6        -3.6827    6.4718    5.8837 H         1 RES1    0.0000
     53 H7        -2.7600    6.5404    7.1492 H         1 RES1    0.0000
     54 H8        -2.4479    3.8624    2.3826 H         1 RES1    0.0000
     55 H9        -2.1956    5.3547    2.7342 H         1 RES1    0.0000
     56 H10       -4.4836    5.0290    2.3762 H         1 RES1    0.0000
     57 H11       -4.4904    3.9460    3.5113 H         1 RES1    0.0000
     58 H12       -4.2362    5.4520    3.8654 H         1 RES1    0.0000
     59 H13       -2.8148   -0.3751    2.1896 H         1 RES1    0.0000
     60 H14       -2.5075   -1.8984    2.2114 H         1 RES1    0.0000
     61 H15       -1.4233   -0.9331    0.3720 H         1 RES1    0.0000
     62 H16       -0.6776    0.0315    1.3575 H         1 RES1    0.0000
     63 H17       -0.3677   -1.5052    1.3792 H         1 RES1    0.0000
     64 H18       -1.7489   -3.5939    3.5637 H         1 RES1    0.0000
     65 H19       -1.2497   -3.8720    5.0069 H         1 RES1    0.0000
     66 H20        0.2603   -4.7960    3.4794 H         1 RES1    0.0000
     67 H21        0.4601   -3.3787    2.8402 H         1 RES1    0.0000
     68 H22        0.9631   -3.6598    4.2987 H         1 RES1    0.0000
     69 H23        0.0245   -2.9431    6.6430 H         1 RES1    0.0000
     70 H24        0.6340   -4.1973    8.4121 H         1 RES1    0.0000
     71 H25        1.4373   -4.1690    9.7427 H         1 RES1    0.0000
     72 H26        2.7768   -5.0719    8.0440 H         1 RES1    0.0000
     73 H27        2.5977   -3.7573    7.2080 H         1 RES1    0.0000
     74 H28        3.4072   -3.7281    8.5501 H         1 RES1    0.0000
     75 H29        2.7673   -1.2332   11.5566 H         1 RES1    0.0000
     76 H30        2.8357   -2.6826   11.0044 H         1 RES1    0.0000
     77 H31        1.7480   -2.6328   13.0930 H         1 RES1    0.0000
     78 H32        0.6764   -1.6328   12.5383 H         1 RES1    0.0000
     79 H33        0.7450   -3.0964   11.9809 H         1 RES1    0.0000
     80 H34        1.8634    4.6315   12.2046 H         1 RES1    0.0000
     81 H35        2.2280    3.1235   12.2532 H         1 RES1    0.0000
     82 H36        0.7424    3.6264   13.9967 H         1 RES1    0.0000
     83 H37       -0.2968    4.1484   12.9447 H         1 RES1    0.0000
     84 H38        0.0716    2.6257   12.9933 H         1 RES1    0.0000
     85 H39        0.7674    6.5265    9.3299 H         1 RES1    0.0000
     86 H40        1.2612    6.2452   10.7743 H         1 RES1    0.0000
     87 H41       -0.7294    7.4828   10.8459 H         1 RES1    0.0000
     88 H42       -1.4477    6.3550   10.0291 H         1 RES1    0.0000
     89 H43       -0.9500    6.0707   11.4888 H         1 RES1    0.0000
     90 H44       -0.3920    5.6081    7.6656 H         1 RES1    0.0000
@<TRIPOS>BOND
     1    1    5 1
     2    2   14 1
     3    3   23 1
     4    4   32 2
     5    5    6 2
     6    6    7 1
     7    7    8 1
     8    8   51 1
     9    9    6 1
    10   10    9 1
    11   11   10 1
    12   12    1 1
    13   13   12 1
    14   14   13 2
    15   15   14 1
    16   16   15 1
    17   17   16 1
    18   18   15 2
    19   19   18 1
    20   20   19 1
    21   21    2 2
    22   22   21 1
    23   23   22 2
    24   24   23 1
    25   25   24 1
    26   26   25 1
    27   27   24 2
    28   28   27 1
    29   29   28 1
    30   30    3 1
    31   31   30 2
    32   32   31 1
    33   33   32 1
    34   34   33 1
    35   35   34 1
    36   36   33 2
    37   37   36 1
    38   38   37 1
    39   39    4 1
    40   40    5 1
    41   41   13 1
    42   42   41 2
    43   43   41 2
    44   47    1 1
    45   48    3 1
    46   49    7 1
    47   50    7 1
    48   52    8 1
    49   53    8 1
    50   54   10 1
    51   55   10 1
    52   56   11 1
    53   57   11 1
    54   58   11 1
    55   59   16 1
    56   60   16 1
    57   61   17 1
    58   62   17 1
    59   63   17 1
    60   64   19 1
    61   65   19 1
    62   66   20 1
    63   67   20 1
    64   68   20 1
    65   69   22 1
    66   70   25 1
    67   71   25 1
    68   72   26 1
    69   73   26 1
    70   74   26 1
    71   75   28 1
    72   76   28 1
    73   77   29 1
    74   78   29 1
    75   79   29 1
    76   80   34 1
    77   81   34 1
    78   82   35 1
    79   83   35 1
    80   84   35 1
    81   85   37 1
    82   86   37 1
    83   87   38 1
    84   88   38 1
    85   89   38 1
    86   90   40 1
    87    9   12 2
    88   18   21 1
    89   27   30 1
    90   36   39 1
    91   39   40 2
@<TRIPOS>SUBSTRUCTURE
     1 RES1 1
     2 SUP2 44

@<TRIPOS>CRYSIN
   9.3740   13.7940   14.2210 104.6900 106.3900 104.5700   2 1

