# MOL2 file generated by ConQuest
# Please check atom types

@<TRIPOS>MOLECULE
WAWBAY
    27    28     1
SMALL
NO_CHARGES
****
Generated from CSD

@<TRIPOS>ATOM
      1 O1         1.5029    5.5135    5.3935 O.2       1 RES1    0.0000
      2 O2        -0.0471    4.0631    5.6622 O.2       1 RES1    0.0000
      3 O3        -0.7012    2.1493   11.8046 O.3       1 RES1    0.0000
      4 N1         0.6623    4.9599    6.0799 N.pl3     1 RES1    0.0000
      5 N2         0.0856    6.3474   11.4336 N.2       1 RES1    0.0000
      6 N3        -1.2223    4.6972   10.6456 N.pl3     1 RES1    0.0000
      7 C1         0.5163    5.3767    7.4785 C.ar      1 RES1    0.0000
      8 C2         1.3285    6.4136    7.9462 C.ar      1 RES1    0.0000
      9 C3         1.2413    6.8144    9.2580 C.ar      1 RES1    0.0000
     10 C4         0.3442    6.1607   10.0870 C.ar      1 RES1    0.0000
     11 C5        -0.4619    5.1271    9.5809 C.ar      1 RES1    0.0000
     12 C6        -0.4019    4.7045    8.2599 C.ar      1 RES1    0.0000
     13 C7        -0.8424    5.4657   11.7031 C.2       1 RES1    0.0000
     14 C8        -2.1717    3.5893   10.6572 C.3       1 RES1    0.0000
     15 C9        -1.4887    2.2488   10.6454 C.3       1 RES1    0.0000
     16 C10       -0.1303    0.8675   11.9447 C.3       1 RES1    0.0000
     17 H1         1.9942    6.8543    7.3878 H         1 RES1    0.0000
     18 H2         1.8272    7.5698    9.5896 H         1 RES1    0.0000
     19 H3        -0.9270    4.0210    7.9296 H         1 RES1    0.0000
     20 H4        -1.2306    5.3236   12.5817 H         1 RES1    0.0000
     21 H5        -2.7162    3.6599    9.8460 H         1 RES1    0.0000
     22 H6        -2.6839    3.6700   11.4980 H         1 RES1    0.0000
     23 H7        -2.1782    1.5105   10.6376 H         1 RES1    0.0000
     24 H8        -0.9077    2.1053    9.8195 H         1 RES1    0.0000
     25 H9         0.3642    0.6390   11.0883 H         1 RES1    0.0000
     26 H10       -0.8551    0.1506   12.0266 H         1 RES1    0.0000
     27 H11        0.3941    0.8516   12.6610 H         1 RES1    0.0000
@<TRIPOS>BOND
     1    1    4 2
     2    2    4 2
     3    3   15 1
     4    4    7 1
     5    5   10 1
     6    6   11 1
     7    7    8 ar
     8    8    9 ar
     9    9   10 ar
    10   10   11 ar
    11   11   12 ar
    12   12    7 ar
    13   13    5 2
    14   14    6 1
    15   15   14 1
    16   16    3 1
    17   17    8 1
    18   18    9 1
    19   19   12 1
    20   20   13 1
    21   21   14 1
    22   22   14 1
    23   23   15 1
    24   24   15 1
    25   25   16 1
    26   26   16 1
    27   27   16 1
    28    6   13 1
@<TRIPOS>SUBSTRUCTURE
     1 RES1 1

@<TRIPOS>CRYSIN
   4.7940    8.4531   13.4110  97.3500  94.8540 101.2660   2 1

