# MOL2 file generated by ConQuest
# Please check atom types

@<TRIPOS>MOLECULE
WAWXAV
    32    35     1
SMALL
NO_CHARGES
****
Generated from CSD

@<TRIPOS>ATOM
      1 O1         5.1765   13.2280    2.4622 O.3       1 RES1    0.0000
      2 O2         3.6109    9.7395    1.9431 O.3       1 RES1    0.0000
      3 O3         0.4766    8.2714    1.7505 O.2       1 RES1    0.0000
      4 O4         2.2064    7.7694    2.9753 O.2       1 RES1    0.0000
      5 N1         5.5267   11.8601    2.8033 N.3       1 RES1    0.0000
      6 N2         1.6435    8.4438    2.1268 N.pl3     1 RES1    0.0000
      7 C1         5.4717   11.2024    1.4630 C.3       1 RES1    0.0000
      8 H1         6.0823   10.4096    1.4513 H         1 RES1    0.0000
      9 C2         5.9914   12.2765    0.4750 C.3       1 RES1    0.0000
     10 H2         6.8923   12.0445    0.1366 H         1 RES1    0.0000
     11 H3         5.3754   12.3838   -0.2921 H         1 RES1    0.0000
     12 C3         6.0350   13.5474    1.3307 C.3       1 RES1    0.0000
     13 H4         5.6721   14.3289    0.8218 H         1 RES1    0.0000
     14 C4         7.4114   13.8558    1.8707 C.3       1 RES1    0.0000
     15 H5         7.4001   14.7317    2.3306 H         1 RES1    0.0000
     16 H6         8.0583   13.9079    1.1233 H         1 RES1    0.0000
     17 C5         7.8388   12.7780    2.8404 C.ar      1 RES1    0.0000
     18 C6         9.1433   12.6567    3.3078 C.ar      1 RES1    0.0000
     19 H7         9.8002   13.2765    3.0157 H         1 RES1    0.0000
     20 C7         9.5044   11.6534    4.1890 C.ar      1 RES1    0.0000
     21 H8        10.4030   11.5854    4.4896 H         1 RES1    0.0000
     22 C8         8.5477   10.7408    4.6348 C.ar      1 RES1    0.0000
     23 H9         8.7910   10.0558    5.2454 H         1 RES1    0.0000
     24 C9         7.2446   10.8378    4.1862 C.ar      1 RES1    0.0000
     25 H10        6.5898   10.2191    4.4887 H         1 RES1    0.0000
     26 C10        6.8948   11.8434    3.2903 C.ar      1 RES1    0.0000
     27 C11        4.0816   10.7667    1.1639 C.2       1 RES1    0.0000
     28 C12        3.1347   11.1231    0.2526 C.2       1 RES1    0.0000
     29 H11        3.2157   11.8031   -0.4052 H         1 RES1    0.0000
     30 C13        2.0120   10.2968    0.4646 C.2       1 RES1    0.0000
     31 H12        1.1908   10.3007   -0.0123 H         1 RES1    0.0000
     32 C14        2.3607    9.5002    1.4918 C.2       1 RES1    0.0000
@<TRIPOS>BOND
     1    1    5 1
     2    2   27 1
     3    3    6 2
     4    4    6 2
     5    5    7 1
     6    6   32 1
     7    7    8 1
     8    9    7 1
     9   10    9 1
    10   11    9 1
    11   12    1 1
    12   13   12 1
    13   14   12 1
    14   15   14 1
    15   16   14 1
    16   17   14 1
    17   18   17 ar
    18   19   18 1
    19   20   18 ar
    20   21   20 1
    21   22   20 ar
    22   23   22 1
    23   24   22 ar
    24   25   24 1
    25   26    5 1
    26   27    7 1
    27   28   27 2
    28   29   28 1
    29   30   28 1
    30   31   30 1
    31   32    2 1
    32    9   12 1
    33   17   26 ar
    34   24   26 ar
    35   30   32 2
@<TRIPOS>SUBSTRUCTURE
     1 RES1 1

@<TRIPOS>CRYSIN
   7.2248   18.1447    9.4504  90.0000  94.2790  90.0000  14 1

