# MOL2 file generated by ConQuest
# Please check atom types

@<TRIPOS>MOLECULE
WAXCAB
   106   116     2
SMALL
NO_CHARGES
****
Generated from CSD

@<TRIPOS>ATOM
      1 O1         2.4960    8.7437   10.4804 O.2       1 RES1    0.0000
      2 O2         1.7944    8.9088   12.4796 O.2       1 RES1    0.0000
      3 N1         8.4048   15.2834   12.7062 N.ar      1 RES1    0.0000
      4 O3         7.7144   10.5600   12.6794 O.2       1 RES1    0.0000
      5 C1         5.2846   12.3644   12.2634 C.ar      1 RES1    0.0000
      6 N2         2.5380    9.2436   11.5732 N.pl3     1 RES1    0.0000
      7 C2         3.4753   10.3507   11.8177 C.ar      1 RES1    0.0000
      8 C3         3.5201   10.9190   13.0446 C.ar      1 RES1    0.0000
      9 H1         2.9590   10.6271   13.7259 H         1 RES1    0.0000
     10 C4         4.4176   11.9368   13.2578 C.ar      1 RES1    0.0000
     11 H2         4.4440   12.3509   14.0897 H         1 RES1    0.0000
     12 C5         6.3210   13.3837   12.4975 C.ar      1 RES1    0.0000
     13 C6         6.0322   14.7757   12.6138 C.ar      1 RES1    0.0000
     14 C7         7.1144   15.6713   12.6764 C.ar      1 RES1    0.0000
     15 C8         6.9659   17.1431   12.6436 C.ar      1 RES1    0.0000
     16 C9         7.9796   17.9563   13.1967 C.ar      1 RES1    0.0000
     17 H3         8.7008   17.5522   13.6230 H         1 RES1    0.0000
     18 C10        7.9247   19.3109   13.1221 C.ar      1 RES1    0.0000
     19 H4         8.6101   19.8173   13.4933 H         1 RES1    0.0000
     20 C11        6.8786   19.9446   12.5094 C.ar      1 RES1    0.0000
     21 H5         6.8511   20.8726   12.4721 H         1 RES1    0.0000
     22 C12        8.6377   13.9624   12.7122 C.ar      1 RES1    0.0000
     23 C13        9.9349   13.2914   12.8627 C.ar      1 RES1    0.0000
     24 C14        9.7050   11.9168   12.9000 C.ar      1 RES1    0.0000
     25 C15        8.2751   11.6474   12.7166 C.2       1 RES1    0.0000
     26 C16        7.6465   12.9870   12.5914 C.ar      1 RES1    0.0000
     27 C17       11.2102   13.7928   12.9850 C.ar      1 RES1    0.0000
     28 H6        11.3635   14.7083   12.9731 H         1 RES1    0.0000
     29 C18        5.8662   19.1962   11.9504 C.ar      1 RES1    0.0000
     30 H7         5.1544   19.6203   11.5255 H         1 RES1    0.0000
     31 C19        5.9120   17.8216   12.0219 C.ar      1 RES1    0.0000
     32 H8         5.2208   17.3277   11.6432 H         1 RES1    0.0000
     33 C20        4.6319   15.2093   12.7286 C.ar      1 RES1    0.0000
     34 C21        3.7039   14.9695   11.7133 C.ar      1 RES1    0.0000
     35 H9         3.9661   14.5113   10.9470 H         1 RES1    0.0000
     36 C22        2.4047   15.4043   11.8371 C.ar      1 RES1    0.0000
     37 H10        1.7949   15.2547   11.1513 H         1 RES1    0.0000
     38 C23        2.0149   16.0529   12.9596 C.ar      1 RES1    0.0000
     39 H11        1.1364   16.3523   13.0312 H         1 RES1    0.0000
     40 C24        2.8839   16.2775   13.9868 C.ar      1 RES1    0.0000
     41 H12        2.6003   16.7190   14.7561 H         1 RES1    0.0000
     42 C25        4.1944   15.8434   13.8735 C.ar      1 RES1    0.0000
     43 H13        4.7864   15.9781   14.5787 H         1 RES1    0.0000
     44 C26        5.2040   11.7497   11.0380 C.ar      1 RES1    0.0000
     45 H14        5.7740   12.0191   10.3552 H         1 RES1    0.0000
     46 C27        4.2942   10.7369   10.7965 C.ar      1 RES1    0.0000
     47 H15        4.2415   10.3303    9.9616 H         1 RES1    0.0000
     48 C28       12.0358   11.5052   13.1847 C.ar      1 RES1    0.0000
     49 H16       12.7535   10.9290   13.3234 H         1 RES1    0.0000
     50 C29       10.7557   10.9888   13.0342 C.ar      1 RES1    0.0000
     51 C30       12.2541   12.9047   13.1281 C.ar      1 RES1    0.0000
     52 H17       13.1221   13.2315   13.1892 H         1 RES1    0.0000
     53 H18       10.3676   10.3527   12.7614 H         1 RES1    0.0000
     54 O4        -0.9337    7.7231   13.6394 O.2       2 RES2    0.0000
     55 O5        -1.0188    7.1613   11.5657 O.2       2 RES2    0.0000
     56 O6         1.0281    1.8226   13.0163 O.2       2 RES2    0.0000
     57 C31        5.0975    3.7295   13.7170 C.ar      2 RES2    0.0000
     58 N3        -0.5337    7.0725   12.6898 N.pl3     2 RES2    0.0000
     59 N4         5.7370    1.3813   13.5321 N.ar      2 RES2    0.0000
     60 C32       10.2985    3.1258   14.1627 C.ar      2 RES2    0.0000
     61 H19       11.2228    3.1981   14.2358 H         2 RES2    0.0000
     62 C33        9.6457    2.0132   14.6338 C.ar      2 RES2    0.0000
     63 H20       10.1341    1.3321   15.0378 H         2 RES2    0.0000
     64 C34        8.2773    1.8884   14.5175 C.ar      2 RES2    0.0000
     65 H21        7.8568    1.1226   14.8336 H         2 RES2    0.0000
     66 C35        7.5223    2.8938   13.9361 C.ar      2 RES2    0.0000
     67 C36        6.0662    2.6842   13.7378 C.ar      2 RES2    0.0000
     68 C37        3.7470    3.3902   13.4218 C.ar      2 RES2    0.0000
     69 C38        2.6801    4.4155   13.2548 C.ar      2 RES2    0.0000
     70 C39        2.1874    4.6849   11.9966 C.ar      2 RES2    0.0000
     71 H22        2.5698    4.2608   11.2631 H         2 RES2    0.0000
     72 C40        1.1620    5.5555   11.7908 C.ar      2 RES2    0.0000
     73 H23        0.8582    5.7401   10.9321 H         2 RES2    0.0000
     74 C41        0.5874    6.1493   12.8896 C.ar      2 RES2    0.0000
     75 C42        4.4463    1.0951   13.3234 C.ar      2 RES2    0.0000
     76 C43        3.8659   -0.2395   13.1341 C.ar      2 RES2    0.0000
     77 C44        4.4606   -1.4868   13.0714 C.ar      2 RES2    0.0000
     78 H24        5.3770   -1.5966   13.1922 H         2 RES2    0.0000
     79 C45        3.6361   -2.5570   12.8210 C.ar      2 RES2    0.0000
     80 H25        4.0153   -3.4002   12.7286 H         2 RES2    0.0000
     81 C46        2.2735   -2.4323   12.7002 C.ar      2 RES2    0.0000
     82 H26        1.7468   -3.1856   12.5631 H         2 RES2    0.0000
     83 C47        1.6875   -1.1825   12.7852 C.ar      2 RES2    0.0000
     84 H27        0.7661   -1.0827   12.6987 H         2 RES2    0.0000
     85 C48        2.4928   -0.0873   12.9999 C.ar      2 RES2    0.0000
     86 C49        2.1478    1.3421   13.0759 C.2       2 RES2    0.0000
     87 C50        3.4416    2.0631   13.2533 C.ar      2 RES2    0.0000
     88 C51        9.5734    4.1112   13.5903 C.ar      2 RES2    0.0000
     89 H28       10.0064    4.8720   13.2787 H         2 RES2    0.0000
     90 C52        8.2002    4.0089   13.4620 C.ar      2 RES2    0.0000
     91 H29        7.7257    4.6949   13.0506 H         2 RES2    0.0000
     92 C53        5.4802    5.1364   14.0092 C.ar      2 RES2    0.0000
     93 C54        5.3475    6.1293   13.0625 C.ar      2 RES2    0.0000
     94 H30        4.9560    5.9347   12.2411 H         2 RES2    0.0000
     95 C55        5.7982    7.4265   13.3294 C.ar      2 RES2    0.0000
     96 H31        5.7000    8.0951   12.6928 H         2 RES2    0.0000
     97 C56        6.3884    7.7059   14.5399 C.ar      2 RES2    0.0000
     98 H32        6.7235    8.5566   14.7069 H         2 RES2    0.0000
     99 C57        6.4825    6.7330   15.5000 C.ar      2 RES2    0.0000
    100 H33        6.8592    6.9276   16.3274 H         2 RES2    0.0000
    101 C58        6.0150    5.4583   15.2316 C.ar      2 RES2    0.0000
    102 H34        6.0636    4.8072   15.8936 H         2 RES2    0.0000
    103 C59        2.0997    5.0716   14.3237 C.ar      2 RES2    0.0000
    104 H35        2.4307    4.9244   15.1809 H         2 RES2    0.0000
    105 C60        1.0460    5.9322   14.1523 C.ar      2 RES2    0.0000
    106 H36        0.6550    6.3588   14.8798 H         2 RES2    0.0000
@<TRIPOS>BOND
     1    1    6 2
     2    2    6 2
     3    3   14 ar
     4    4   25 2
     5    5   10 ar
     6    6    7 1
     7    7    8 ar
     8    8    9 1
     9   10    8 ar
    10   11   10 1
    11   12    5 1
    12   13   12 ar
    13   14   13 ar
    14   15   14 1
    15   16   15 ar
    16   17   16 1
    17   18   16 ar
    18   19   18 1
    19   20   18 ar
    20   21   20 1
    21   22    3 ar
    22   23   22 1
    23   24   23 ar
    24   25   24 1
    25   26   12 ar
    26   27   23 ar
    27   28   27 1
    28   29   20 ar
    29   30   29 1
    30   31   15 ar
    31   32   31 1
    32   33   13 1
    33   34   33 ar
    34   35   34 1
    35   36   34 ar
    36   37   36 1
    37   38   36 ar
    38   39   38 1
    39   40   38 ar
    40   41   40 1
    41   42   33 ar
    42   43   42 1
    43   44    5 ar
    44   45   44 1
    45   46    7 ar
    46   47   46 1
    47   48   49 1
    48   50   24 ar
    49   51   27 ar
    50   52   51 1
    51   53   50 1
    52   54   58 2
    53   55   58 2
    54   56   86 2
    55   57   67 ar
    56   58   74 1
    57   59   67 ar
    58   60   61 1
    59   62   60 ar
    60   63   62 1
    61   64   62 ar
    62   65   64 1
    63   66   64 ar
    64   67   66 1
    65   68   57 ar
    66   69   68 1
    67   70   69 ar
    68   71   70 1
    69   72   70 ar
    70   73   72 1
    71   74   72 ar
    72   75   59 ar
    73   76   75 1
    74   77   76 ar
    75   78   77 1
    76   79   77 ar
    77   80   79 1
    78   81   79 ar
    79   82   81 1
    80   83   81 ar
    81   84   83 1
    82   85   76 ar
    83   86   85 1
    84   87   68 ar
    85   88   60 ar
    86   89   88 1
    87   90   66 ar
    88   91   90 1
    89   92   57 1
    90   93   92 ar
    91   94   93 1
    92   95   93 ar
    93   96   95 1
    94   97   95 ar
    95   98   97 1
    96   99   97 ar
    97  100   99 1
    98  101   92 ar
    99  102  101 1
   100  103   69 ar
   101  104  103 1
   102  105   74 ar
   103  106  105 1
   104   22   26 ar
   105   25   26 1
   106   29   31 ar
   107   40   42 ar
   108   44   46 ar
   109   48   50 ar
   110   48   51 ar
   111   75   87 ar
   112   83   85 ar
   113   86   87 1
   114   88   90 ar
   115   99  101 ar
   116  103  105 ar
@<TRIPOS>SUBSTRUCTURE
     1 RES1 1
     2 RES2 54

@<TRIPOS>CRYSIN
  12.2579   24.9463   15.2560  90.0000 102.2590  90.0000 231 1

