# MOL2 file generated by ConQuest
# Please check atom types

@<TRIPOS>MOLECULE
WAXDUW
    59    64     1
SMALL
NO_CHARGES
****
Generated from CSD

@<TRIPOS>ATOM
      1 O1         8.4454    2.2219    9.3018 O.3       1 RES1    0.0000
      2 N1         8.0204    1.4409    8.2345 N.2       1 RES1    0.0000
      3 N2         7.3452   -0.7964    6.7508 N.2       1 RES1    0.0000
      4 N3         6.8821   -1.6903    5.8659 N.pl3     1 RES1    0.0000
      5 C1         8.1826    0.2066    8.6414 C.2       1 RES1    0.0000
      6 C2         7.8564   -1.0271    7.9249 C.2       1 RES1    0.0000
      7 C3         8.1664   -2.2393    8.6781 C.2       1 RES1    0.0000
      8 H1         7.9900   -3.1451    8.2712 H         1 RES1    0.0000
      9 C4         6.6208   -3.0776    6.1470 C.ar      1 RES1    0.0000
     10 C5         5.5299   -3.4090    6.9442 C.ar      1 RES1    0.0000
     11 H2         4.9225   -2.7104    7.3013 H         1 RES1    0.0000
     12 C6         5.2843   -4.7443    7.2480 C.ar      1 RES1    0.0000
     13 H3         4.5065   -4.9860    7.8123 H         1 RES1    0.0000
     14 C7         6.1055   -5.7338    6.7293 C.ar      1 RES1    0.0000
     15 H4         5.9894   -6.6925    6.9429 H         1 RES1    0.0000
     16 C8         7.1656   -5.3941    5.8951 C.ar      1 RES1    0.0000
     17 H5         7.7458   -6.0633    5.4819 H         1 RES1    0.0000
     18 C9         7.4295   -4.0615    5.6023 C.ar      1 RES1    0.0000
     19 H6         8.1771   -3.7972    5.0106 H         1 RES1    0.0000
     20 C10        6.3867   -1.1093    4.6719 C.ar      1 RES1    0.0000
     21 C11        5.8019   -1.8999    3.6858 C.ar      1 RES1    0.0000
     22 H7         5.7368   -2.8724    3.7865 H         1 RES1    0.0000
     23 C12        5.3299   -1.3173    2.5171 C.ar      1 RES1    0.0000
     24 H8         4.9352   -1.8781    1.8256 H         1 RES1    0.0000
     25 C13        5.4316    0.0500    2.3139 C.ar      1 RES1    0.0000
     26 H9         5.0870    0.4071    1.4461 H         1 RES1    0.0000
     27 C14        6.0149    0.8340    3.3017 C.ar      1 RES1    0.0000
     28 H10        6.1078    1.8142    3.1738 H         1 RES1    0.0000
     29 C15        6.4921    0.2752    4.4733 C.ar      1 RES1    0.0000
     30 H11        6.9074    0.8180    5.1941 H         1 RES1    0.0000
     31 N1A        8.8704    1.4409   10.3692 N.2       1 RES1    0.0000
     32 N2A        9.5456   -0.7964   11.8529 N.2       1 RES1    0.0000
     33 N3A       10.0087   -1.6903   12.7378 N.pl3     1 RES1    0.0000
     34 C1A        8.7082    0.2066    9.9623 C.2       1 RES1    0.0000
     35 C2A        9.0344   -1.0271   10.6787 C.2       1 RES1    0.0000
     36 C3A        8.7244   -2.2393    9.9255 C.2       1 RES1    0.0000
     37 H1A        8.9008   -3.1451   10.3325 H         1 RES1    0.0000
     38 C4A       10.2700   -3.0776   12.4566 C.ar      1 RES1    0.0000
     39 C5A       11.3609   -3.4090   11.6594 C.ar      1 RES1    0.0000
     40 H2A       11.9683   -2.7104   11.3023 H         1 RES1    0.0000
     41 C6A       11.6065   -4.7443   11.3557 C.ar      1 RES1    0.0000
     42 H3A       12.3843   -4.9860   10.7914 H         1 RES1    0.0000
     43 C7A       10.7853   -5.7338   11.8743 C.ar      1 RES1    0.0000
     44 H4A       10.9014   -6.6925   11.6608 H         1 RES1    0.0000
     45 C8A        9.7252   -5.3941   12.7085 C.ar      1 RES1    0.0000
     46 H5A        9.1450   -6.0633   13.1218 H         1 RES1    0.0000
     47 C9A        9.4613   -4.0615   13.0014 C.ar      1 RES1    0.0000
     48 H6A        8.7137   -3.7972   13.5931 H         1 RES1    0.0000
     49 C10A      10.5041   -1.1093   13.9318 C.ar      1 RES1    0.0000
     50 C11A      11.0889   -1.8999   14.9179 C.ar      1 RES1    0.0000
     51 H7A       11.1540   -2.8724   14.8172 H         1 RES1    0.0000
     52 C12A      11.5609   -1.3173   16.0866 C.ar      1 RES1    0.0000
     53 H8A       11.9556   -1.8781   16.7780 H         1 RES1    0.0000
     54 C13A      11.4592    0.0500   16.2897 C.ar      1 RES1    0.0000
     55 H9A       11.8038    0.4071   17.1575 H         1 RES1    0.0000
     56 C14A      10.8759    0.8340   15.3020 C.ar      1 RES1    0.0000
     57 H10A      10.7830    1.8142   15.4299 H         1 RES1    0.0000
     58 C15A      10.3987    0.2752   14.1303 C.ar      1 RES1    0.0000
     59 H11A       9.9834    0.8180   13.4095 H         1 RES1    0.0000
@<TRIPOS>BOND
     1    1    2 1
     2    2    5 2
     3    3    4 1
     4    4    9 1
     5    5    6 1
     6    6    3 2
     7    7    6 1
     8    8    7 1
     9    9   10 ar
    10   10   11 1
    11   12   10 ar
    12   13   12 1
    13   14   12 ar
    14   15   14 1
    15   16   14 ar
    16   17   16 1
    17   18    9 ar
    18   19   18 1
    19   20    4 1
    20   21   20 ar
    21   22   21 1
    22   23   21 ar
    23   24   23 1
    24   25   23 ar
    25   26   25 1
    26   27   25 ar
    27   28   27 1
    28   29   20 ar
    29   30   29 1
    30   31    1 1
    31   32   33 1
    32   33   38 1
    33   34    5 1
    34   35   32 2
    35   36    7 2
    36   37   36 1
    37   38   39 ar
    38   39   40 1
    39   41   39 ar
    40   42   41 1
    41   43   41 ar
    42   44   43 1
    43   45   43 ar
    44   46   45 1
    45   47   38 ar
    46   48   47 1
    47   49   33 1
    48   50   49 ar
    49   51   50 1
    50   52   50 ar
    51   53   52 1
    52   54   52 ar
    53   55   54 1
    54   56   54 ar
    55   57   56 1
    56   58   49 ar
    57   59   58 1
    58   16   18 ar
    59   27   29 ar
    60   31   34 2
    61   34   35 1
    62   35   36 1
    63   45   47 ar
    64   56   58 ar
@<TRIPOS>SUBSTRUCTURE
     1 RES1 1

@<TRIPOS>CRYSIN
  20.0140    9.5335   12.5760  90.0000  99.5300  90.0000  15 1

