# MOL2 file generated by ConQuest
# Please check atom types

@<TRIPOS>MOLECULE
WAXFAE
    74    81     1
SMALL
NO_CHARGES
****
Generated from CSD

@<TRIPOS>ATOM
      1 O1        -0.4062    6.9837    1.2276 O.3       1 RES1    0.0000
      2 O2        -4.4718    9.8022    4.9788 O.2       1 RES1    0.0000
      3 O3        -6.0758    9.7636    3.5405 O.2       1 RES1    0.0000
      4 N1        -0.9697    7.9525    0.4183 N.2       1 RES1    0.0000
      5 N2        -1.1716    6.7529    2.3599 N.2       1 RES1    0.0000
      6 N3        -3.5022    5.8756    4.5447 N.pl3     1 RES1    0.0000
      7 N4        -3.8315    7.1135    4.1773 N.2       1 RES1    0.0000
      8 N5        -4.9129    9.5603    3.8782 N.pl3     1 RES1    0.0000
      9 C1        -2.8564    4.9232    3.6868 C.ar      1 RES1    0.0000
     10 C2        -3.3908    4.6614    2.4374 C.ar      1 RES1    0.0000
     11 H1        -4.1501    5.1257    2.1459 H         1 RES1    0.0000
     12 C3        -2.7525    3.7520    1.6190 C.ar      1 RES1    0.0000
     13 H2        -3.1349    3.5838    0.7466 H         1 RES1    0.0000
     14 C4        -1.6158    3.0898    2.0540 C.ar      1 RES1    0.0000
     15 H3        -1.2095    2.4800    1.4455 H         1 RES1    0.0000
     16 C5        -1.1181    3.3466    3.3107 C.ar      1 RES1    0.0000
     17 H4        -0.3553    2.9172    3.6108 H         1 RES1    0.0000
     18 C6        -1.7178    4.2713    4.1325 C.ar      1 RES1    0.0000
     19 H5        -1.3849    4.4794    5.0385 H         1 RES1    0.0000
     20 C7        -4.1665    5.4147    5.7351 C.ar      1 RES1    0.0000
     21 C8        -4.2374    4.0536    6.0093 C.ar      1 RES1    0.0000
     22 H6        -3.8243    3.4252    5.4438 H         1 RES1    0.0000
     23 C9        -4.9002    3.6183    7.1531 C.ar      1 RES1    0.0000
     24 H7        -4.9300    2.6668    7.3632 H         1 RES1    0.0000
     25 C10       -5.4850    4.5200    8.0100 C.ar      1 RES1    0.0000
     26 H8        -5.9694    4.2441    8.7730 H         1 RES1    0.0000
     27 C11       -5.4038    5.8729    7.7343 C.ar      1 RES1    0.0000
     28 H9        -5.7767    6.5083    8.3408 H         1 RES1    0.0000
     29 C12       -4.7499    6.3300    6.6013 C.ar      1 RES1    0.0000
     30 H10       -4.6559    7.2595    6.3812 H         1 RES1    0.0000
     31 C13       -3.3119    7.7802    3.1797 C.2       1 RES1    0.0000
     32 C14       -3.9861    9.0271    2.8597 C.2       1 RES1    0.0000
     33 C15       -3.9189    9.7088    1.7024 C.2       1 RES1    0.0000
     34 H11       -4.4842   10.4573    1.5856 H         1 RES1    0.0000
     35 C16       -3.0361    9.3347    0.6317 C.2       1 RES1    0.0000
     36 C17       -2.0738    8.3043    1.0280 C.2       1 RES1    0.0000
     37 C18       -2.2052    7.5443    2.2413 C.2       1 RES1    0.0000
     38 O1A       -5.7080   12.2474   -1.2276 O.3       1 RES1    0.0000
     39 O2A       -1.6423    9.4289   -4.9788 O.2       1 RES1    0.0000
     40 O3A       -0.0383    9.4674   -3.5405 O.2       1 RES1    0.0000
     41 N1A       -5.1444   11.2785   -0.4183 N.2       1 RES1    0.0000
     42 N2A       -4.9426   12.4781   -2.3599 N.2       1 RES1    0.0000
     43 N3A       -2.6119   13.3555   -4.5447 N.pl3     1 RES1    0.0000
     44 N4A       -2.2826   12.1175   -4.1773 N.2       1 RES1    0.0000
     45 N5A       -1.2013    9.6708   -3.8782 N.pl3     1 RES1    0.0000
     46 C1A       -3.2577   14.3078   -3.6868 C.ar      1 RES1    0.0000
     47 C2A       -2.7233   14.5696   -2.4374 C.ar      1 RES1    0.0000
     48 H1A       -1.9640   14.1053   -2.1459 H         1 RES1    0.0000
     49 C3A       -3.3617   15.4790   -1.6190 C.ar      1 RES1    0.0000
     50 H2A       -2.9792   15.6472   -0.7466 H         1 RES1    0.0000
     51 C4A       -4.4984   16.1412   -2.0540 C.ar      1 RES1    0.0000
     52 H3A       -4.9046   16.7511   -1.4455 H         1 RES1    0.0000
     53 C5A       -4.9960   15.8844   -3.3107 C.ar      1 RES1    0.0000
     54 H4A       -5.7588   16.3139   -3.6108 H         1 RES1    0.0000
     55 C6A       -4.3963   14.9598   -4.1325 C.ar      1 RES1    0.0000
     56 H5A       -4.7292   14.7516   -5.0385 H         1 RES1    0.0000
     57 C7A       -1.9477   13.8163   -5.7351 C.ar      1 RES1    0.0000
     58 C8A       -1.8767   15.1774   -6.0093 C.ar      1 RES1    0.0000
     59 H6A       -2.2898   15.8059   -5.4438 H         1 RES1    0.0000
     60 C9A       -1.2140   15.6127   -7.1531 C.ar      1 RES1    0.0000
     61 H7A       -1.1841   16.5642   -7.3632 H         1 RES1    0.0000
     62 C10A      -0.6291   14.7110   -8.0100 C.ar      1 RES1    0.0000
     63 H8A       -0.1448   14.9870   -8.7730 H         1 RES1    0.0000
     64 C11A      -0.7104   13.3582   -7.7343 C.ar      1 RES1    0.0000
     65 H9A       -0.3375   12.7227   -8.3408 H         1 RES1    0.0000
     66 C12A      -1.3642   12.9010   -6.6013 C.ar      1 RES1    0.0000
     67 H10A      -1.4583   11.9716   -6.3812 H         1 RES1    0.0000
     68 C13A      -2.8023   11.4509   -3.1797 C.2       1 RES1    0.0000
     69 C14A      -2.1281   10.2039   -2.8597 C.2       1 RES1    0.0000
     70 C15A      -2.1952    9.5222   -1.7024 C.2       1 RES1    0.0000
     71 H11A      -1.6299    8.7737   -1.5856 H         1 RES1    0.0000
     72 C16A      -3.0780    9.8963   -0.6317 C.2       1 RES1    0.0000
     73 C17A      -4.0403   10.9267   -1.0280 C.2       1 RES1    0.0000
     74 C18A      -3.9089   11.6868   -2.2413 C.2       1 RES1    0.0000
@<TRIPOS>BOND
     1    1    4 1
     2    2    8 2
     3    3    8 2
     4    4   36 2
     5    5    1 1
     6    6    7 1
     7    7   31 2
     8    8   32 1
     9    9    6 1
    10   10    9 ar
    11   11   10 1
    12   12   10 ar
    13   13   12 1
    14   14   12 ar
    15   15   14 1
    16   16   14 ar
    17   17   16 1
    18   18    9 ar
    19   19   18 1
    20   20    6 1
    21   21   20 ar
    22   22   21 1
    23   23   21 ar
    24   24   23 1
    25   25   23 ar
    26   26   25 1
    27   27   25 ar
    28   28   27 1
    29   29   20 ar
    30   30   29 1
    31   31   32 1
    32   32   33 2
    33   33   34 1
    34   35   33 1
    35   36   35 1
    36   37    5 2
    37   38   41 1
    38   39   45 2
    39   40   45 2
    40   41   73 2
    41   42   38 1
    42   43   44 1
    43   44   68 2
    44   45   69 1
    45   46   43 1
    46   47   46 ar
    47   48   47 1
    48   49   47 ar
    49   50   49 1
    50   51   49 ar
    51   52   51 1
    52   53   51 ar
    53   54   53 1
    54   55   46 ar
    55   56   55 1
    56   57   43 1
    57   58   57 ar
    58   59   58 1
    59   60   58 ar
    60   61   60 1
    61   62   60 ar
    62   63   62 1
    63   64   62 ar
    64   65   64 1
    65   66   57 ar
    66   67   66 1
    67   68   69 1
    68   69   70 2
    69   70   71 1
    70   72   35 2
    71   73   72 1
    72   74   42 2
    73   16   18 ar
    74   27   29 ar
    75   31   37 1
    76   36   37 1
    77   53   55 ar
    78   64   66 ar
    79   68   74 1
    80   70   72 1
    81   73   74 1
@<TRIPOS>SUBSTRUCTURE
     1 RES1 1

@<TRIPOS>CRYSIN
   5.4829    9.6207   15.6130 106.4600  94.8100  91.8800   2 1

