# MOL2 file generated by ConQuest
# Please check atom types

@<TRIPOS>MOLECULE
WAXJUC
    36    37     1
SMALL
NO_CHARGES
****
Generated from CSD

@<TRIPOS>ATOM
      1 O1         4.7464    9.4178    8.4640 O.2       1 RES1    0.0000
      2 O2         5.2734    8.8853   10.4709 O.2       1 RES1    0.0000
      3 O3         4.4721    0.1014    1.5283 O.2       1 RES1    0.0000
      4 O4         4.8839    0.1193    3.6163 O.2       1 RES1    0.0000
      5 N1         5.0010    8.5889    9.3196 N.pl3     1 RES1    0.0000
      6 N2         3.3819    5.9548    5.2680 N.3       1 RES1    0.0000
      7 H1         3.0968    6.6389    5.7044 H         1 RES1    0.0000
      8 H2         3.1107    5.8151    4.4639 H         1 RES1    0.0000
      9 N3         6.2510    6.1456    4.9082 N.3       1 RES1    0.0000
     10 H3         6.8091    6.1592    4.3405 H         1 RES1    0.0000
     11 H4         5.8948    6.8834    4.6489 H         1 RES1    0.0000
     12 N4         4.7159    0.6892    2.5518 N.pl3     1 RES1    0.0000
     13 C1         4.9796    7.1645    8.9563 C.ar      1 RES1    0.0000
     14 C2         5.2644    6.2308    9.9318 C.ar      1 RES1    0.0000
     15 H5         5.4607    6.4855   10.8045 H         1 RES1    0.0000
     16 C3         5.2468    4.9095    9.5594 C.ar      1 RES1    0.0000
     17 H6         5.4470    4.2535   10.1877 H         1 RES1    0.0000
     18 C4         4.9382    4.5432    8.2756 C.ar      1 RES1    0.0000
     19 H7         4.9174    3.6410    8.0528 H         1 RES1    0.0000
     20 C5         4.6566    5.4837    7.3046 C.ar      1 RES1    0.0000
     21 C6         4.6722    6.8246    7.6530 C.ar      1 RES1    0.0000
     22 H8         4.4800    7.4814    7.0237 H         1 RES1    0.0000
     23 C7         4.3259    5.0322    5.8917 C.3       1 RES1    0.0000
     24 H9         3.8903    4.1564    5.9522 H         1 RES1    0.0000
     25 C8         5.5715    4.8712    5.0316 C.3       1 RES1    0.0000
     26 H10        6.1771    4.2723    5.5170 H         1 RES1    0.0000
     27 C9         5.2223    4.1828    3.7329 C.ar      1 RES1    0.0000
     28 C10        5.1563    2.7968    3.6974 C.ar      1 RES1    0.0000
     29 H11        5.3606    2.3052    4.4605 H         1 RES1    0.0000
     30 C11        4.7902    2.1425    2.5403 C.ar      1 RES1    0.0000
     31 C12        4.4980    2.8266    1.3764 C.ar      1 RES1    0.0000
     32 H12        4.2587    2.3717    0.6008 H         1 RES1    0.0000
     33 C13        4.5702    4.1913    1.4004 C.ar      1 RES1    0.0000
     34 H13        4.3805    4.6752    0.6294 H         1 RES1    0.0000
     35 C14        4.9241    4.8601    2.5563 C.ar      1 RES1    0.0000
     36 H14        4.9634    5.7887    2.5472 H         1 RES1    0.0000
@<TRIPOS>BOND
     1    1    5 2
     2    2    5 2
     3    3   12 2
     4    4   12 2
     5    5   13 1
     6    6    7 1
     7    8    6 1
     8    9   10 1
     9   11    9 1
    10   12   30 1
    11   13   14 ar
    12   14   15 1
    13   16   14 ar
    14   17   16 1
    15   18   16 ar
    16   19   18 1
    17   20   18 ar
    18   21   13 ar
    19   22   21 1
    20   23    6 1
    21   24   23 1
    22   25    9 1
    23   26   25 1
    24   27   25 1
    25   28   27 ar
    26   29   28 1
    27   30   28 ar
    28   31   30 ar
    29   32   31 1
    30   33   31 ar
    31   34   33 1
    32   35   27 ar
    33   36   35 1
    34   20   21 ar
    35   20   23 1
    36   23   25 1
    37   33   35 ar
@<TRIPOS>SUBSTRUCTURE
     1 RES1 1

@<TRIPOS>CRYSIN
   7.2450    8.5190   11.4780  90.0000  95.6400  90.0000   4 1

