# MOL2 file generated by ConQuest
# Please check atom types

@<TRIPOS>MOLECULE
WAZGAI
    88    92     1
SMALL
NO_CHARGES
****
Generated from CSD

@<TRIPOS>ATOM
      1 O1         4.2464    2.6092    2.1047 O.3       1 RES1    0.0000
      2 O2        10.6156    1.8182   -1.1207 O.2       1 RES1    0.0000
      3 O3         4.4443    0.3964    1.6895 O.2       1 RES1    0.0000
      4 O4        10.4863    3.8173   -0.3331 O.2       1 RES1    0.0000
      5 N1        10.0080    2.7180   -0.5585 N.pl3     1 RES1    0.0000
      6 C1         8.6517    2.4266   -0.0623 C.ar      1 RES1    0.0000
      7 C2         8.1712    1.1386   -0.1527 C.ar      1 RES1    0.0000
      8 H1         8.6789    0.4676   -0.5493 H         1 RES1    0.0000
      9 C3         6.9069    0.8654    0.3644 C.ar      1 RES1    0.0000
     10 H2         6.5557    0.0061    0.3080 H         1 RES1    0.0000
     11 C4         6.1677    1.8852    0.9692 C.ar      1 RES1    0.0000
     12 C5         6.6686    3.1878    1.0227 C.ar      1 RES1    0.0000
     13 H3         6.1612    3.8671    1.4052 H         1 RES1    0.0000
     14 C6         7.9296    3.4666    0.5015 C.ar      1 RES1    0.0000
     15 H4         8.2782    4.3286    0.5313 H         1 RES1    0.0000
     16 C7         4.8630    1.5262    1.6082 C.2       1 RES1    0.0000
     17 C8         3.0648    2.3804    2.9366 C.3       1 RES1    0.0000
     18 H5         3.1798    1.5573    3.4556 H         1 RES1    0.0000
     19 C9         1.8100    2.2767    2.0799 C.3       1 RES1    0.0000
     20 H6         1.7528    3.0490    1.4954 H         1 RES1    0.0000
     21 H7         1.8624    1.4826    1.5246 H         1 RES1    0.0000
     22 C10        0.5653    2.2058    2.9498 C.2       1 RES1    0.0000
     23 C11        0.4161    3.2610    4.0493 C.3       1 RES1    0.0000
     24 C12        1.7706    3.3976    4.7971 C.3       1 RES1    0.0000
     25 H8         1.7234    4.1630    5.3907 H         1 RES1    0.0000
     26 H9         1.9061    2.6077    5.3449 H         1 RES1    0.0000
     27 C13        2.9754    3.5667    3.8721 C.3       1 RES1    0.0000
     28 H10        2.8817    4.3842    3.3584 H         1 RES1    0.0000
     29 H11        3.7874    3.6308    4.3989 H         1 RES1    0.0000
     30 C14       -0.3471    1.2631    2.7268 C.2       1 RES1    0.0000
     31 H12       -0.1797    0.6524    2.0461 H         1 RES1    0.0000
     32 C15       -1.6295    1.1158    3.4969 C.3       1 RES1    0.0000
     33 H13       -1.5719    0.3242    4.0548 H         1 RES1    0.0000
     34 H14       -2.3586    0.9827    2.8715 H         1 RES1    0.0000
     35 C16       -1.9486    2.3228    4.3800 C.3       1 RES1    0.0000
     36 H15       -2.3036    3.0460    3.8218 H         1 RES1    0.0000
     37 C17       -0.6640    2.8043    5.0726 C.3       1 RES1    0.0000
     38 H16       -0.2917    2.0229    5.5322 H         1 RES1    0.0000
     39 C18        0.0529    4.6102    3.3937 C.3       1 RES1    0.0000
     40 H17        0.7413    4.8609    2.7744 H         1 RES1    0.0000
     41 H18       -0.0270    5.2841    4.0729 H         1 RES1    0.0000
     42 H19       -0.7817    4.5246    2.9270 H         1 RES1    0.0000
     43 C19       -0.9489    3.8453    6.1633 C.3       1 RES1    0.0000
     44 H20       -0.1283    4.0226    6.6489 H         1 RES1    0.0000
     45 H21       -1.2266    4.6730    5.7403 H         1 RES1    0.0000
     46 C20       -2.0294    3.4127    7.1600 C.3       1 RES1    0.0000
     47 H22       -2.1941    4.1347    7.7864 H         1 RES1    0.0000
     48 H23       -1.7120    2.6471    7.6630 H         1 RES1    0.0000
     49 C21       -3.3430    3.0457    6.4508 C.3       1 RES1    0.0000
     50 C22       -2.9927    1.9412    5.4297 C.3       1 RES1    0.0000
     51 H24       -2.6003    1.2079    5.9484 H         1 RES1    0.0000
     52 C23       -4.3629    1.4399    4.9550 C.3       1 RES1    0.0000
     53 H25       -4.3047    0.5353    4.6097 H         1 RES1    0.0000
     54 H26       -4.7287    2.0189    4.2685 H         1 RES1    0.0000
     55 C24       -5.2192    1.4912    6.2429 C.3       1 RES1    0.0000
     56 H27       -5.3951    0.5939    6.5657 H         1 RES1    0.0000
     57 H28       -6.0670    1.9270    6.0649 H         1 RES1    0.0000
     58 C25       -4.4078    2.2982    7.3051 C.3       1 RES1    0.0000
     59 H29       -3.9270    1.6462    7.8558 H         1 RES1    0.0000
     60 C26       -3.9589    4.2871    5.7823 C.3       1 RES1    0.0000
     61 H30       -3.2882    4.7377    5.2631 H         1 RES1    0.0000
     62 H31       -4.2932    4.8811    6.4575 H         1 RES1    0.0000
     63 H32       -4.6792    4.0166    5.2090 H         1 RES1    0.0000
     64 C27       -5.3147    3.1081    8.2502 C.3       1 RES1    0.0000
     65 H33       -5.8681    3.7035    7.7018 H         1 RES1    0.0000
     66 C28       -6.2539    2.1818    9.0401 C.3       1 RES1    0.0000
     67 H34       -6.5119    1.4382    8.4731 H         1 RES1    0.0000
     68 H35       -5.7728    1.8209    9.8007 H         1 RES1    0.0000
     69 C29       -7.5205    2.8889    9.5417 C.3       1 RES1    0.0000
     70 H36       -7.2749    3.7550    9.9033 H         1 RES1    0.0000
     71 H37       -8.1145    3.0399    8.7908 H         1 RES1    0.0000
     72 C30       -8.2636    2.1045   10.6051 C.3       1 RES1    0.0000
     73 H38       -7.6943    2.0239   11.3863 H         1 RES1    0.0000
     74 H39       -8.4316    1.2099   10.2709 H         1 RES1    0.0000
     75 C31       -9.5997    2.7300   11.0317 C.3       1 RES1    0.0000
     76 H40       -9.4413    3.6823   11.1990 H         1 RES1    0.0000
     77 C32      -10.1201    2.1229   12.3049 C.3       1 RES1    0.0000
     78 H41      -10.9554    2.5360   12.5390 H         1 RES1    0.0000
     79 H42       -9.4845    2.2653   13.0107 H         1 RES1    0.0000
     80 H43      -10.2541    1.1806   12.1798 H         1 RES1    0.0000
     81 C33      -10.6549    2.6226    9.9456 C.3       1 RES1    0.0000
     82 H44      -11.4731    3.0198   10.2543 H         1 RES1    0.0000
     83 H45      -10.8059    1.6977    9.7369 H         1 RES1    0.0000
     84 H46      -10.3525    3.0824    9.1598 H         1 RES1    0.0000
     85 C34       -4.5242    3.9744    9.2380 C.3       1 RES1    0.0000
     86 H47       -3.9402    4.5619    8.7519 H         1 RES1    0.0000
     87 H48       -4.0030    3.4096    9.8132 H         1 RES1    0.0000
     88 H49       -5.1343    4.4943    9.7660 H         1 RES1    0.0000
@<TRIPOS>BOND
     1    1   16 1
     2    2    5 2
     3    3   16 2
     4    4    5 2
     5    5    6 1
     6    6    7 ar
     7    7    8 1
     8    9    7 ar
     9   10    9 1
    10   11    9 ar
    11   12   11 ar
    12   13   12 1
    13   14    6 ar
    14   15   14 1
    15   16   11 1
    16   17    1 1
    17   18   17 1
    18   19   17 1
    19   20   19 1
    20   21   19 1
    21   22   19 1
    22   23   22 1
    23   24   23 1
    24   25   24 1
    25   26   24 1
    26   27   17 1
    27   28   27 1
    28   29   27 1
    29   30   22 2
    30   31   30 1
    31   32   30 1
    32   33   32 1
    33   34   32 1
    34   35   32 1
    35   36   35 1
    36   37   23 1
    37   38   37 1
    38   39   23 1
    39   40   39 1
    40   41   39 1
    41   42   39 1
    42   43   37 1
    43   44   43 1
    44   45   43 1
    45   46   43 1
    46   47   46 1
    47   48   46 1
    48   49   46 1
    49   50   35 1
    50   51   50 1
    51   52   50 1
    52   53   52 1
    53   54   52 1
    54   55   52 1
    55   56   55 1
    56   57   55 1
    57   58   49 1
    58   59   58 1
    59   60   49 1
    60   61   60 1
    61   62   60 1
    62   63   60 1
    63   64   58 1
    64   65   64 1
    65   66   64 1
    66   67   66 1
    67   68   66 1
    68   69   66 1
    69   70   69 1
    70   71   69 1
    71   72   69 1
    72   73   72 1
    73   74   72 1
    74   75   72 1
    75   76   75 1
    76   77   75 1
    77   78   77 1
    78   79   77 1
    79   80   77 1
    80   81   75 1
    81   82   81 1
    82   83   81 1
    83   84   81 1
    84   85   64 1
    85   86   85 1
    86   87   85 1
    87   88   85 1
    88   12   14 ar
    89   24   27 1
    90   35   37 1
    91   49   50 1
    92   55   58 1
@<TRIPOS>SUBSTRUCTURE
     1 RES1 1

@<TRIPOS>CRYSIN
  10.7023   10.0995   14.1563  90.0000 101.4990  90.0000   4 1

