# MOL2 file generated by ConQuest
# Please check atom types

@<TRIPOS>MOLECULE
WECXIM
    51    54     1
SMALL
NO_CHARGES
****
Generated from CSD

@<TRIPOS>ATOM
      1 N1         1.2627    1.0213    1.7639 N.pl3     1 RES1    0.0000
      2 O1         1.3034    1.4260    0.5483 O.2       1 RES1    0.0000
      3 N2         1.8401   -0.2086    2.1341 N.pl3     1 RES1    0.0000
      4 O2         5.1544   -2.9279   -1.3899 O.3       1 RES1    0.0000
      5 O3         2.7454   -4.5741    6.9680 O.3       1 RES1    0.0000
      6 C1         1.6220   -0.3329    3.4783 C.2       1 RES1    0.0000
      7 N3         0.9473    0.7092    3.9323 N.2       1 RES1    0.0000
      8 O4        -1.9557    6.4039    3.5840 O.3       1 RES1    0.0000
      9 C2         0.7368    1.5461    2.8735 C.2       1 RES1    0.0000
     10 C3         2.7075   -0.8928    1.2311 C.ar      1 RES1    0.0000
     11 C4         4.0632   -0.9153    1.4827 C.ar      1 RES1    0.0000
     12 H1         4.4032   -0.4723    2.2265 H         1 RES1    0.0000
     13 C5         4.9216   -1.5945    0.6338 C.ar      1 RES1    0.0000
     14 H2         5.8336   -1.6237    0.8141 H         1 RES1    0.0000
     15 C6         4.4138   -2.2278   -0.4842 C.ar      1 RES1    0.0000
     16 C7         3.0386   -2.1728   -0.7514 C.ar      1 RES1    0.0000
     17 H3         2.6991   -2.5833   -1.5136 H         1 RES1    0.0000
     18 C8         2.1924   -1.5153    0.1062 C.ar      1 RES1    0.0000
     19 H4         1.2790   -1.4877   -0.0675 H         1 RES1    0.0000
     20 C9         6.5653   -2.9688   -1.1965 C.3       1 RES1    0.0000
     21 H5         6.9701   -3.4861   -1.8959 H         1 RES1    0.0000
     22 H6         6.7593   -3.3718   -0.3463 H         1 RES1    0.0000
     23 H7         6.9173   -2.0751   -1.2144 H         1 RES1    0.0000
     24 C10        2.0071   -1.4644    4.3120 C.ar      1 RES1    0.0000
     25 C11        2.2566   -2.7393    3.8172 C.ar      1 RES1    0.0000
     26 H8         2.2480   -2.8820    2.8989 H         1 RES1    0.0000
     27 C12        2.5184   -3.8006    4.6682 C.ar      1 RES1    0.0000
     28 H9         2.6838   -4.6476    4.3203 H         1 RES1    0.0000
     29 C13        2.5319   -3.5979    6.0396 C.ar      1 RES1    0.0000
     30 C14        2.3101   -2.3263    6.5463 C.ar      1 RES1    0.0000
     31 H10        2.3360   -2.1811    7.4643 H         1 RES1    0.0000
     32 C15        2.0508   -1.2783    5.6937 C.ar      1 RES1    0.0000
     33 H11        1.9019   -0.4297    6.0452 H         1 RES1    0.0000
     34 C16        2.7729   -5.9283    6.5195 C.3       1 RES1    0.0000
     35 H12        2.9231   -6.5107    7.2687 H         1 RES1    0.0000
     36 H13        3.4796   -6.0401    5.8788 H         1 RES1    0.0000
     37 H14        1.9317   -6.1461    6.1105 H         1 RES1    0.0000
     38 C17        0.0148    2.8069    2.9599 C.ar      1 RES1    0.0000
     39 C18       -0.6120    3.1256    4.1667 C.ar      1 RES1    0.0000
     40 H15       -0.5882    2.5157    4.8690 H         1 RES1    0.0000
     41 C19       -1.2597    4.3155    4.3371 C.ar      1 RES1    0.0000
     42 H16       -1.6723    4.5074    5.1479 H         1 RES1    0.0000
     43 C20       -1.3051    5.2425    3.2992 C.ar      1 RES1    0.0000
     44 C21       -0.7076    4.9438    2.0828 C.ar      1 RES1    0.0000
     45 H17       -0.7527    5.5487    1.3786 H         1 RES1    0.0000
     46 C22       -0.0429    3.7406    1.9238 C.ar      1 RES1    0.0000
     47 H18        0.3718    3.5512    1.1132 H         1 RES1    0.0000
     48 C23       -2.0331    7.4069    2.5809 C.3       1 RES1    0.0000
     49 H19       -2.5081    8.1670    2.9237 H         1 RES1    0.0000
     50 H20       -2.4969    7.0589    1.8149 H         1 RES1    0.0000
     51 H21       -1.1469    7.6722    2.3254 H         1 RES1    0.0000
@<TRIPOS>BOND
     1    1    2 1
     2    3    1 1
     3    4   15 1
     4    5   29 1
     5    6    3 1
     6    7    6 2
     7    8   43 1
     8    9    1 2
     9   10    3 1
    10   11   10 ar
    11   12   11 1
    12   13   11 ar
    13   14   13 1
    14   15   13 ar
    15   16   15 ar
    16   17   16 1
    17   18   10 ar
    18   19   18 1
    19   20    4 1
    20   21   20 1
    21   22   20 1
    22   23   20 1
    23   24    6 1
    24   25   24 ar
    25   26   25 1
    26   27   25 ar
    27   28   27 1
    28   29   27 ar
    29   30   29 ar
    30   31   30 1
    31   32   24 ar
    32   33   32 1
    33   34    5 1
    34   35   34 1
    35   36   34 1
    36   37   34 1
    37   38    9 1
    38   39   38 ar
    39   40   39 1
    40   41   39 ar
    41   42   41 1
    42   43   41 ar
    43   44   43 ar
    44   45   44 1
    45   46   38 ar
    46   47   46 1
    47   48    8 1
    48   49   48 1
    49   50   48 1
    50   51   48 1
    51    7    9 1
    52   16   18 ar
    53   30   32 ar
    54   44   46 ar
@<TRIPOS>SUBSTRUCTURE
     1 RES1 1

@<TRIPOS>CRYSIN
  10.7855    8.3439   22.9603  90.0000 101.6200  90.0000  14 1

