# MOL2 file generated by ConQuest
# Please check atom types

@<TRIPOS>MOLECULE
WECZIN
    13    12     1
SMALL
NO_CHARGES
****
Generated from CSD

@<TRIPOS>ATOM
      1 N1         4.7376   -1.9465    5.0272 N.3       1 RES1    0.0000
      2 C1         4.9795   -0.8304    4.4537 C.2       1 RES1    0.0000
      3 C2         5.1287    0.3437    5.2187 C.2       1 RES1    0.0000
      4 C3         4.9924    0.3914    6.6163 C.2       1 RES1    0.0000
      5 N2         5.4372    1.5572    4.5123 N.pl3     1 RES1    0.0000
      6 O1         5.6002    1.5178    3.2886 O.2       1 RES1    0.0000
      7 O2         5.5328    2.5946    5.1494 O.2       1 RES1    0.0000
      8 C4         4.6232   -3.3069    4.4071 C.3       1 RES1    0.0000
      9 C5         3.3237   -3.9053    4.9074 C.3       1 RES1    0.0000
     10 C6         4.6176   -3.2448    2.8948 C.3       1 RES1    0.0000
     11 C7         5.8368   -4.0689    4.8961 C.3       1 RES1    0.0000
     12 O3         4.7419   -0.5860    7.2906 O.2       1 RES1    0.0000
     13 H1         4.6366   -2.0500    5.9043 H         1 RES1    0.0000
@<TRIPOS>BOND
     1    1    2 1
     2    2    3 2
     3    3    4 1
     4    4   12 2
     5    5    3 1
     6    6    5 2
     7    7    5 2
     8    8    1 1
     9    9    8 1
    10   10    8 1
    11   11    8 1
    12   13    1 1
@<TRIPOS>SUBSTRUCTURE
     1 RES1 1

@<TRIPOS>CRYSIN
   6.8210   20.7070    6.3030  90.0000  91.3400  90.0000 231 1

