# MOL2 file generated by ConQuest
# Please check atom types

@<TRIPOS>MOLECULE
WECZEJ
    37    36     1
SMALL
NO_CHARGES
****
Generated from CSD

@<TRIPOS>ATOM
      1 N1         4.1122    1.2475    1.7674 N.3       1 RES1    0.0000
      2 C1         4.8859    2.2045    1.3608 C.2       1 RES1    0.0000
      3 C2         4.3999    3.3076    0.6511 C.2       1 RES1    0.0000
      4 C3         3.0301    3.5062    0.3014 C.2       1 RES1    0.0000
      5 N2         5.3300    4.2892    0.2267 N.pl3     1 RES1    0.0000
      6 O1         6.5185    4.1251    0.4627 O.2       1 RES1    0.0000
      7 O2         4.9214    5.2938   -0.3506 O.2       1 RES1    0.0000
      8 C4         4.5668    0.0689    2.5306 C.3       1 RES1    0.0000
      9 C5         3.6279   -1.0588    2.1257 C.3       1 RES1    0.0000
     10 C6         4.4481    0.3775    4.0085 C.3       1 RES1    0.0000
     11 C7         5.9990   -0.3168    2.1808 C.3       1 RES1    0.0000
     12 N3         2.1200    2.6543    0.6435 N.2       1 RES1    0.0000
     13 C8         0.6932    2.8250    0.2801 C.3       1 RES1    0.0000
     14 C9        -0.0815    2.1898    1.4126 C.3       1 RES1    0.0000
     15 C10        0.4704    2.0617   -1.0229 C.3       1 RES1    0.0000
     16 C11        0.3147    4.2843    0.0730 C.3       1 RES1    0.0000
     17 H1         3.0786    1.4117    1.4092 H         1 RES1    0.0000
     18 H2         5.8340    2.1668    1.5450 H         1 RES1    0.0000
     19 H3         2.7868    4.3171   -0.2292 H         1 RES1    0.0000
     20 H4         3.8381   -1.8385    2.6656 H         1 RES1    0.0000
     21 H5         2.7303   -0.7715    2.3430 H         1 RES1    0.0000
     22 H6         3.6695   -1.2475    1.0611 H         1 RES1    0.0000
     23 H7         4.6540   -0.3940    4.5416 H         1 RES1    0.0000
     24 H8         5.5573    0.6074    4.2190 H         1 RES1    0.0000
     25 H9         4.9450    1.1819    4.3294 H         1 RES1    0.0000
     26 H10        6.2211   -1.0834    2.5382 H         1 RES1    0.0000
     27 H11        6.5741    0.4104    2.4703 H         1 RES1    0.0000
     28 H12        6.0335   -0.4760    1.1290 H         1 RES1    0.0000
     29 H13       -0.9567    2.2324    1.1885 H         1 RES1    0.0000
     30 H14        0.0311    2.8726    2.1647 H         1 RES1    0.0000
     31 H15        0.2555    1.2804    1.6044 H         1 RES1    0.0000
     32 H16       -0.4562    2.0519   -1.1715 H         1 RES1    0.0000
     33 H17        0.7632    1.0341   -0.7216 H         1 RES1    0.0000
     34 H18        1.0064    2.6264   -1.6723 H         1 RES1    0.0000
     35 H19       -0.6139    4.2679   -0.0679 H         1 RES1    0.0000
     36 H20        0.4311    4.5798    0.9847 H         1 RES1    0.0000
     37 H21        0.8442    4.6783   -0.7725 H         1 RES1    0.0000
@<TRIPOS>BOND
     1    1    2 1
     2    2    3 2
     3    3    4 1
     4    4   12 2
     5    5    3 1
     6    6    5 2
     7    7    5 2
     8    8    1 1
     9    9    8 1
    10   10    8 1
    11   11    8 1
    12   12   13 1
    13   13   14 1
    14   14   29 1
    15   15   13 1
    16   16   13 1
    17   17    1 1
    18   18    2 1
    19   19    4 1
    20   20    9 1
    21   21    9 1
    22   22    9 1
    23   23   10 1
    24   24   10 1
    25   25   10 1
    26   26   11 1
    27   27   11 1
    28   28   11 1
    29   30   14 1
    30   31   14 1
    31   32   15 1
    32   33   15 1
    33   34   15 1
    34   35   16 1
    35   36   16 1
    36   37   16 1
@<TRIPOS>SUBSTRUCTURE
     1 RES1 1

@<TRIPOS>CRYSIN
   9.6690   16.4150   17.3410  90.0000 150.6900  90.0000  14 1

