# MOL2 file generated by ConQuest
# Please check atom types

@<TRIPOS>MOLECULE
WEDJOE
    68    72     2
SMALL
NO_CHARGES
****
Generated from CSD

@<TRIPOS>ATOM
      1 C1         6.7198   19.6474    1.8923 C.3       1 RES1    0.0000
      2 O1         6.0138   20.1706    0.7581 O.3       1 RES1    0.0000
      3 N1         5.9871   21.5909    0.7072 N.2       1 RES1    0.0000
      4 C2         6.8737   22.2088    1.4194 C.2       1 RES1    0.0000
      5 N2         7.9317   21.6372    2.0967 N.3       1 RES1    0.0000
      6 N3         8.0327   20.2245    2.0130 N.3       1 RES1    0.0000
      7 C3         6.7665   18.1503    1.7327 C.ar      1 RES1    0.0000
      8 C4         6.8072   17.5569    0.4798 C.ar      1 RES1    0.0000
      9 C5         6.8113   16.1796    0.3761 C.ar      1 RES1    0.0000
     10 C6         6.7836   15.3820    1.4893 C.ar      1 RES1    0.0000
     11 C7         6.7597   15.9754    2.7262 C.ar      1 RES1    0.0000
     12 C8         6.7447   17.3555    2.8588 C.ar      1 RES1    0.0000
     13 C9         6.7985   23.6868    1.3596 C.ar      1 RES1    0.0000
     14 C10        7.9533   24.4436    1.1621 C.ar      1 RES1    0.0000
     15 C11        7.8593   25.8127    1.0274 C.ar      1 RES1    0.0000
     16 C12        6.6472   26.4497    1.1162 C.ar      1 RES1    0.0000
     17 C13        5.5083   25.7038    1.3137 C.ar      1 RES1    0.0000
     18 C14        5.5736   24.3374    1.4394 C.ar      1 RES1    0.0000
     19 C15        9.6269    7.6951    3.2050 C.3       2 RES2    0.0000
     20 O2         8.9407    7.1276    4.3172 O.3       2 RES2    0.0000
     21 N4         8.9209    5.7026    4.2982 N.2       2 RES2    0.0000
     22 C16        9.8058    5.1282    3.5321 C.2       2 RES2    0.0000
     23 N5        10.8600    5.7298    2.8908 N.3       2 RES2    0.0000
     24 N6        10.9608    7.1480    3.0613 N.3       2 RES2    0.0000
     25 C17       11.1642    5.3351    1.5132 C.3       2 RES2    0.0000
     26 C18        9.6564    9.1895    3.3985 C.ar      2 RES2    0.0000
     27 C19        9.5217   10.0197    2.3052 C.ar      2 RES2    0.0000
     28 C20        9.5058   11.3916    2.4618 C.ar      2 RES2    0.0000
     29 C21        9.6274   11.9305    3.7167 C.ar      2 RES2    0.0000
     30 C22        9.7661   11.1221    4.7970 C.ar      2 RES2    0.0000
     31 C23        9.7910    9.7502    4.6553 C.ar      2 RES2    0.0000
     32 C24        9.7108    3.6502    3.4972 C.ar      2 RES2    0.0000
     33 C25        8.4830    3.0296    3.4075 C.ar      2 RES2    0.0000
     34 C26        8.3999    1.6386    3.4085 C.ar      2 RES2    0.0000
     35 C27        9.5276    0.8819    3.5012 C.ar      2 RES2    0.0000
     36 C28       10.7504    1.4917    3.6080 C.ar      2 RES2    0.0000
     37 C29       10.8524    2.8581    3.6000 C.ar      2 RES2    0.0000
     38 C30        8.2562   22.1081    3.4504 C.3       1 RES1    0.0000
     39 H1         6.2676   19.8788    2.7072 H         1 RES1    0.0000
     40 H2         8.5673   19.9250    1.0723 H         1 RES1    0.0000
     41 H3         8.1800   23.0635    3.4813 H         1 RES1    0.0000
     42 H4         9.1552   21.8522    3.6718 H         1 RES1    0.0000
     43 H5         7.6477   21.7188    4.0808 H         1 RES1    0.0000
     44 H6         6.8366   18.1013   -0.3112 H         1 RES1    0.0000
     45 H7         6.8298   15.7713   -0.4918 H         1 RES1    0.0000
     46 H8         6.7826   14.4239    1.4065 H         1 RES1    0.0000
     47 H9         6.7541   15.4229    3.5122 H         1 RES1    0.0000
     48 H10        6.7192   17.7529    3.7316 H         1 RES1    0.0000
     49 H11        8.8108   24.0162    1.1152 H         1 RES1    0.0000
     50 H12        8.6536   26.3272    0.8718 H         1 RES1    0.0000
     51 H13        6.5968   27.4051    1.0414 H         1 RES1    0.0000
     52 H14        4.6567   26.1448    1.3636 H         1 RES1    0.0000
     53 H15        4.7714   23.8284    1.5820 H         1 RES1    0.0000
     54 H16        9.1672    7.4773    2.3900 H         2 RES2    0.0000
     55 H17       11.5106    7.2841    3.9740 H         2 RES2    0.0000
     56 H18       11.0870    4.3824    1.4274 H         2 RES2    0.0000
     57 H19       12.0595    5.6046    1.2938 H         2 RES2    0.0000
     58 H20       10.5468    5.7598    0.9137 H         2 RES2    0.0000
     59 H21        9.4344    9.6386    1.4274 H         2 RES2    0.0000
     60 H22        9.4114   11.9605    1.6957 H         2 RES2    0.0000
     61 H23        9.6174   12.8832    3.8304 H         2 RES2    0.0000
     62 H24        9.8466   11.5086    5.6718 H         2 RES2    0.0000
     63 H25        9.9032    9.1840    5.4234 H         2 RES2    0.0000
     64 H26        7.6830    3.5549    3.3426 H         2 RES2    0.0000
     65 H27        7.5424    1.2140    3.3436 H         2 RES2    0.0000
     66 H28        9.4643   -0.0762    3.4942 H         2 RES2    0.0000
     67 H29       11.5425    0.9527    3.6858 H         2 RES2    0.0000
     68 H30       11.7168    3.2718    3.6678 H         2 RES2    0.0000
@<TRIPOS>BOND
     1    1    2 1
     2    2    3 1
     3    3    4 2
     4    4    5 1
     5    5    6 1
     6    6    1 1
     7    7    1 1
     8    8    7 ar
     9    9    8 ar
    10   10    9 ar
    11   11   10 ar
    12   12    7 ar
    13   13    4 1
    14   14   13 ar
    15   15   14 ar
    16   16   15 ar
    17   17   16 ar
    18   18   13 ar
    19   19   20 1
    20   20   21 1
    21   21   22 2
    22   22   23 1
    23   23   24 1
    24   24   19 1
    25   25   23 1
    26   26   19 1
    27   27   26 ar
    28   28   27 ar
    29   29   28 ar
    30   30   29 ar
    31   31   26 ar
    32   32   22 1
    33   33   32 ar
    34   34   33 ar
    35   35   34 ar
    36   36   35 ar
    37   37   32 ar
    38   38    5 1
    39   39    1 1
    40   40    6 1
    41   41   38 1
    42   42   38 1
    43   43   38 1
    44   44    8 1
    45   45    9 1
    46   46   10 1
    47   47   11 1
    48   48   12 1
    49   49   14 1
    50   50   15 1
    51   51   16 1
    52   52   17 1
    53   53   18 1
    54   54   19 1
    55   55   24 1
    56   56   25 1
    57   57   25 1
    58   58   25 1
    59   59   27 1
    60   60   28 1
    61   61   29 1
    62   62   30 1
    63   63   31 1
    64   64   33 1
    65   65   34 1
    66   66   35 1
    67   67   36 1
    68   68   37 1
    69   11   12 ar
    70   17   18 ar
    71   30   31 ar
    72   36   37 ar
@<TRIPOS>SUBSTRUCTURE
     1 RES1 1
     2 RES2 19

@<TRIPOS>CRYSIN
   9.9020   27.2200    9.9750  90.0000  90.0500  90.0000  14 2

