# MOL2 file generated by ConQuest
# Please check atom types

@<TRIPOS>MOLECULE
WEDLEZ
   122   128     2
SMALL
NO_CHARGES
****
Generated from CSD

@<TRIPOS>ATOM
      1 C1         3.0061    3.4342    6.1912 C.2       1 RES1    0.0000
      2 C2         4.3489    4.0402    6.4483 C.3       1 RES1    0.0000
      3 H1         4.9747    3.3219    6.7140 H         1 RES1    0.0000
      4 H2         4.2728    4.6687    7.2088 H         1 RES1    0.0000
      5 C3         4.9429    4.7894    5.2479 C.3       1 RES1    0.0000
      6 H3         4.5807    5.7108    5.2398 H         1 RES1    0.0000
      7 H4         5.9231    4.8549    5.3696 H         1 RES1    0.0000
      8 C4         4.6593    4.1374    3.8954 C.3       1 RES1    0.0000
      9 H5         5.1179    3.2618    3.8487 H         1 RES1    0.0000
     10 H6         5.0203    4.7097    3.1714 H         1 RES1    0.0000
     11 C5         3.1562    3.9355    3.6784 C.3       1 RES1    0.0000
     12 C6         2.8081    3.2679    2.3401 C.ar      1 RES1    0.0000
     13 C7         3.7242    2.5893    1.5614 C.ar      1 RES1    0.0000
     14 H7         4.6401    2.5885    1.8108 H         1 RES1    0.0000
     15 C8         3.3281    1.9047    0.4116 C.ar      1 RES1    0.0000
     16 H8         3.9787    1.4252   -0.0872 H         1 RES1    0.0000
     17 C9         2.0228    1.9033   -0.0203 C.ar      1 RES1    0.0000
     18 C10        1.5535    1.1632   -1.2836 C.3       1 RES1    0.0000
     19 H9         0.8181    0.5569   -1.0544 H         1 RES1    0.0000
     20 H10        2.2981    0.6461   -1.6567 H         1 RES1    0.0000
     21 H11        1.2443    1.8141   -1.9487 H         1 RES1    0.0000
     22 C11        1.1109    2.5914    0.7462 C.ar      1 RES1    0.0000
     23 H12        0.2000    2.6165    0.4765 H         1 RES1    0.0000
     24 C12        1.4974    3.2532    1.9102 C.ar      1 RES1    0.0000
     25 H13        0.8391    3.7082    2.4232 H         1 RES1    0.0000
     26 C13        2.4424    5.2916    3.7915 C.ar      1 RES1    0.0000
     27 C14        2.8884    6.3758    3.0165 C.ar      1 RES1    0.0000
     28 H14        3.5946    6.2409    2.3948 H         1 RES1    0.0000
     29 C15        2.3271    7.6294    3.1329 C.ar      1 RES1    0.0000
     30 H15        2.6479    8.3495    2.6037 H         1 RES1    0.0000
     31 C16        1.2886    7.8315    4.0343 C.ar      1 RES1    0.0000
     32 C17        0.7993    6.7827    4.7663 C.ar      1 RES1    0.0000
     33 H16        0.0643    6.9088    5.3554 H         1 RES1    0.0000
     34 C18        1.3894    5.5321    4.6375 C.ar      1 RES1    0.0000
     35 H17        1.0508    4.8132    5.1587 H         1 RES1    0.0000
     36 C19        0.0899    9.3883    5.3209 C.3       1 RES1    0.0000
     37 H18       -0.8100    9.0069    5.2499 H         1 RES1    0.0000
     38 H19        0.0246   10.3577    5.4466 H         1 RES1    0.0000
     39 H20        0.5542    8.9894    6.0854 H         1 RES1    0.0000
     40 C20        2.7034    2.9536    4.7906 C.3       1 RES1    0.0000
     41 H21        1.7286    2.8063    4.7085 H         1 RES1    0.0000
     42 H22        3.1524    2.0830    4.6477 H         1 RES1    0.0000
     43 C21        1.4113    3.4205    9.3124 C.ar      1 RES1    0.0000
     44 C22        0.1876    2.8093    8.9938 C.ar      1 RES1    0.0000
     45 H23        0.0199    2.5504    8.0949 H         1 RES1    0.0000
     46 C23       -0.7762    2.5754    9.9483 C.ar      1 RES1    0.0000
     47 H24       -1.5996    2.1666    9.7090 H         1 RES1    0.0000
     48 C24       -0.5302    2.9447   11.2716 C.ar      1 RES1    0.0000
     49 C25        0.6252    3.5763   11.6303 C.ar      1 RES1    0.0000
     50 H25        0.7685    3.8412   12.5317 H         1 RES1    0.0000
     51 C26        1.5929    3.8272   10.6598 C.ar      1 RES1    0.0000
     52 N1         2.0826    3.2251    7.0644 N.2       1 RES1    0.0000
     53 N2         2.3601    3.6027    8.3670 N.pl3     1 RES1    0.0000
     54 N3         2.7889    4.5109   11.0986 N.pl3     1 RES1    0.0000
     55 N4        -1.5256    2.6451   12.2879 N.pl3     1 RES1    0.0000
     56 O1         0.8115    9.1161    4.1377 O.3       1 RES1    0.0000
     57 O2         3.7379    4.6350   10.3202 O.2       1 RES1    0.0000
     58 O3         2.8131    4.9764   12.2352 O.2       1 RES1    0.0000
     59 O4        -2.5636    2.0755   11.9345 O.2       1 RES1    0.0000
     60 O5        -1.2888    2.9463   13.4499 O.2       1 RES1    0.0000
     61 H26        3.1434    3.9396    8.6586 H         1 RES1    0.0000
     62 C27        6.7940    7.5105   13.6691 C.2       2 RES2    0.0000
     63 C28        7.0822    7.8997   15.0877 C.3       2 RES2    0.0000
     64 H27        6.6481    8.7694   15.2732 H         2 RES2    0.0000
     65 H28        8.0593    8.0230   15.1921 H         2 RES2    0.0000
     66 C29        6.5931    6.8582   16.1454 C.3       2 RES2    0.0000
     67 C30        7.3818    5.5387   16.0673 C.ar      2 RES2    0.0000
     68 C31        8.4774    5.3429   15.2469 C.ar      2 RES2    0.0000
     69 H29        8.7659    6.0444   14.6730 H         2 RES2    0.0000
     70 C32        9.1595    4.1351   15.2489 C.ar      2 RES2    0.0000
     71 H30        9.9081    4.0250   14.6750 H         2 RES2    0.0000
     72 C33        8.7782    3.0856   16.0681 C.ar      2 RES2    0.0000
     73 C34        9.5863    1.8146   16.0620 C.3       2 RES2    0.0000
     74 H31        9.3037    1.2449   16.8083 H         2 RES2    0.0000
     75 H32       10.5373    2.0317   16.1594 H         2 RES2    0.0000
     76 H33        9.4439    1.3408   15.2165 H         2 RES2    0.0000
     77 C35        7.6857    3.2807   16.8731 C.ar      2 RES2    0.0000
     78 H34        7.3892    2.5712   17.4308 H         2 RES2    0.0000
     79 C36        7.0043    4.4846   16.8934 C.ar      2 RES2    0.0000
     80 H35        6.2652    4.5933   17.4795 H         2 RES2    0.0000
     81 C37        6.8169    7.4898   17.5231 C.ar      2 RES2    0.0000
     82 C38        8.0966    7.5907   18.0513 C.ar      2 RES2    0.0000
     83 H36        8.8187    7.1940   17.5788 H         2 RES2    0.0000
     84 C39        8.3583    8.2457   19.2396 C.ar      2 RES2    0.0000
     85 H37        9.2471    8.3175   19.5660 H         2 RES2    0.0000
     86 C40        7.3090    8.7920   19.9400 C.ar      2 RES2    0.0000
     87 C41        8.7416    9.8468   21.5350 C.3       2 RES2    0.0000
     88 H38        9.2692    9.0368   21.6972 H         2 RES2    0.0000
     89 H39        8.6875   10.3723   22.3603 H         2 RES2    0.0000
     90 H40        9.1716   10.3816   20.8354 H         2 RES2    0.0000
     91 C42        6.0272    8.6467   19.4809 C.ar      2 RES2    0.0000
     92 H41        5.3001    8.9807   19.9919 H         2 RES2    0.0000
     93 C43        5.7871    8.0177   18.2784 C.ar      2 RES2    0.0000
     94 H42        4.8940    7.9459   17.9621 H         2 RES2    0.0000
     95 C44        5.1050    6.5950   15.8410 C.3       2 RES2    0.0000
     96 H43        4.7548    5.9317   16.4879 H         2 RES2    0.0000
     97 H44        4.5958    7.4351   15.9627 H         2 RES2    0.0000
     98 C45        4.8857    6.0830   14.4398 C.3       2 RES2    0.0000
     99 H45        3.9183    5.9271   14.2999 H         2 RES2    0.0000
    100 H46        5.3512    5.2150   14.3364 H         2 RES2    0.0000
    101 C46        5.3932    7.0506   13.3773 C.3       2 RES2    0.0000
    102 H47        5.3723    6.6048   12.4931 H         2 RES2    0.0000
    103 H48        4.7925    7.8360   13.3367 H         2 RES2    0.0000
    104 C47        8.4607    7.4877   10.5889 C.ar      2 RES2    0.0000
    105 C48        9.6957    8.1087   10.9196 C.ar      2 RES2    0.0000
    106 H49        9.8571    8.3691   11.8179 H         2 RES2    0.0000
    107 C49       10.6448    8.3362    9.9866 C.ar      2 RES2    0.0000
    108 H50       11.4551    8.7676   10.2322 H         2 RES2    0.0000
    109 C50       10.4396    7.9403    8.6633 C.ar      2 RES2    0.0000
    110 C51        9.2927    7.2904    8.2898 C.ar      2 RES2    0.0000
    111 H51        9.1755    7.0013    7.3933 H         2 RES2    0.0000
    112 C52        8.3087    7.0595    9.2325 C.ar      2 RES2    0.0000
    113 N5         7.7625    7.6651   12.8464 N.2       2 RES2    0.0000
    114 N6         7.5034    7.3232   11.5237 N.pl3     2 RES2    0.0000
    115 N7         7.1162    6.3690    8.7910 N.pl3     2 RES2    0.0000
    116 N8        11.4454    8.2321    7.6599 N.pl3     2 RES2    0.0000
    117 O6         7.4450    9.4878   21.1215 O.3       2 RES2    0.0000
    118 O7         6.1519    6.2642    9.5533 O.2       2 RES2    0.0000
    119 O8         7.0991    5.9021    7.6555 O.2       2 RES2    0.0000
    120 O9        11.2546    7.8552    6.5078 O.2       2 RES2    0.0000
    121 O10       12.4412    8.8710    7.9976 O.2       2 RES2    0.0000
    122 H52        6.7810    6.9527   11.2927 H         2 RES2    0.0000
@<TRIPOS>BOND
     1    1    2 1
     2    2    3 1
     3    4    2 1
     4    5    2 1
     5    6    5 1
     6    7    5 1
     7    8    5 1
     8    9    8 1
     9   10    8 1
    10   11    8 1
    11   12   11 1
    12   13   12 ar
    13   14   13 1
    14   15   13 ar
    15   16   15 1
    16   17   15 ar
    17   18   17 1
    18   19   18 1
    19   20   18 1
    20   21   18 1
    21   22   17 ar
    22   23   22 1
    23   24   12 ar
    24   25   24 1
    25   26   11 1
    26   27   26 ar
    27   28   27 1
    28   29   27 ar
    29   30   29 1
    30   31   29 ar
    31   32   31 ar
    32   33   32 1
    33   34   26 ar
    34   35   34 1
    35   36   37 1
    36   38   36 1
    37   39   36 1
    38   40    1 1
    39   41   40 1
    40   42   40 1
    41   43   44 ar
    42   44   45 1
    43   46   44 ar
    44   47   46 1
    45   48   46 ar
    46   49   48 ar
    47   50   49 1
    48   51   43 ar
    49   52    1 2
    50   53   43 1
    51   54   51 1
    52   55   48 1
    53   56   31 1
    54   57   54 2
    55   58   54 2
    56   59   55 2
    57   60   55 2
    58   61   53 1
    59   62   63 1
    60   63   64 1
    61   65   63 1
    62   66   63 1
    63   67   66 1
    64   68   67 ar
    65   69   68 1
    66   70   68 ar
    67   71   70 1
    68   72   70 ar
    69   73   72 1
    70   74   73 1
    71   75   73 1
    72   76   73 1
    73   77   72 ar
    74   78   77 1
    75   79   67 ar
    76   80   79 1
    77   81   66 1
    78   82   81 ar
    79   83   82 1
    80   84   82 ar
    81   85   84 1
    82   86   84 ar
    83   87   88 1
    84   89   87 1
    85   90   87 1
    86   91   86 ar
    87   92   91 1
    88   93   81 ar
    89   94   93 1
    90   95   66 1
    91   96   95 1
    92   97   95 1
    93   98   95 1
    94   99   98 1
    95  100   98 1
    96  101   62 1
    97  102  101 1
    98  103  101 1
    99  104  105 ar
   100  105  106 1
   101  107  105 ar
   102  108  107 1
   103  109  107 ar
   104  110  109 ar
   105  111  110 1
   106  112  104 ar
   107  113   62 2
   108  114  104 1
   109  115  112 1
   110  116  109 1
   111  117   86 1
   112  118  115 2
   113  119  115 2
   114  120  116 2
   115  121  116 2
   116  122  114 1
   117   11   40 1
   118   22   24 ar
   119   32   34 ar
   120   36   56 1
   121   49   51 ar
   122   52   53 1
   123   77   79 ar
   124   87  117 1
   125   91   93 ar
   126   98  101 1
   127  110  112 ar
   128  113  114 1
@<TRIPOS>SUBSTRUCTURE
     1 RES1 1
     2 RES2 62

@<TRIPOS>CRYSIN
   7.2089    8.0810   20.5940  81.1030  84.5220  84.4780   1 1

