# MOL2 file generated by ConQuest
# Please check atom types

@<TRIPOS>MOLECULE
WEFBEQ
    30    31     1
SMALL
NO_CHARGES
****
Generated from CSD

@<TRIPOS>ATOM
      1 N1        14.7857   10.7772    2.7420 N.ar      1 RES1    0.0000
      2 O1        12.4586    3.7928   -0.7833 O.2       1 RES1    0.0000
      3 C1        14.0158   10.9923    1.6572 C.ar      1 RES1    0.0000
      4 N2        12.5137    9.0942    1.9383 N.3       1 RES1    0.0000
      5 O2        13.4453    5.5726   -1.4677 O.2       1 RES1    0.0000
      6 N3        11.1413    7.7381    3.9431 N.3       1 RES1    0.0000
      7 C2        15.1780   13.1258    2.8413 C.ar      1 RES1    0.0000
      8 H1        15.6018   13.8381    3.2626 H         1 RES1    0.0000
      9 C3        15.3338   11.8549    3.3088 C.ar      1 RES1    0.0000
     10 H2        15.8543   11.7296    4.0702 H         1 RES1    0.0000
     11 C4        13.4400    9.7496    1.0332 C.3       1 RES1    0.0000
     12 H3        12.9779    9.9838    0.2133 H         1 RES1    0.0000
     13 H4        14.1588    9.1386    0.8090 H         1 RES1    0.0000
     14 C5        12.2357    7.7447    1.7822 C.ar      1 RES1    0.0000
     15 C6        12.6107    7.0334    0.6537 C.ar      1 RES1    0.0000
     16 H5        13.0607    7.4669   -0.0368 H         1 RES1    0.0000
     17 C7        12.3209    5.6818    0.5456 C.ar      1 RES1    0.0000
     18 N4        12.7641    4.9761   -0.6275 N.pl3     1 RES1    0.0000
     19 C8        14.3920   13.3349    1.7460 C.ar      1 RES1    0.0000
     20 H6        14.2635   14.1942    1.4121 H         1 RES1    0.0000
     21 C9        13.7893   12.2458    1.1428 C.ar      1 RES1    0.0000
     22 H7        13.2396   12.3602    0.4016 H         1 RES1    0.0000
     23 C10       11.5365    7.0552    2.8206 C.ar      1 RES1    0.0000
     24 C11       11.2552    5.7069    2.6623 C.ar      1 RES1    0.0000
     25 H8        10.7910    5.2636    3.3347 H         1 RES1    0.0000
     26 C12       11.6412    5.0011    1.5407 C.ar      1 RES1    0.0000
     27 H9        11.4508    4.0950    1.4563 H         1 RES1    0.0000
     28 H10       12.4752    9.4098    2.6551 H         1 RES1    0.0000
     29 H11       10.7959    7.2970    4.5350 H         1 RES1    0.0000
     30 H12       11.3779    8.6910    4.0864 H         1 RES1    0.0000
@<TRIPOS>BOND
     1    1    3 ar
     2    2   18 2
     3    3   11 1
     4    4   11 1
     5    5   18 2
     6    6   23 1
     7    7    8 1
     8    9    1 ar
     9   10    9 1
    10   11   12 1
    11   13   11 1
    12   14    4 1
    13   15   14 ar
    14   16   15 1
    15   17   15 ar
    16   18   17 1
    17   19    7 ar
    18   20   19 1
    19   21    3 ar
    20   22   21 1
    21   23   14 ar
    22   24   23 ar
    23   25   24 1
    24   26   17 ar
    25   27   26 1
    26   28    4 1
    27   29    6 1
    28   30    6 1
    29    7    9 ar
    30   19   21 ar
    31   24   26 ar
@<TRIPOS>SUBSTRUCTURE
     1 RES1 1

@<TRIPOS>CRYSIN
  15.0070   10.8910   16.1370  90.0000 114.2790  90.0000  15 1

