# MOL2 file generated by ConQuest
# Please check atom types

@<TRIPOS>MOLECULE
WEFMIE
    31    32     1
SMALL
NO_CHARGES
****
Generated from CSD

@<TRIPOS>ATOM
      1 O1         7.0916    1.7688   -1.6448 O.2       1 RES1    0.0000
      2 N1         3.9318    5.2189    2.6571 N.pl3     1 RES1    0.0000
      3 O2         3.3553    4.8621    3.6767 O.2       1 RES1    0.0000
      4 C1         5.1980    4.5992    0.6664 C.ar      1 RES1    0.0000
      5 H1         5.2002    5.4957    0.4200 H         1 RES1    0.0000
      6 C2         4.5713    4.1916    1.8147 C.ar      1 RES1    0.0000
      7 C3         6.9815   -1.0196   -1.1495 C.2       1 RES1    0.0000
      8 H2         7.4038   -0.7136   -1.9191 H         1 RES1    0.0000
      9 C4         7.6143   -3.2901   -1.8960 C.ar      1 RES1    0.0000
     10 H3         8.0062   -2.9117   -2.6498 H         1 RES1    0.0000
     11 O3         4.0061    6.3858    2.3027 O.2       1 RES1    0.0000
     12 C5         6.4897    1.3396   -0.6700 C.2       1 RES1    0.0000
     13 C6         7.0079   -2.4672   -0.9347 C.ar      1 RES1    0.0000
     14 C7         5.7912    2.3174    0.2379 C.ar      1 RES1    0.0000
     15 C8         5.1282    1.9403    1.4032 C.ar      1 RES1    0.0000
     16 H4         5.1006    1.0438    1.6484 H         1 RES1    0.0000
     17 O4         8.1846   -5.5097   -2.6195 O.3       1 RES1    0.0000
     18 C9         6.4521   -3.0501    0.2039 C.ar      1 RES1    0.0000
     19 H5         6.0574   -2.5167    0.8570 H         1 RES1    0.0000
     20 C10        4.5114    2.8863    2.1983 C.ar      1 RES1    0.0000
     21 H6         4.0668    2.6374    2.9763 H         1 RES1    0.0000
     22 C11        7.6300   -4.6551   -1.7249 C.ar      1 RES1    0.0000
     23 C12        5.8224    3.6583   -0.1129 C.ar      1 RES1    0.0000
     24 H7         6.2704    3.9237   -0.8837 H         1 RES1    0.0000
     25 C13        7.0599   -5.2113   -0.6093 C.ar      1 RES1    0.0000
     26 H8         7.0582   -6.1357   -0.5050 H         1 RES1    0.0000
     27 C14        6.4311   -0.0978   -0.3848 C.2       1 RES1    0.0000
     28 H9         5.9803   -0.3746    0.3799 H         1 RES1    0.0000
     29 C15        6.4911   -4.4138    0.3557 C.ar      1 RES1    0.0000
     30 H10        6.1295   -4.8024    1.1192 H         1 RES1    0.0000
     31 H11        8.6705   -5.0792   -3.1924 H         1 RES1    0.0000
@<TRIPOS>BOND
     1    1   12 2
     2    2    3 2
     3    4    5 1
     4    6    2 1
     5    7    8 1
     6    9   10 1
     7   11    2 2
     8   12   14 1
     9   13    7 1
    10   14   15 ar
    11   15   16 1
    12   17   22 1
    13   18   13 ar
    14   19   18 1
    15   20    6 ar
    16   21   20 1
    17   22    9 ar
    18   23    4 ar
    19   24   23 1
    20   25   22 ar
    21   26   25 1
    22   27    7 2
    23   28   27 1
    24   29   18 ar
    25   30   29 1
    26   31   17 1
    27    4    6 ar
    28    9   13 ar
    29   12   27 1
    30   14   23 ar
    31   15   20 ar
    32   25   29 ar
@<TRIPOS>SUBSTRUCTURE
     1 RES1 1

@<TRIPOS>CRYSIN
   8.2410   12.6980   12.1940  90.0000  95.4740  90.0000  14 1

