# MOL2 file generated by ConQuest
# Please check atom types

@<TRIPOS>MOLECULE
WEFSEG
    54    54     2
SMALL
NO_CHARGES
****
Generated from CSD

@<TRIPOS>ATOM
      1 O1        13.3046   12.4765   -2.4998 O.2       1 RES1    0.0000
      2 O2        12.6554   14.0071   -1.1002 O.2       1 RES1    0.0000
      3 O3         3.4195   12.4405   14.6561 O.2       2 RES2    0.0000
      4 O4         3.4993   14.0310   13.1871 O.2       2 RES2    0.0000
      5 N1        12.9274   12.8310   -1.3744 N.pl3     1 RES1    0.0000
      6 N2        13.0083    9.5406    0.2786 N.ar      1 RES1    0.0000
      7 N3        12.6092    8.8856    2.4539 N.3       1 RES1    0.0000
      8 N4         3.5709   12.8363   13.4942 N.pl3     2 RES2    0.0000
      9 N5         4.3152    9.6024   11.9009 N.ar      2 RES2    0.0000
     10 N6         4.5420    8.9783    9.6929 N.3       2 RES2    0.0000
     11 C1        12.8050   11.8391   -0.3428 C.ar      1 RES1    0.0000
     12 C2        12.4544   12.2076    0.9558 C.ar      1 RES1    0.0000
     13 C3        12.3812   11.2340    1.9088 C.ar      1 RES1    0.0000
     14 C4        12.6644    9.8825    1.5521 C.ar      1 RES1    0.0000
     15 C5        13.0776   10.5104   -0.6235 C.ar      1 RES1    0.0000
     16 C6        13.0918    7.5345    2.1372 C.3       1 RES1    0.0000
     17 C7        11.9702    6.5774    1.7695 C.3       1 RES1    0.0000
     18 C8        12.2257    9.1317    3.8471 C.3       1 RES1    0.0000
     19 C9        13.3815    9.6208    4.6977 C.3       1 RES1    0.0000
     20 C10        3.8413   11.8749   12.4661 C.ar      2 RES2    0.0000
     21 C11        3.9163   12.2704   11.1299 C.ar      2 RES2    0.0000
     22 C12        4.1699   11.3188   10.1847 C.ar      2 RES2    0.0000
     23 C13        4.3405    9.9680   10.5900 C.ar      2 RES2    0.0000
     24 C14        4.0635   10.5482   12.7979 C.ar      2 RES2    0.0000
     25 C15        4.8820    7.6201   10.1275 C.3       2 RES2    0.0000
     26 C16        3.6616    6.7316   10.3062 C.3       2 RES2    0.0000
     27 C17        4.4730    9.2176    8.2524 C.3       2 RES2    0.0000
     28 C18        5.7958    9.6773    7.6739 C.3       2 RES2    0.0000
     29 H1        12.2679   13.1373    1.1866 H         1 RES1    0.0000
     30 H2        12.2072   11.4543    2.7864 H         1 RES1    0.0000
     31 H3        13.3532   10.2515   -1.5208 H         1 RES1    0.0000
     32 H4        13.5920    7.2053    2.9356 H         1 RES1    0.0000
     33 H5        13.7354    7.6148    1.4172 H         1 RES1    0.0000
     34 H6        11.5838    6.8568    0.9078 H         1 RES1    0.0000
     35 H7        12.3620    5.6497    1.6393 H         1 RES1    0.0000
     36 H8        11.2692    6.5649    2.4583 H         1 RES1    0.0000
     37 H9        11.8697    8.3013    4.1851 H         1 RES1    0.0000
     38 H10       11.4756    9.8024    3.8730 H         1 RES1    0.0000
     39 H11       14.0790    8.9481    4.6908 H         1 RES1    0.0000
     40 H12       13.7996   10.4856    4.3282 H         1 RES1    0.0000
     41 H13       13.0847    9.7629    5.5826 H         1 RES1    0.0000
     42 H14        3.8182   13.1961   10.9025 H         2 RES2    0.0000
     43 H15        4.2616   11.5602    9.2558 H         2 RES2    0.0000
     44 H16        4.0662   10.3092   13.7357 H         2 RES2    0.0000
     45 H17        5.4048    7.6865   10.9715 H         2 RES2    0.0000
     46 H18        5.5229    7.2748    9.4445 H         2 RES2    0.0000
     47 H19        3.1458    7.0375   11.0776 H         2 RES2    0.0000
     48 H20        3.9446    5.7940   10.5201 H         2 RES2    0.0000
     49 H21        3.1398    6.6985    9.4840 H         2 RES2    0.0000
     50 H22        3.7608    9.8591    8.0581 H         2 RES2    0.0000
     51 H23        4.1792    8.3622    7.8472 H         2 RES2    0.0000
     52 H24        6.4803    8.9909    7.8065 H         2 RES2    0.0000
     53 H25        6.1051   10.4963    8.0976 H         2 RES2    0.0000
     54 H26        5.7097    9.8559    6.7050 H         2 RES2    0.0000
@<TRIPOS>BOND
     1    1    5 2
     2    2    5 2
     3    3    8 2
     4    4    8 2
     5    5   11 1
     6    6   14 ar
     7    7   14 1
     8    8   20 1
     9    9   23 ar
    10   10   23 1
    11   11   12 ar
    12   12   13 ar
    13   13   14 ar
    14   15    6 ar
    15   16    7 1
    16   17   16 1
    17   18    7 1
    18   19   18 1
    19   20   21 ar
    20   21   22 ar
    21   22   23 ar
    22   24    9 ar
    23   25   10 1
    24   26   25 1
    25   27   10 1
    26   28   27 1
    27   29   12 1
    28   30   13 1
    29   31   15 1
    30   32   16 1
    31   33   16 1
    32   34   17 1
    33   35   17 1
    34   36   17 1
    35   37   18 1
    36   38   18 1
    37   39   19 1
    38   40   19 1
    39   41   19 1
    40   42   21 1
    41   43   22 1
    42   44   24 1
    43   45   25 1
    44   46   25 1
    45   47   26 1
    46   48   26 1
    47   49   26 1
    48   50   27 1
    49   51   27 1
    50   52   28 1
    51   53   28 1
    52   54   28 1
    53   11   15 ar
    54   20   24 ar
@<TRIPOS>SUBSTRUCTURE
     1 RES1 1
     2 RES2 3

@<TRIPOS>CRYSIN
  14.6723   10.6920   12.4224  90.0000  96.8200  90.0000  14 1

