# MOL2 file generated by ConQuest
# Please check atom types

@<TRIPOS>MOLECULE
WEGPUV
    33    35     1
SMALL
NO_CHARGES
****
Generated from CSD

@<TRIPOS>ATOM
      1 C1         0.8011    7.7448    0.8687 C.2       1 RES1    0.0000
      2 C2         2.2950    7.9664    0.8936 C.3       1 RES1    0.0000
      3 C3         2.8847    7.7471   -0.5187 C.3       1 RES1    0.0000
      4 H1         3.8615    7.8065   -0.4691 H         1 RES1    0.0000
      5 C4         2.3731    8.7955   -1.5112 C.3       1 RES1    0.0000
      6 H2         1.4036    8.7690   -1.5348 H         1 RES1    0.0000
      7 H3         2.6413    9.6791   -1.2117 H         1 RES1    0.0000
      8 C5         2.5723    9.3674    1.4997 C.2       1 RES1    0.0000
      9 C6         3.0749    9.2040    2.8994 C.3       1 RES1    0.0000
     10 H4         2.6280    9.8241    3.4984 H         1 RES1    0.0000
     11 H5         4.0304    9.3642    2.9407 H         1 RES1    0.0000
     12 C7         2.7546    7.7734    3.2736 C.3       1 RES1    0.0000
     13 H6         1.8547    7.7002    3.6274 H         1 RES1    0.0000
     14 H7         3.3819    7.4378    3.9334 H         1 RES1    0.0000
     15 C8         2.8878    7.0125    1.9546 C.3       1 RES1    0.0000
     16 H8         2.3918    6.1798    1.9853 H         1 RES1    0.0000
     17 H9         3.8179    6.8164    1.7616 H         1 RES1    0.0000
     18 O1         0.3494    6.6950    0.1237 O.3       1 RES1    0.0000
     19 O2         0.0024    8.3886    1.4764 O.2       1 RES1    0.0000
     20 O3         2.4197   10.3991    0.9097 O.2       1 RES1    0.0000
     21 C9         2.5008    6.3598   -0.9448 C.ar      1 RES1    0.0000
     22 N1         2.9059    8.5555   -2.8853 N.pl3     1 RES1    0.0000
     23 C10        1.2456    5.8936   -0.5886 C.ar      1 RES1    0.0000
     24 C11        3.3268    5.5132   -1.6661 C.ar      1 RES1    0.0000
     25 H10        4.1751    5.8014   -1.9139 H         1 RES1    0.0000
     26 O4         4.0789    8.3119   -3.0139 O.2       1 RES1    0.0000
     27 O5         2.1175    8.6461   -3.8077 O.2       1 RES1    0.0000
     28 C12        0.8150    4.6276   -0.9386 C.ar      1 RES1    0.0000
     29 H11       -0.0297    4.3279   -0.6897 H         1 RES1    0.0000
     30 C13        2.9059    4.2506   -2.0197 C.ar      1 RES1    0.0000
     31 H12        3.4721    3.6913   -2.5026 H         1 RES1    0.0000
     32 C14        1.6688    3.8169   -1.6669 C.ar      1 RES1    0.0000
     33 H13        1.3909    2.9649   -1.9170 H         1 RES1    0.0000
@<TRIPOS>BOND
     1    1    2 1
     2    2    3 1
     3    3    4 1
     4    5    3 1
     5    6    5 1
     6    7    5 1
     7    8    2 1
     8    9    8 1
     9   10    9 1
    10   11    9 1
    11   12    9 1
    12   13   12 1
    13   14   12 1
    14   15    2 1
    15   16   15 1
    16   17   15 1
    17   18    1 1
    18   19    1 2
    19   20    8 2
    20   21    3 1
    21   22    5 1
    22   23   18 1
    23   24   21 ar
    24   25   24 1
    25   26   22 2
    26   27   22 2
    27   28   23 ar
    28   29   28 1
    29   30   24 ar
    30   31   30 1
    31   32   28 ar
    32   33   32 1
    33   12   15 1
    34   21   23 ar
    35   30   32 ar
@<TRIPOS>SUBSTRUCTURE
     1 RES1 1

@<TRIPOS>CRYSIN
   6.0553   13.8095   15.5347  90.0000  90.0000  90.0000  19 1

