# MOL2 file generated by ConQuest
# Please check atom types

@<TRIPOS>MOLECULE
WEGROQ
    58    61     1
SMALL
NO_CHARGES
****
Generated from CSD

@<TRIPOS>ATOM
      1 O1        11.4511   -0.1117    2.2133 O.3       1 RES1    0.0000
      2 C1        12.2460    1.0195    2.5677 C.3       1 RES1    0.0000
      3 C2        11.4238    2.3109    2.3638 C.3       1 RES1    0.0000
      4 H1        11.9786    3.0780    2.6414 H         1 RES1    0.0000
      5 C3        11.0332    2.5317    0.9075 C.3       1 RES1    0.0000
      6 H2        10.5523    3.3947    0.8356 H         1 RES1    0.0000
      7 H3        10.4187    1.8520    0.6276 H         1 RES1    0.0000
      8 C4        12.2745    2.5373    0.0161 C.3       1 RES1    0.0000
      9 H4        12.8476    3.3153    0.2654 H         1 RES1    0.0000
     10 H5        12.0198    2.6507   -0.9289 H         1 RES1    0.0000
     11 C5        13.0384    1.2256    0.1585 C.3       1 RES1    0.0000
     12 H6        12.3886    0.4380   -0.1560 H         1 RES1    0.0000
     13 H7        13.8186    1.2529   -0.3891 H         1 RES1    0.0000
     14 C6        13.4445    0.9915    1.6051 C.3       1 RES1    0.0000
     15 H8        14.0748    1.6716    1.8667 H         1 RES1    0.0000
     16 H9        13.8645    0.0913    1.7215 H         1 RES1    0.0000
     17 C7        12.7232    0.9342    4.0220 C.ar      1 RES1    0.0000
     18 C8        13.6146    1.8799    4.5278 C.ar      1 RES1    0.0000
     19 H10       13.9327    2.5852    3.9450 H         1 RES1    0.0000
     20 C9        14.0449    1.8378    5.8453 C.ar      1 RES1    0.0000
     21 H11       14.7198    2.5530    6.1668 H         1 RES1    0.0000
     22 C10       13.5988    0.8451    6.6811 C.ar      1 RES1    0.0000
     23 H12       13.9000    0.7859    7.6211 H         1 RES1    0.0000
     24 C11       12.7139   -0.0960    6.2032 C.ar      1 RES1    0.0000
     25 H13       12.3346   -0.7934    6.7568 H         1 RES1    0.0000
     26 C12       12.2714   -0.0571    4.8800 C.ar      1 RES1    0.0000
     27 H14       11.6705   -0.7215    4.5493 H         1 RES1    0.0000
     28 O2        10.2997    2.1218    3.2435 O.3       1 RES1    0.0000
     29 O3         6.4482    2.5825    5.2135 O.2       1 RES1    0.0000
     30 O4         7.3886    4.4801    5.3330 O.2       1 RES1    0.0000
     31 N1         7.4253    3.2798    5.1368 N.pl3     1 RES1    0.0000
     32 C13        9.3799    3.1956    3.5206 C.3       1 RES1    0.0000
     33 C14        8.7405    2.6085    4.8156 C.3       1 RES1    0.0000
     34 H15        8.4860    1.7135    4.6246 H         1 RES1    0.0000
     35 C15        9.6585    2.6621    6.0395 C.3       1 RES1    0.0000
     36 H16        9.1340    2.3651    6.8715 H         1 RES1    0.0000
     37 H17       10.3153    2.0012    5.9050 H         1 RES1    0.0000
     38 C16       10.3245    4.0100    6.2539 C.3       1 RES1    0.0000
     39 H18       11.0388    3.9068    6.9450 H         1 RES1    0.0000
     40 H19        9.6546    4.6949    6.5362 H         1 RES1    0.0000
     41 C17       11.0349    4.4767    4.9903 C.3       1 RES1    0.0000
     42 H20       11.7618    3.8660    4.7914 H         1 RES1    0.0000
     43 H21       11.3924    5.3379    5.0981 H         1 RES1    0.0000
     44 C18       10.0820    4.5246    3.7976 C.3       1 RES1    0.0000
     45 H22       10.5535    4.8087    2.9893 H         1 RES1    0.0000
     46 H23        9.4123    5.2263    3.9701 H         1 RES1    0.0000
     47 C19        8.3001    3.2664    2.4346 C.ar      1 RES1    0.0000
     48 C20        7.7732    2.0810    1.9331 C.ar      1 RES1    0.0000
     49 H24        8.1085    1.2443    2.2397 H         1 RES1    0.0000
     50 C21        6.7426    2.0965    1.0006 C.ar      1 RES1    0.0000
     51 H25        6.3748    1.2486    0.6581 H         1 RES1    0.0000
     52 C22        6.2321    3.2942    0.5631 C.ar      1 RES1    0.0000
     53 H26        5.4879    3.2884   -0.0699 H         1 RES1    0.0000
     54 C23        6.7492    4.4641    1.0411 C.ar      1 RES1    0.0000
     55 H27        6.4173    5.3465    0.7513 H         1 RES1    0.0000
     56 C24        7.7851    4.4645    1.9700 C.ar      1 RES1    0.0000
     57 H28        8.1413    5.3315    2.2845 H         1 RES1    0.0000
     58 H29       10.7346   -0.0322    2.6683 H         1 RES1    0.0000
@<TRIPOS>BOND
     1    1    2 1
     2    2    3 1
     3    3    4 1
     4    5    3 1
     5    6    5 1
     6    7    5 1
     7    8    5 1
     8    9    8 1
     9   10    8 1
    10   11    8 1
    11   12   11 1
    12   13   11 1
    13   14    2 1
    14   15   14 1
    15   16   14 1
    16   17    2 1
    17   18   17 ar
    18   19   18 1
    19   20   18 ar
    20   21   20 1
    21   22   20 ar
    22   23   22 1
    23   24   22 ar
    24   25   24 1
    25   26   17 ar
    26   27   26 1
    27   28    3 1
    28   29   31 2
    29   30   31 2
    30   31   33 1
    31   32   28 1
    32   33   32 1
    33   34   33 1
    34   35   33 1
    35   36   35 1
    36   37   35 1
    37   38   35 1
    38   39   38 1
    39   40   38 1
    40   41   38 1
    41   42   41 1
    42   43   41 1
    43   44   32 1
    44   45   44 1
    45   46   44 1
    46   47   32 1
    47   48   47 ar
    48   49   48 1
    49   50   48 ar
    50   51   50 1
    51   52   50 ar
    52   53   52 1
    53   54   52 ar
    54   55   54 1
    55   56   47 ar
    56   57   56 1
    57   58    1 1
    58   11   14 1
    59   24   26 ar
    60   41   44 1
    61   54   56 ar
@<TRIPOS>SUBSTRUCTURE
     1 RES1 1

@<TRIPOS>CRYSIN
  10.9070   10.7360   17.9370  90.0000  91.3600  90.0000 231 1

