# MOL2 file generated by ConQuest
# Please check atom types

@<TRIPOS>MOLECULE
WEGTEJ
    58    61     1
SMALL
NO_CHARGES
****
Generated from CSD

@<TRIPOS>ATOM
      1 O1         0.5715    4.2704    5.0222 O.3       1 RES1    0.0000
      2 O2        -0.0153    3.5114    2.8923 O.3       1 RES1    0.0000
      3 O3         1.8220   -0.5614    2.8589 O.2       1 RES1    0.0000
      4 O4         3.0405    2.9999    4.6830 O.3       1 RES1    0.0000
      5 O5         6.2580   -0.8806    5.1936 O.3       1 RES1    0.0000
      6 O6         4.6435   -2.2043    4.1754 O.3       1 RES1    0.0000
      7 O7         4.5376    2.2702    0.6915 O.3       1 RES1    0.0000
      8 O8         7.5831   -1.3284    0.1507 O.3       1 RES1    0.0000
      9 N1         4.1706    2.2510    4.2429 N.2       1 RES1    0.0000
     10 C1         0.6959    3.2204    4.0901 C.3       1 RES1    0.0000
     11 C2         0.1842    1.9680    4.7773 C.2       1 RES1    0.0000
     12 C3         0.5931    0.7594    4.3548 C.2       1 RES1    0.0000
     13 H1         0.2094   -0.0083    4.7634 H         1 RES1    0.0000
     14 C4         1.5934    0.5489    3.3031 C.2       1 RES1    0.0000
     15 C5         2.3883    1.7618    2.8117 C.3       1 RES1    0.0000
     16 H2         2.2853    1.8884    1.8250 H         1 RES1    0.0000
     17 C6         3.8508    1.5886    3.1973 C.2       1 RES1    0.0000
     18 C7         2.1181    3.0577    3.5690 C.3       1 RES1    0.0000
     19 H3         2.3496    3.8374    2.9867 H         1 RES1    0.0000
     20 C8         4.8447    0.7697    2.4743 C.ar      1 RES1    0.0000
     21 C9         5.1727    1.1510    1.1525 C.ar      1 RES1    0.0000
     22 C10        6.1021    0.4393    0.4112 C.ar      1 RES1    0.0000
     23 H4         6.3129    0.7032   -0.4772 H         1 RES1    0.0000
     24 C11        6.7250   -0.6707    0.9859 C.ar      1 RES1    0.0000
     25 C12        6.4374   -1.0624    2.2873 C.ar      1 RES1    0.0000
     26 H5         6.8802   -1.8090    2.6743 H         1 RES1    0.0000
     27 C13        5.4879   -0.3442    3.0205 C.ar      1 RES1    0.0000
     28 C14        5.1144   -0.8847    4.3730 C.3       1 RES1    0.0000
     29 H6         4.3960   -0.3214    4.7819 H         1 RES1    0.0000
     30 C15        5.9610   -1.4050    6.4952 C.3       1 RES1    0.0000
     31 H7         5.3046   -0.8167    6.9463 H         1 RES1    0.0000
     32 H8         6.7857   -1.4208    7.0414 H         1 RES1    0.0000
     33 C16        5.3964   -2.8077    6.3927 C.3       1 RES1    0.0000
     34 H9         6.0958   -3.4315    6.0743 H         1 RES1    0.0000
     35 H10        5.0866   -3.1135    7.2814 H         1 RES1    0.0000
     36 C17        4.2372   -2.7917    5.4195 C.3       1 RES1    0.0000
     37 H11        3.9226   -3.7172    5.2633 H         1 RES1    0.0000
     38 H12        3.4877   -2.2722    5.8030 H         1 RES1    0.0000
     39 C18        1.0717    5.5483    4.6075 C.3       1 RES1    0.0000
     40 H13        2.0147    5.6281    4.8614 H         1 RES1    0.0000
     41 H14        0.5546    6.2583    5.0432 H         1 RES1    0.0000
     42 H15        0.9863    5.6328    3.6343 H         1 RES1    0.0000
     43 C19       -1.4381    3.5832    3.0047 C.3       1 RES1    0.0000
     44 H16       -1.8231    2.6947    2.8532 H         1 RES1    0.0000
     45 H17       -1.7878    4.2085    2.3363 H         1 RES1    0.0000
     46 H18       -1.6800    3.8952    3.9013 H         1 RES1    0.0000
     47 C20       -0.7954    2.1197    5.9176 C.3       1 RES1    0.0000
     48 H19       -0.3043    2.1868    6.7631 H         1 RES1    0.0000
     49 H20       -1.3885    1.3404    5.9450 H         1 RES1    0.0000
     50 H21       -1.3280    2.9318    5.7845 H         1 RES1    0.0000
     51 C21        4.8196    2.6791   -0.6505 C.3       1 RES1    0.0000
     52 H22        5.5812    3.2958   -0.6505 H         1 RES1    0.0000
     53 H23        4.0351    3.1288   -1.0268 H         1 RES1    0.0000
     54 H24        5.0369    1.8920   -1.1930 H         1 RES1    0.0000
     55 C22        8.2052   -2.5057    0.6331 C.3       1 RES1    0.0000
     56 H25        9.0489   -2.2726    1.0723 H         1 RES1    0.0000
     57 H26        8.3839   -3.1110   -0.1165 H         1 RES1    0.0000
     58 H27        7.6128   -2.9481    1.2768 H         1 RES1    0.0000
@<TRIPOS>BOND
     1    1   10 1
     2    2   10 1
     3    3   14 2
     4    4    9 1
     5    5   28 1
     6    6   28 1
     7    7   21 1
     8    8   24 1
     9    9   17 2
    10   10   11 1
    11   11   12 2
    12   12   13 1
    13   14   12 1
    14   15   14 1
    15   16   15 1
    16   17   15 1
    17   18    4 1
    18   19   18 1
    19   20   17 1
    20   21   20 ar
    21   22   21 ar
    22   23   22 1
    23   24   22 ar
    24   25   24 ar
    25   26   25 1
    26   27   20 ar
    27   28   27 1
    28   29   28 1
    29   30    5 1
    30   31   30 1
    31   32   30 1
    32   33   30 1
    33   34   33 1
    34   35   33 1
    35   36    6 1
    36   37   36 1
    37   38   36 1
    38   39    1 1
    39   40   39 1
    40   41   39 1
    41   42   39 1
    42   43    2 1
    43   44   43 1
    44   45   43 1
    45   46   43 1
    46   47   11 1
    47   48   47 1
    48   49   47 1
    49   50   47 1
    50   51    7 1
    51   52   51 1
    52   53   51 1
    53   54   51 1
    54   55    8 1
    55   56   55 1
    56   57   55 1
    57   58   55 1
    58   10   18 1
    59   15   18 1
    60   25   27 ar
    61   33   36 1
@<TRIPOS>SUBSTRUCTURE
     1 RES1 1

@<TRIPOS>CRYSIN
   8.5490    8.8110   14.2260  88.0440  87.1800  85.6510   2 1

