# MOL2 file generated by ConQuest
# Please check atom types

@<TRIPOS>MOLECULE
WEGTIN
    58    61     1
SMALL
NO_CHARGES
****
Generated from CSD

@<TRIPOS>ATOM
      1 O1         5.7424   -2.4418   11.5070 O.3       1 RES1    0.0000
      2 O2         8.3820   -3.8815   11.3931 O.2       1 RES1    0.0000
      3 O3         8.2120    1.2733   10.3259 O.3       1 RES1    0.0000
      4 O4         9.3634   -0.2347   11.6985 O.3       1 RES1    0.0000
      5 O5         3.6950   -0.6681    7.7005 O.3       1 RES1    0.0000
      6 O6         5.5523    0.4736    6.8924 O.3       1 RES1    0.0000
      7 O7         3.2619    4.3029    8.8167 O.3       1 RES1    0.0000
      8 O8         5.3373    1.8693   12.4701 O.3       1 RES1    0.0000
      9 N1         5.0365   -1.3874   10.8872 N.2       1 RES1    0.0000
     10 C1         7.0752   -1.9766   11.8837 C.3       1 RES1    0.0000
     11 H1         7.2521   -2.1597   12.8510 H         1 RES1    0.0000
     12 C2         7.9978   -2.7925   11.0097 C.2       1 RES1    0.0000
     13 C3         8.3200   -2.2282    9.7054 C.2       1 RES1    0.0000
     14 H2         8.4367   -2.8076    8.9613 H         1 RES1    0.0000
     15 C4         8.4526   -0.9209    9.5418 C.2       1 RES1    0.0000
     16 C5         8.2927   -0.0455   10.7837 C.3       1 RES1    0.0000
     17 C6         7.0662   -0.4695   11.6132 C.3       1 RES1    0.0000
     18 H3         7.0568    0.0282   12.4802 H         1 RES1    0.0000
     19 C7         5.7248   -0.3148   10.9206 C.2       1 RES1    0.0000
     20 C8         5.1382    0.9176   10.3459 C.ar      1 RES1    0.0000
     21 C9         4.7046    1.0010    9.0173 C.ar      1 RES1    0.0000
     22 C10        4.0694    2.1409    8.5550 C.ar      1 RES1    0.0000
     23 H4         3.7623    2.1756    7.6567 H         1 RES1    0.0000
     24 C11        3.8778    3.2272    9.3834 C.ar      1 RES1    0.0000
     25 C12        4.3206    3.1840   10.7077 C.ar      1 RES1    0.0000
     26 H5         4.2047    3.9334   11.2797 H         1 RES1    0.0000
     27 C13        4.9304    2.0316   11.1730 C.ar      1 RES1    0.0000
     28 C14        8.8352   -0.2808    8.2426 C.3       1 RES1    0.0000
     29 H6         9.7119    0.1465    8.3344 H         1 RES1    0.0000
     30 H7         8.1661    0.3934    8.0009 H         1 RES1    0.0000
     31 H8         8.8774   -0.9643    7.5420 H         1 RES1    0.0000
     32 C15        4.9370   -0.1069    8.0228 C.3       1 RES1    0.0000
     33 H9         5.5352   -0.8038    8.4197 H         1 RES1    0.0000
     34 C16        3.8564   -1.7324    6.7459 C.3       1 RES1    0.0000
     35 H10        2.9689   -2.0958    6.5016 H         1 RES1    0.0000
     36 H11        4.3883   -2.4629    7.1498 H         1 RES1    0.0000
     37 C17        4.5543   -1.2179    5.5094 C.3       1 RES1    0.0000
     38 H12        4.7569   -1.9728    4.9008 H         1 RES1    0.0000
     39 H13        3.9649   -0.5840    5.0316 H         1 RES1    0.0000
     40 C18        5.8181   -0.5343    5.9016 C.3       1 RES1    0.0000
     41 H14        6.4554   -1.1981    6.2668 H         1 RES1    0.0000
     42 H15        6.2305   -0.1155    5.1036 H         1 RES1    0.0000
     43 C19        8.3308    2.3070   11.3037 C.3       1 RES1    0.0000
     44 H16        9.2766    2.5287   11.4317 H         1 RES1    0.0000
     45 H17        7.9495    1.9991   12.1521 H         1 RES1    0.0000
     46 H18        7.8474    3.1024   10.9996 H         1 RES1    0.0000
     47 C20       10.6781   -0.0319   11.1532 C.3       1 RES1    0.0000
     48 H19       10.7065    0.8254   10.6794 H         1 RES1    0.0000
     49 H20       10.8891   -0.7578   10.5300 H         1 RES1    0.0000
     50 H21       11.3359   -0.0244   11.8799 H         1 RES1    0.0000
     51 C21        3.0034    5.4311    9.6416 C.3       1 RES1    0.0000
     52 H22        2.4445    5.1606   10.3993 H         1 RES1    0.0000
     53 H23        2.5377    6.1175    9.1187 H         1 RES1    0.0000
     54 H24        3.8510    5.7935    9.9751 H         1 RES1    0.0000
     55 C22        5.3264    3.0169   13.3233 C.3       1 RES1    0.0000
     56 H25        5.8488    3.7362   12.9097 H         1 RES1    0.0000
     57 H26        5.7213    2.7831   14.1903 H         1 RES1    0.0000
     58 H27        4.4037    3.3174   13.4540 H         1 RES1    0.0000
@<TRIPOS>BOND
     1    1    9 1
     2    2   12 2
     3    3   16 1
     4    4   16 1
     5    5   32 1
     6    6   32 1
     7    7   24 1
     8    8   27 1
     9    9   19 2
    10   10    1 1
    11   11   10 1
    12   12   10 1
    13   13   12 1
    14   14   13 1
    15   15   13 2
    16   16   15 1
    17   17   10 1
    18   18   17 1
    19   19   17 1
    20   20   19 1
    21   21   20 ar
    22   22   21 ar
    23   23   22 1
    24   24   22 ar
    25   25   24 ar
    26   26   25 1
    27   27   20 ar
    28   28   15 1
    29   29   28 1
    30   30   28 1
    31   31   28 1
    32   32   21 1
    33   33   32 1
    34   34    5 1
    35   35   34 1
    36   36   34 1
    37   37   34 1
    38   38   37 1
    39   39   37 1
    40   40    6 1
    41   41   40 1
    42   42   40 1
    43   43    3 1
    44   44   43 1
    45   45   43 1
    46   46   43 1
    47   47    4 1
    48   48   47 1
    49   49   47 1
    50   50   47 1
    51   51    7 1
    52   52   51 1
    53   53   51 1
    54   54   51 1
    55   55    8 1
    56   56   55 1
    57   57   55 1
    58   58   55 1
    59   16   17 1
    60   25   27 ar
    61   37   40 1
@<TRIPOS>SUBSTRUCTURE
     1 RES1 1

@<TRIPOS>CRYSIN
   8.5986    9.3898   26.6810  90.0000  90.7820  90.0000 231 1

