# MOL2 file generated by ConQuest
# Please check atom types

@<TRIPOS>MOLECULE
WEGVEL
    53    56     1
SMALL
NO_CHARGES
****
Generated from CSD

@<TRIPOS>ATOM
      1 O1         4.0124    1.2101    4.2603 O.3       1 RES1    0.0000
      2 O2         4.7703    0.3874    6.9777 O.3       1 RES1    0.0000
      3 O3         3.0661   -0.8125    6.1137 O.3       1 RES1    0.0000
      4 O4         0.8599    3.8318    6.3095 O.2       1 RES1    0.0000
      5 O5         0.3744    2.6083    2.8640 O.3       1 RES1    0.0000
      6 O6         2.5924    7.6376    2.5175 O.3       1 RES1    0.0000
      7 O7         4.1538    5.1135    5.0557 O.3       1 RES1    0.0000
      8 O8         4.9865    5.1262    2.8825 O.3       1 RES1    0.0000
      9 N1         3.6591    2.2571    3.3409 N.2       1 RES1    0.0000
     10 C1         3.2836    1.3785    5.3653 C.2       1 RES1    0.0000
     11 C2         3.4248    0.4672    6.5505 C.3       1 RES1    0.0000
     12 C3         2.5284    0.9748    7.6627 C.2       1 RES1    0.0000
     13 H1         2.5389    0.5004    8.4862 H         1 RES1    0.0000
     14 C4         1.7266    2.0348    7.5724 C.2       1 RES1    0.0000
     15 H2         1.2005    2.2637    8.3294 H         1 RES1    0.0000
     16 C5         1.6093    2.8764    6.3598 C.2       1 RES1    0.0000
     17 C6         2.4807    2.4535    5.2619 C.2       1 RES1    0.0000
     18 C7         2.7580    2.9775    3.9644 C.2       1 RES1    0.0000
     19 C8         2.1001    4.1261    3.2914 C.ar      1 RES1    0.0000
     20 C9         0.8348    3.8876    2.7402 C.ar      1 RES1    0.0000
     21 C10        0.1508    4.9165    2.1066 C.ar      1 RES1    0.0000
     22 H3        -0.7057    4.7572    1.7286 H         1 RES1    0.0000
     23 C11        0.7220    6.1776    2.0267 C.ar      1 RES1    0.0000
     24 H4         0.2522    6.8800    1.5931 H         1 RES1    0.0000
     25 C12        1.9723    6.4233    2.5745 C.ar      1 RES1    0.0000
     26 C13        2.6738    5.3926    3.2189 C.ar      1 RES1    0.0000
     27 C14        5.2866    1.5697    7.5770 C.3       1 RES1    0.0000
     28 H5         5.6886    2.1367    6.8871 H         1 RES1    0.0000
     29 H6         5.9679    1.3287    8.2395 H         1 RES1    0.0000
     30 H7         4.5590    2.0561    8.0187 H         1 RES1    0.0000
     31 C15        2.9405   -1.8041    7.1399 C.3       1 RES1    0.0000
     32 H8         3.8050   -2.2433    7.2770 H         1 RES1    0.0000
     33 H9         2.2735   -2.4703    6.8703 H         1 RES1    0.0000
     34 H10        2.6560   -1.3760    7.9745 H         1 RES1    0.0000
     35 C16       -0.8509    2.2887    2.2099 C.3       1 RES1    0.0000
     36 H11       -1.5991    2.4509    2.8206 H         1 RES1    0.0000
     37 H12       -0.8427    1.3454    1.9449 H         1 RES1    0.0000
     38 H13       -0.9518    2.8511    1.4134 H         1 RES1    0.0000
     39 C17        1.8234    8.7490    2.0683 C.3       1 RES1    0.0000
     40 H14        1.9056    8.8296    1.0950 H         1 RES1    0.0000
     41 H15        2.1534    9.5681    2.4932 H         1 RES1    0.0000
     42 H16        0.8836    8.6127    2.3074 H         1 RES1    0.0000
     43 C18        4.0415    5.6807    3.7713 C.3       1 RES1    0.0000
     44 H17        4.1780    6.6697    3.8289 H         1 RES1    0.0000
     45 C19        5.4325    5.4308    5.6149 C.3       1 RES1    0.0000
     46 H18        5.5079    5.0379    6.5200 H         1 RES1    0.0000
     47 H19        5.5276    6.4130    5.6961 H         1 RES1    0.0000
     48 C20        6.5342    4.8804    4.7217 C.3       1 RES1    0.0000
     49 H20        7.4178    5.1778    5.0549 H         1 RES1    0.0000
     50 H21        6.5143    3.8908    4.7320 H         1 RES1    0.0000
     51 C21        6.3195    5.3817    3.3218 C.3       1 RES1    0.0000
     52 H22        6.4959    6.3555    3.2897 H         1 RES1    0.0000
     53 H23        6.9581    4.9351    2.7110 H         1 RES1    0.0000
@<TRIPOS>BOND
     1    1    9 1
     2    2   11 1
     3    3   11 1
     4    4   16 2
     5    5   20 1
     6    6   25 1
     7    7   43 1
     8    8   43 1
     9    9   18 2
    10   10    1 1
    11   11   10 1
    12   12   11 1
    13   13   12 1
    14   14   12 2
    15   15   14 1
    16   16   14 1
    17   17   10 2
    18   18   17 1
    19   19   18 1
    20   20   19 ar
    21   21   20 ar
    22   22   21 1
    23   23   21 ar
    24   24   23 1
    25   25   23 ar
    26   26   19 ar
    27   27    2 1
    28   28   27 1
    29   29   27 1
    30   30   27 1
    31   31    3 1
    32   32   31 1
    33   33   31 1
    34   34   31 1
    35   35    5 1
    36   36   35 1
    37   37   35 1
    38   38   35 1
    39   39    6 1
    40   40   39 1
    41   41   39 1
    42   42   39 1
    43   43   26 1
    44   44   43 1
    45   45    7 1
    46   46   45 1
    47   47   45 1
    48   48   45 1
    49   49   48 1
    50   50   48 1
    51   51    8 1
    52   52   51 1
    53   53   51 1
    54   16   17 1
    55   25   26 ar
    56   48   51 1
@<TRIPOS>SUBSTRUCTURE
     1 RES1 1

@<TRIPOS>CRYSIN
  14.4670    9.2660   15.3370  90.0000  96.7670  90.0000  14 1

