# MOL2 file generated by ConQuest
# Please check atom types

@<TRIPOS>MOLECULE
WEGVIP
    34    35     1
SMALL
USER_CHARGES
****
Generated from CSD

@<TRIPOS>ATOM
      1 O1        -0.2568    1.5977    6.7013 O.3       1 RES1    0.0000
      2 O2         2.4406   -1.4918    5.6649 O.2       1 RES1   -1.0000
      3 O3         1.0299    0.9157    1.7756 O.3       1 RES1    0.0000
      4 O4         2.3645    2.8023    1.4644 O.3       1 RES1    0.0000
      5 O5        -0.7389    5.6041    4.1844 O.3       1 RES1    0.0000
      6 N1         1.9082   -0.4380    5.2919 N.1       1 RES1    1.0000
      7 C1        -0.0060    2.3854    5.6181 C.ar      1 RES1    0.0000
      8 C2         0.8457    1.8071    4.6491 C.ar      1 RES1    0.0000
      9 C3         1.1354    2.5190    3.4846 C.ar      1 RES1    0.0000
     10 C4         0.6493    3.8108    3.3080 C.ar      1 RES1    0.0000
     11 H1         0.8802    4.3082    2.5322 H         1 RES1    0.0000
     12 C5        -0.1801    4.3685    4.2813 C.ar      1 RES1    0.0000
     13 C6        -0.5209    3.6551    5.4326 C.ar      1 RES1    0.0000
     14 H2        -1.0999    4.0384    6.0810 H         1 RES1    0.0000
     15 C7         1.4155    0.5228    4.9188 C.1       1 RES1    0.0000
     16 C8         1.9173    1.8395    2.3834 C.3       1 RES1    0.0000
     17 H3         2.6994    1.3528    2.7728 H         1 RES1    0.0000
     18 C9         1.7148    0.1822    0.7393 C.3       1 RES1    0.0000
     19 H4         1.0872   -0.4516    0.3098 H         1 RES1    0.0000
     20 H5         2.4573   -0.3387    1.1349 H         1 RES1    0.0000
     21 C10        2.2615    1.1406   -0.2983 C.3       1 RES1    0.0000
     22 H6         2.8065    0.6459   -0.9601 H         1 RES1    0.0000
     23 H7         1.5155    1.5814   -0.7769 H         1 RES1    0.0000
     24 C11        3.1135    2.1804    0.3989 C.3       1 RES1    0.0000
     25 H8         3.9249    1.7516    0.7694 H         1 RES1    0.0000
     26 H9         3.3983    2.8685   -0.2531 H         1 RES1    0.0000
     27 C12       -1.0449    2.1553    7.7584 C.3       1 RES1    0.0000
     28 H10       -1.9294    2.3981    7.4133 H         1 RES1    0.0000
     29 H11       -0.6007    2.9550    8.1102 H         1 RES1    0.0000
     30 H12       -1.1440    1.4947    8.4749 H         1 RES1    0.0000
     31 C13       -0.3943    6.3926    3.0403 C.3       1 RES1    0.0000
     32 H13        0.5759    6.5284    3.0176 H         1 RES1    0.0000
     33 H14       -0.8448    7.2614    3.0942 H         1 RES1    0.0000
     34 H15       -0.6778    5.9280    2.2257 H         1 RES1    0.0000
@<TRIPOS>BOND
     1    1    7 1
     2    2    6 1
     3    3   16 1
     4    4   16 1
     5    5   12 1
     6    6   15 3
     7    7    8 ar
     8    8    9 ar
     9    9   10 ar
    10   10   11 1
    11   12   10 ar
    12   13    7 ar
    13   14   13 1
    14   15    8 1
    15   16    9 1
    16   17   16 1
    17   18    3 1
    18   19   18 1
    19   20   18 1
    20   21   18 1
    21   22   21 1
    22   23   21 1
    23   24    4 1
    24   25   24 1
    25   26   24 1
    26   27    1 1
    27   28   27 1
    28   29   27 1
    29   30   27 1
    30   31    5 1
    31   32   31 1
    32   33   31 1
    33   34   31 1
    34   12   13 ar
    35   21   24 1
@<TRIPOS>SUBSTRUCTURE
     1 RES1 1

@<TRIPOS>CRYSIN
   8.4243    8.6769    9.1730 108.9680 103.8160  94.5190   2 1

