# MOL2 file generated by ConQuest
# Please check atom types

@<TRIPOS>MOLECULE
WEGVOV
    34    35     1
SMALL
USER_CHARGES
****
Generated from CSD

@<TRIPOS>ATOM
      1 O1        -0.8563    2.0539   11.6430 O.3       1 RES1    0.0000
      2 O2         2.0803    0.2196   13.7713 O.2       1 RES1   -1.0000
      3 O3         2.8368   -0.8131    9.7660 O.3       1 RES1    0.0000
      4 O4         3.8720    1.2360    9.4424 O.3       1 RES1    0.0000
      5 O5         1.6432    1.3833    6.7638 O.3       1 RES1    0.0000
      6 N1         1.7342    0.5253   12.6235 N.1       1 RES1    1.0000
      7 C1        -0.3482    1.9113   10.3845 C.ar      1 RES1    0.0000
      8 C2         0.8942    1.2448   10.3104 C.ar      1 RES1    0.0000
      9 C3         1.5429    1.0588    9.0828 C.ar      1 RES1    0.0000
     10 C4         0.9365    1.5581    7.9251 C.ar      1 RES1    0.0000
     11 C5        -0.3029    2.1809    7.9977 C.ar      1 RES1    0.0000
     12 H1        -0.7197    2.4910    7.2018 H         1 RES1    0.0000
     13 C6        -0.9411    2.3559    9.2190 C.ar      1 RES1    0.0000
     14 H2        -1.7895    2.7826    9.2532 H         1 RES1    0.0000
     15 C7         1.4628    0.7942   11.5480 C.1       1 RES1    0.0000
     16 C8         2.8736    0.3588    8.9868 C.3       1 RES1    0.0000
     17 H3         3.0539    0.1174    8.0337 H         1 RES1    0.0000
     18 C9         4.0748   -1.5361    9.6395 C.3       1 RES1    0.0000
     19 H4         4.1955   -1.8244    8.7002 H         1 RES1    0.0000
     20 H5         4.0453   -2.3458   10.2083 H         1 RES1    0.0000
     21 C10        5.2217   -0.6810   10.0502 C.3       1 RES1    0.0000
     22 H6         6.0738   -1.1469    9.8597 H         1 RES1    0.0000
     23 H7         5.1765   -0.5033   11.0224 H         1 RES1    0.0000
     24 C11        5.1695    0.6194    9.2908 C.3       1 RES1    0.0000
     25 H8         5.8701    1.2316    9.6310 H         1 RES1    0.0000
     26 H9         5.3476    0.4513    8.3321 H         1 RES1    0.0000
     27 C12       -2.1025    2.7456   11.7625 C.3       1 RES1    0.0000
     28 H10       -2.0207    3.6379   11.3646 H         1 RES1    0.0000
     29 H11       -2.3394    2.8310   12.7089 H         1 RES1    0.0000
     30 H12       -2.8018    2.2430   11.2949 H         1 RES1    0.0000
     31 C13        1.1108    1.9389    5.5745 C.3       1 RES1    0.0000
     32 H13        0.1972    1.6091    5.4407 H         1 RES1    0.0000
     33 H14        1.6680    1.6756    4.8131 H         1 RES1    0.0000
     34 H15        1.0972    2.9157    5.6482 H         1 RES1    0.0000
@<TRIPOS>BOND
     1    1    7 1
     2    2    6 1
     3    3   16 1
     4    4   16 1
     5    5   10 1
     6    6   15 3
     7    7    8 ar
     8    8    9 ar
     9    9   10 ar
    10   10   11 ar
    11   11   12 1
    12   13    7 ar
    13   14   13 1
    14   15    8 1
    15   16    9 1
    16   17   16 1
    17   18    3 1
    18   19   18 1
    19   20   18 1
    20   21   18 1
    21   22   21 1
    22   23   21 1
    23   24    4 1
    24   25   24 1
    25   26   24 1
    26   27    1 1
    27   28   27 1
    28   29   27 1
    29   30   27 1
    30   31    5 1
    31   32   31 1
    32   33   31 1
    33   34   31 1
    34   11   13 ar
    35   21   24 1
@<TRIPOS>SUBSTRUCTURE
     1 RES1 1

@<TRIPOS>CRYSIN
  13.0620   12.0982   16.2166  90.0000  90.0000  90.0000  61 1

