# MOL2 file generated by ConQuest
# Please check atom types

@<TRIPOS>MOLECULE
WEGXUD
   208   150     3
SMALL
NO_CHARGES
****
Generated from CSD

@<TRIPOS>ATOM
      1 C1        -3.3763    2.5638    6.8631 C.2       1 RES1    0.0000
      2 C2        -3.8265    1.3944    7.6584 C.ar      1 RES1    0.0000
      3 C3        -4.7419    1.5529    8.6981 C.ar      1 RES1    0.0000
      4 H1        -5.0880    2.4138    8.9004 H         1 RES1    0.0000
      5 C4        -5.1508    0.4507    9.4353 C.ar      1 RES1    0.0000
      6 H2        -5.7808    0.5517   10.1404 H         1 RES1    0.0000
      7 C5        -4.6342   -0.7914    9.1388 C.ar      1 RES1    0.0000
      8 C6        -3.7375   -0.9738    8.1251 C.ar      1 RES1    0.0000
      9 H3        -3.3955   -1.8388    7.9308 H         1 RES1    0.0000
     10 C7        -3.3391    0.1233    7.3900 C.ar      1 RES1    0.0000
     11 H4        -2.7135    0.0058    6.6848 H         1 RES1    0.0000
     12 C8        -4.2523    5.9352    6.4104 C.ar      1 RES1    0.0000
     13 C9        -5.3443    6.1169    7.2878 C.ar      1 RES1    0.0000
     14 H5        -5.6981    5.3687    7.7525 H         1 RES1    0.0000
     15 C10       -5.9003    7.3480    7.4781 C.ar      1 RES1    0.0000
     16 H6        -6.6438    7.4476    8.0610 H         1 RES1    0.0000
     17 C11       -5.3779    8.4639    6.8130 C.ar      1 RES1    0.0000
     18 C12       -4.3091    8.3532    5.9697 C.ar      1 RES1    0.0000
     19 H7        -3.9617    9.1171    5.5249 H         1 RES1    0.0000
     20 C13       -3.7438    7.1019    5.7773 C.ar      1 RES1    0.0000
     21 C14       -2.2715    2.3872    5.8615 C.3       1 RES1    0.0000
     22 H8        -1.6615    1.6663    6.1560 H         1 RES1    0.0000
     23 H9        -1.7507    3.2252    5.7813 H         1 RES1    0.0000
     24 C15       -2.8960    2.0221    4.4933 C.3       1 RES1    0.0000
     25 H10       -3.5504    1.2936    4.6315 H         1 RES1    0.0000
     26 H11       -3.3930    2.8097    4.1547 H         1 RES1    0.0000
     27 C16       -1.9655    1.6116    3.4936 C.2       1 RES1    0.0000
     28 C17       -0.8588    0.8107    3.4436 C.2       1 RES1    0.0000
     29 C18        0.5497    0.9390    4.0385 C.3       1 RES1    0.0000
     30 H12        0.7221    0.2248    4.6996 H         1 RES1    0.0000
     31 H13        0.6729    1.8197    4.4732 H         1 RES1    0.0000
     32 C19        1.4753    0.7954    2.8186 C.3       1 RES1    0.0000
     33 C20        0.4755    0.4364    1.7068 C.3       1 RES1    0.0000
     34 H14        0.6016    1.0912    0.9756 Du        3 SUP3    0.0000
     35 H15        0.7394   -0.4486    1.3482 H         1 RES1    0.0000
     36 C21       -1.0166    0.3759    2.0092 C.3       1 RES1    0.0000
     37 H16       -1.3210   -0.5773    1.9832 H         1 RES1    0.0000
     38 C22       -2.2540    1.3069    2.0173 C.3       1 RES1    0.0000
     39 C23       -3.2139    0.2231    1.7048 C.3       1 RES1    0.0000
     40 H17       -4.1259    0.5840    1.7028 H         1 RES1    0.0000
     41 H18       -3.1426   -0.4829    2.3819 H         1 RES1    0.0000
     42 H19       -3.0101   -0.1502    0.8213 H         1 RES1    0.0000
     43 C24       -2.5685    2.5639    1.2240 C.3       1 RES1    0.0000
     44 H20       -2.5194    2.3665    0.2644 H         1 RES1    0.0000
     45 H21       -1.9179    3.2626    1.4463 H         1 RES1    0.0000
     46 H22       -3.4708    2.8750    1.4483 H         1 RES1    0.0000
     47 C25        2.4226    1.9859    2.5982 Du        3 SUP3    0.0000
     48 C26        3.8189    2.9056    0.9135 Du        3 SUP3    0.0000
     49 H23        3.3210    3.7256    0.7132 Du        3 SUP3    0.0000
     50 H24        4.3119    2.6203    0.1162 Du        3 SUP3    0.0000
     51 H25        4.4510    3.0780    1.6427 Du        3 SUP3    0.0000
     52 C27        2.2678   -0.5235    2.8506 Du        3 SUP3    0.0000
     53 C28        4.2917   -1.4254    3.5958 Du        3 SUP3    0.0000
     54 H26        3.8369   -2.2843    3.7220 Du        3 SUP3    0.0000
     55 H27        4.9258   -1.2824    4.3310 Du        3 SUP3    0.0000
     56 H28        4.7760   -1.4340    2.7444 Du        3 SUP3    0.0000
     57 O1         2.3899    3.0035    3.1972 Du        3 SUP3    0.0000
     58 O2         2.8936    1.8603    1.3101 Du        3 SUP3    0.0000
     59 O3         2.0310   -1.5143    2.1234 Du        3 SUP3    0.0000
     60 O4         3.3101   -0.3539    3.5858 Du        3 SUP3    0.0000
     61 C29       -0.6441    1.6103    3.3694 Du        3 SUP3    0.0000
     62 C30        0.7551    1.3771    3.9504 Du        3 SUP3    0.0000
     63 H29        1.1240    2.1839    4.3891 Du        3 SUP3    0.0000
     64 H30        0.7839    0.6085    4.5734 Du        3 SUP3    0.0000
     65 C31        1.4329    1.0742    2.6162 Du        3 SUP3    0.0000
     66 C32        0.6327    1.4394    1.3502 Du        3 SUP3    0.0000
     67 H31        0.7495    2.3877    1.0878 Du        3 SUP3    0.0000
     68 H32        0.8437    0.8479    0.5849 H         1 RES1    0.0000
     69 C33       -0.7292    1.1655    1.9331 Du        3 SUP3    0.0000
     70 H33       -0.6521    0.1779    2.0653 Du        3 SUP3    0.0000
     71 C34        2.4171    2.2435    2.4820 C.2       1 RES1    0.0000
     72 C35        4.3744    2.8785    1.2981 C.3       1 RES1    0.0000
     73 H34        3.9682    3.6961    0.9395 H         1 RES1    0.0000
     74 H35        5.0230    2.5274    0.6531 H         1 RES1    0.0000
     75 H36        4.8292    3.0832    2.1415 H         1 RES1    0.0000
     76 C36        2.1758   -0.2642    2.4720 C.2       1 RES1    0.0000
     77 C37        3.9312   -1.6005    3.2452 C.3       1 RES1    0.0000
     78 H37        3.3399   -2.3779    3.3354 H         1 RES1    0.0000
     79 H38        4.5909   -1.6057    3.9684 H         1 RES1    0.0000
     80 H39        4.3919   -1.6404    2.3819 H         1 RES1    0.0000
     81 O5         2.5305    3.1564    3.2172 O.2       1 RES1    0.0000
     82 O6         3.3389    1.8868    1.5345 O.3       1 RES1    0.0000
     83 O7         1.8849   -1.0762    1.5665 O.2       1 RES1    0.0000
     84 O8         3.1403   -0.3798    3.3174 O.3       1 RES1    0.0000
     85 C38        2.4148    1.6769    1.8550 Du        3 SUP3    0.0000
     86 C39        3.8500    3.2465    1.4043 Du        3 SUP3    0.0000
     87 H40        4.0475    2.6391    0.6551 Du        3 SUP3    0.0000
     88 H41        4.6639    3.7268    1.6547 Du        3 SUP3    0.0000
     89 H42        3.1588    3.8813    1.1338 Du        3 SUP3    0.0000
     90 C40        2.3782   -0.3685    3.4456 Du        3 SUP3    0.0000
     91 C41        4.2570   -1.6330    2.6703 Du        3 SUP3    0.0000
     92 H43        4.7037   -1.4850    3.5317 Du        3 SUP3    0.0000
     93 H44        4.9347   -1.6881    1.9612 Du        3 SUP3    0.0000
     94 H45        3.7485   -2.4641    2.7044 Du        3 SUP3    0.0000
     95 O9         2.3814    1.8538    0.6571 Du        3 SUP3    0.0000
     96 O10        3.3891    2.4783    2.5201 Du        3 SUP3    0.0000
     97 O11        2.2015   -0.9958    4.2509 Du        3 SUP3    0.0000
     98 O12        3.3701   -0.5293    2.3979 Du        3 SUP3    0.0000
     99 N1        -4.0676    3.6455    7.0093 N.2       1 RES1    0.0000
    100 N2        -3.6896    4.7212    6.2369 N.pl3     1 RES1    0.0000
    101 H46       -3.0722    4.6142    5.6191 H         1 RES1    0.0000
    102 N3        -5.0148   -1.9717    9.9521 N.pl3     1 RES1    0.0000
    103 N4        -5.9858    9.7690    7.0254 N.pl3     1 RES1    0.0000
    104 N5        -2.5642    7.0575    4.9300 N.pl3     1 RES1    0.0000
    105 O13       -4.5704   -3.0592    9.6376 O.2       1 RES1    0.0000
    106 O14       -5.7284   -1.7643   10.9157 O.2       1 RES1    0.0000
    107 O15       -6.9330    9.8534    7.7946 O.2       1 RES1    0.0000
    108 O16       -5.5105   10.7473    6.4324 O.2       1 RES1    0.0000
    109 O17       -2.0027    8.1077    4.6615 O.2       1 RES1    0.0000
    110 O18       -2.1444    5.9555    4.5335 O.2       1 RES1    0.0000
    111 C42        9.2540    6.2323   12.9289 C.2       2 RES2    0.0000
    112 C43       10.4779    5.8450   12.1737 C.ar      2 RES2    0.0000
    113 C44       10.9402    4.5369   12.1276 C.ar      2 RES2    0.0000
    114 H47       10.4927    3.8625   12.6224 H         2 RES2    0.0000
    115 C45       12.0620    4.2035   11.3564 C.ar      2 RES2    0.0000
    116 H48       12.3716    3.3072   11.3083 H         2 RES2    0.0000
    117 C46       12.7040    5.2108   10.6733 C.ar      2 RES2    0.0000
    118 C47       12.2778    6.5197   10.7013 C.ar      2 RES2    0.0000
    119 H49       12.7367    7.1878   10.2045 H         2 RES2    0.0000
    120 C48       11.1729    6.8472   11.4605 C.ar      2 RES2    0.0000
    121 H50       10.8789    7.7488   11.5046 H         2 RES2    0.0000
    122 C49        7.3417    9.1511   13.2354 C.ar      2 RES2    0.0000
    123 C50        8.0516   10.0040   12.3820 C.ar      2 RES2    0.0000
    124 H51        8.8186    9.6717   11.9293 H         2 RES2    0.0000
    125 C51        7.6769   11.2928   12.1837 C.ar      2 RES2    0.0000
    126 H52        8.1563   11.8410   11.5747 H         2 RES2    0.0000
    127 C52        6.6001   11.8024   12.8708 C.ar      2 RES2    0.0000
    128 C53        5.8901   11.0635   13.7322 C.ar      2 RES2    0.0000
    129 H53        5.1632   11.4456   14.2110 H         2 RES2    0.0000
    130 C54        6.2412    9.6976   13.9205 C.ar      2 RES2    0.0000
    131 C55        8.3614    5.1482   13.5633 C.3       2 RES2    0.0000
    132 H54        8.6323    4.2529   13.2394 H         2 RES2    0.0000
    133 H55        7.4158    5.2982   13.3115 H         2 RES2    0.0000
    134 C56        8.5176    5.2245   15.0964 C.3       2 RES2    0.0000
    135 H56        9.4482    5.0068   15.3568 H         2 RES2    0.0000
    136 H57        8.3079    6.1377   15.4169 H         2 RES2    0.0000
    137 C57        7.5396    4.2047   15.7114 C.2       2 RES2    0.0000
    138 C58        6.4074    4.3123   16.3464 C.2       2 RES2    0.0000
    139 C59        5.5084    5.2314   17.1497 C.3       2 RES2    0.0000
    140 H58        4.7308    5.5363   16.6189 H         2 RES2    0.0000
    141 H59        6.0024    6.0193   17.4903 H         2 RES2    0.0000
    142 C60        5.0848    4.2816   18.2946 C.3       2 RES2    0.0000
    143 C61        6.0031    3.0358   18.2481 C.3       2 RES2    0.0000
    144 H60        6.8062    3.1718   18.8104 H         2 RES2    0.0000
    145 H61        5.5205    2.2337   18.5700 H         2 RES2    0.0000
    146 C62        6.3928    2.8786   16.7661 C.3       2 RES2    0.0000
    147 H62        5.7356    2.3317   16.2483 H         2 RES2    0.0000
    148 C63        7.8292    2.7901   16.1912 C.3       2 RES2    0.0000
    149 C64        8.0191    1.7605   15.0744 C.3       2 RES2    0.0000
    150 H63        8.0386    0.8605   15.4610 H         2 RES2    0.0000
    151 H64        8.8637    1.9344   14.6096 H         2 RES2    0.0000
    152 H65        7.2766    1.8270   14.4393 H         2 RES2    0.0000
    153 C65        8.9821    2.6670   17.1898 C.3       2 RES2    0.0000
    154 H66        8.8574    3.3162   17.9130 H         2 RES2    0.0000
    155 H67        9.8307    2.8457   16.7331 H         2 RES2    0.0000
    156 H68        8.9952    1.7600   17.5624 H         2 RES2    0.0000
    157 C66        3.6163    3.9081   18.1053 C.2       2 RES2    0.0000
    158 C67        1.3731    4.2380   18.7744 C.3       2 RES2    0.0000
    159 H69        1.0331    4.7221   17.9911 H         2 RES2    0.0000
    160 H70        0.8957    4.5371   19.5757 H         2 RES2    0.0000
    161 H71        1.2322    3.2762   18.6482 H         2 RES2    0.0000
    162 C68        5.2677    4.9776   19.6478 C.2       2 RES2    0.0000
    163 C69        5.2845    4.5844   21.9795 C.3       2 RES2    0.0000
    164 H72        6.1981    4.9230   22.0897 H         2 RES2    0.0000
    165 H73        5.1234    3.8657   22.6266 H         2 RES2    0.0000
    166 H74        4.6460    5.3112   22.1338 H         2 RES2    0.0000
    167 N6         8.8776    7.4504   12.7829 N.2       2 RES2    0.0000
    168 N7         7.7455    7.8629   13.4197 N.pl3     2 RES2    0.0000
    169 H75        7.2897    7.3135   13.9345 H         2 RES2    0.0000
    170 N8        13.8920    4.8636    9.8674 N.pl3     2 RES2    0.0000
    171 N9         6.2087   13.2037   12.6224 N.pl3     2 RES2    0.0000
    172 N10        5.4327    8.8895   14.8300 N.pl3     2 RES2    0.0000
    173 O19       14.2863    3.6991    9.8854 O.2       2 RES2    0.0000
    174 O20       14.4420    5.7730    9.2500 O.2       2 RES2    0.0000
    175 O21        6.7124   13.7815   11.6589 O.2       2 RES2    0.0000
    176 O22        5.3521   13.6718   13.3296 O.2       2 RES2    0.0000
    177 O23        4.6373    9.4880   15.5491 O.2       2 RES2    0.0000
    178 O24        5.5681    7.6650   14.8538 O.2       2 RES2    0.0000
    179 O25        3.1350    3.4655   17.0816 O.2       2 RES2    0.0000
    180 O26        2.7765    4.5012   18.9266 O.3       2 RES2    0.0000
    181 O27        5.1812    6.1776   19.8842 O.2       2 RES2    0.0000
    182 O28        5.1188    4.0755   20.6486 O.3       2 RES2    0.0000
    183 C70        8.9496    5.5312   14.2711 Du        3 SUP3    0.0000
    184 C71        7.6633    4.6895   14.2530 Du        3 SUP3    0.0000
    185 C72        6.6966    4.5073   16.6449 Du        3 SUP3    0.0000
    186 C73        5.4574    5.2484   17.1077 Du        3 SUP3    0.0000
    187 C74        5.4491    2.8522   17.8549 Du        3 SUP3    0.0000
    188 C75        6.8716    3.2193   17.3881 Du        3 SUP3    0.0000
    189 C76        7.5750    2.6996   16.1060 Du        3 SUP3    0.0000
    190 C77        6.8223    1.5777   15.3849 Du        3 SUP3    0.0000
    191 C78        9.0508    2.3136   16.2242 Du        3 SUP3    0.0000
    192 H76        9.7127    4.9448   14.5055 Du        3 SUP3    0.0000
    193 H77        8.8717    6.2190   14.9802 Du        3 SUP3    0.0000
    194 H78        7.7451    3.9246   13.6280 Du        3 SUP3    0.0000
    195 H79        6.8810    5.2376   13.9906 Du        3 SUP3    0.0000
    196 H80        4.7543    5.2766   16.4105 Du        3 SUP3    0.0000
    197 H81        5.6623    6.1658   17.4182 Du        3 SUP3    0.0000
    198 H82        4.8788    2.5213   17.1177 Du        3 SUP3    0.0000
    199 H83        5.4466    2.2081   18.6061 Du        3 SUP3    0.0000
    200 H84        7.5079    3.3114   18.1554 Du        3 SUP3    0.0000
    201 H85        7.0902    1.5562   14.4434 Du        3 SUP3    0.0000
    202 H86        5.8575    1.7391   15.4470 Du        3 SUP3    0.0000
    203 H87        7.0371    0.7182   15.8056 Du        3 SUP3    0.0000
    204 H88        9.1447    1.5738   16.8593 Du        3 SUP3    0.0000
    205 H89        9.5655    3.0847   16.5407 Du        3 SUP3    0.0000
    206 H90        9.3862    2.0354   15.3468 Du        3 SUP3    0.0000
    207 O29        3.3224    2.7627   17.7747 Du        3 SUP3    0.0000
    208 O30        5.9737    5.9354   19.8401 Du        3 SUP3    0.0000
@<TRIPOS>BOND
     1    1    2 1
     2    2    3 ar
     3    3    4 1
     4    5    3 ar
     5    6    5 1
     6    7    5 ar
     7    8    7 ar
     8    9    8 1
     9   10    2 ar
    10   11   10 1
    11   12   13 ar
    12   13   14 1
    13   15   13 ar
    14   16   15 1
    15   17   15 ar
    16   18   17 ar
    17   19   18 1
    18   20   12 ar
    19   21    1 1
    20   22   21 1
    21   23   21 1
    22   24   21 1
    23   25   24 1
    24   26   24 1
    25   27   24 1
    26   28   27 2
    27   29   28 1
    28   30   29 1
    29   31   29 1
    30   32   29 1
    31   33   32 1
    32   35   33 1
    33   36   28 1
    34   37   36 1
    35   38   27 1
    36   39   38 1
    37   40   39 1
    38   41   39 1
    39   42   39 1
    40   43   38 1
    41   44   43 1
    42   45   43 1
    43   46   43 1
    44   68   33 1
    45   71   32 1
    46   72   73 1
    47   74   72 1
    48   75   72 1
    49   76   32 1
    50   77   78 1
    51   79   77 1
    52   80   77 1
    53   81   71 2
    54   82   71 1
    55   83   76 2
    56   84   76 1
    57   99    1 2
    58  100   12 1
    59  101  100 1
    60  102    7 1
    61  103   17 1
    62  104   20 1
    63  105  102 2
    64  106  102 2
    65  107  103 2
    66  108  103 2
    67  109  104 2
    68  110  104 2
    69  111  112 1
    70  112  113 ar
    71  113  114 1
    72  115  113 ar
    73  116  115 1
    74  117  115 ar
    75  118  117 ar
    76  119  118 1
    77  120  112 ar
    78  121  120 1
    79  122  123 ar
    80  123  124 1
    81  125  123 ar
    82  126  125 1
    83  127  125 ar
    84  128  127 ar
    85  129  128 1
    86  130  122 ar
    87  131  111 1
    88  132  131 1
    89  133  131 1
    90  134  131 1
    91  135  134 1
    92  136  134 1
    93  137  134 1
    94  138  137 2
    95  139  138 1
    96  140  139 1
    97  141  139 1
    98  142  139 1
    99  143  142 1
   100  144  143 1
   101  145  143 1
   102  146  138 1
   103  147  146 1
   104  148  137 1
   105  149  148 1
   106  150  149 1
   107  151  149 1
   108  152  149 1
   109  153  148 1
   110  154  153 1
   111  155  153 1
   112  156  153 1
   113  157  142 1
   114  158  159 1
   115  160  158 1
   116  161  158 1
   117  162  142 1
   118  163  164 1
   119  165  163 1
   120  166  163 1
   121  167  111 2
   122  168  122 1
   123  169  168 1
   124  170  117 1
   125  171  127 1
   126  172  130 1
   127  173  170 2
   128  174  170 2
   129  175  171 2
   130  176  171 2
   131  177  172 2
   132  178  172 2
   133  179  157 2
   134  180  157 1
   135  181  162 2
   136  182  162 1
   137    8   10 ar
   138   18   20 ar
   139   33   36 1
   140   36   38 1
   141   72   82 1
   142   77   84 1
   143   99  100 1
   144  118  120 ar
   145  128  130 ar
   146  143  146 1
   147  146  148 1
   148  158  180 1
   149  163  182 1
   150  167  168 1
@<TRIPOS>SUBSTRUCTURE
     1 RES1 1
     2 RES2 111
     3 SUP3 34

@<TRIPOS>CRYSIN
  11.1962   13.6978   20.6140  87.1160  76.5530  68.0600   2 1

