# MOL2 file generated by ConQuest
# Please check atom types

@<TRIPOS>MOLECULE
WEHCIX
    90    93     3
SMALL
NO_CHARGES
****
Generated from CSD

@<TRIPOS>ATOM
      1 O1         7.4999    4.7394   10.2518 O.2       1 RES1    0.0000
      2 C1         5.7416    5.4587    8.3280 C.ar      1 RES1    0.0000
      3 H1         6.0752    6.1272    8.8808 H         1 RES1    0.0000
      4 C2         4.8663    5.7596    7.3014 C.ar      1 RES1    0.0000
      5 H2         4.5864    6.6357    7.1618 H         1 RES1    0.0000
      6 O2         3.4840    5.0333    5.4919 O.3       1 RES1    0.0000
      7 C3         2.8365    5.4831    2.0269 C.ar      1 RES1    0.0000
      8 H3         3.6084    5.1192    1.6568 H         1 RES1    0.0000
      9 C4         1.6012    6.2665    3.9240 C.ar      1 RES1    0.0000
     10 H4         1.5431    6.4457    4.8346 H         1 RES1    0.0000
     11 O3         7.3165    2.6562    9.8000 O.2       1 RES1    0.0000
     12 C5         6.8163    1.4767    3.8479 C.ar      2 RES2    0.0000
     13 H5         6.0242    1.0296    4.0382 H         2 RES2    0.0000
     14 O4         6.3006    2.6111    0.4641 O.3       2 RES2    0.0000
     15 O5         2.4192    4.3543   -4.0910 O.2       2 RES2    0.0000
     16 O6         2.4642    2.2356   -4.4364 O.2       2 RES2    0.0000
     17 N1         3.3676    1.5055    4.1092 N.1       2 RES2    0.0000
     18 C6         3.7611    0.0737    7.4719 C.ar      3 RES3    0.0000
     19 H6         3.0299    0.2381    6.9207 H         3 RES3    0.0000
     20 C7         4.9178   -0.4536    6.9479 C.ar      3 RES3    0.0000
     21 H7         4.9738   -0.6251    6.0349 H         3 RES3    0.0000
     22 C8         5.9965   -0.7313    7.7625 C.ar      3 RES3    0.0000
     23 H8         6.7630   -1.1136    7.4012 H         3 RES3    0.0000
     24 O7         6.5877   -1.2045   11.2250 O.3       3 RES3    0.0000
     25 O8        10.3825   -3.4864   15.6119 O.2       3 RES3    0.0000
     26 O9        10.4597   -1.4108   16.1183 O.2       3 RES3    0.0000
     27 C9         3.6937    0.3565    8.8211 C.ar      3 RES3    0.0000
     28 H9         2.9179    0.7264    9.1776 H         3 RES3    0.0000
     29 C10        4.7678    0.0958    9.6456 C.ar      3 RES3    0.0000
     30 H10        4.7080    0.2796   10.5551 H         3 RES3    0.0000
     31 N2         7.0388    3.8217    9.5950 N.pl3     1 RES1    0.0000
     32 C11        2.7808    5.7549    3.3901 C.ar      1 RES1    0.0000
     33 C12        1.7433    5.7538    1.2183 C.ar      1 RES1    0.0000
     34 H11        1.7939    5.5924    0.3033 H         1 RES1    0.0000
     35 C13        0.5882    6.2577    1.7559 C.ar      1 RES1    0.0000
     36 H12       -0.1455    6.4284    1.2114 H         1 RES1    0.0000
     37 C14        0.5210    6.5087    3.1060 C.ar      1 RES1    0.0000
     38 H13       -0.2650    6.8470    3.4715 H         1 RES1    0.0000
     39 C15        5.6489    3.1304    7.7097 C.ar      1 RES1    0.0000
     40 H14        5.9199    2.2518    7.8545 H         1 RES1    0.0000
     41 C16        5.6876    6.1595    2.7734 C.1       1 RES1    0.0000
     42 N3         6.1220    6.6191    1.8200 N.1       1 RES1    0.0000
     43 C17        9.0543    2.0457    4.4533 C.ar      2 RES2    0.0000
     44 H15        9.7723    1.9827    5.0405 H         2 RES2    0.0000
     45 C18        7.8720    1.3977    4.7331 C.ar      2 RES2    0.0000
     46 H16        7.7849    0.9072    5.5178 H         2 RES2    0.0000
     47 C19        6.9208    2.2132    2.6802 C.ar      2 RES2    0.0000
     48 N4         2.8081    3.2351   -3.8208 N.pl3     2 RES2    0.0000
     49 C20        9.1678    2.7844    3.3047 C.ar      2 RES2    0.0000
     50 H17        9.9635    3.2295    3.1204 H         2 RES2    0.0000
     51 C21        8.1111    2.8740    2.4191 C.ar      2 RES2    0.0000
     52 H18        8.1995    3.3794    1.6440 H         2 RES2    0.0000
     53 C22        3.9077    1.7824    3.1426 C.1       2 RES2    0.0000
     54 C23        5.0802    1.6590   -1.3505 C.ar      2 RES2    0.0000
     55 H19        5.4271    0.8214   -1.1460 H         2 RES2    0.0000
     56 C24        5.9416   -0.4417    9.1224 C.ar      3 RES3    0.0000
     57 C25        7.9586   -0.4361   13.0385 C.ar      3 RES3    0.0000
     58 H20        7.7220    0.4432   12.8471 H         3 RES3    0.0000
     59 N5        10.0416   -2.3339   15.4411 N.pl3     3 RES3    0.0000
     60 N6         9.3550    0.4307    7.6633 N.1       3 RES3    0.0000
     61 C26        6.1048    4.1484    8.5124 C.ar      1 RES1    0.0000
     62 C27        4.4156    4.7441    6.4888 C.ar      1 RES1    0.0000
     63 C28        3.9252    5.4652    4.2760 C.2       1 RES1    0.0000
     64 C29        4.7762    3.4430    6.6799 C.ar      1 RES1    0.0000
     65 H21        4.4408    2.7748    6.1259 H         1 RES1    0.0000
     66 C30        5.2214    5.5883    3.9825 C.2       1 RES1    0.0000
     67 H22        5.8478    5.2847    4.6000 H         1 RES1    0.0000
     68 C31        5.8137    2.2882    1.7034 C.2       2 RES2    0.0000
     69 C32        5.4114    2.7540   -0.5939 C.ar      2 RES2    0.0000
     70 C33        4.9377    4.0079   -0.8868 C.ar      2 RES2    0.0000
     71 H23        5.1890    4.7383   -0.3687 H         2 RES2    0.0000
     72 C34        4.0852    4.1723   -1.9564 C.ar      2 RES2    0.0000
     73 H24        3.7519    5.0139   -2.1723 H         2 RES2    0.0000
     74 C35        3.7362    3.0669   -2.7008 C.ar      2 RES2    0.0000
     75 C36        4.5069    2.0891    1.8965 C.2       2 RES2    0.0000
     76 H25        3.9479    2.1572    1.1556 H         2 RES2    0.0000
     77 C37        4.2257    1.8187   -2.4181 C.ar      2 RES2    0.0000
     78 H26        3.9847    1.0882   -2.9416 H         2 RES2    0.0000
     79 C38        7.0647   -0.7555   10.0242 C.2       3 RES3    0.0000
     80 C39        7.4828   -1.4662   12.2640 C.ar      3 RES3    0.0000
     81 C40        8.7864   -0.7157   14.0969 C.ar      3 RES3    0.0000
     82 H27        9.1212   -0.0332   14.6332 H         3 RES3    0.0000
     83 C41        9.1091   -2.0271   14.3471 C.ar      3 RES3    0.0000
     84 C42        8.3655   -0.6351    9.7687 C.2       3 RES3    0.0000
     85 H28        8.9704   -0.9501   10.4019 H         3 RES3    0.0000
     86 C43        8.8772   -0.0538    8.5850 C.1       3 RES3    0.0000
     87 C44        7.7865   -2.7712   12.5245 C.ar      3 RES3    0.0000
     88 H29        7.4374   -3.4532   11.9980 H         3 RES3    0.0000
     89 C45        8.6228   -3.0595   13.5891 C.ar      3 RES3    0.0000
     90 H30        8.8510   -3.9398   13.7872 H         3 RES3    0.0000
@<TRIPOS>BOND
     1    1   31 2
     2    2    3 1
     3    4    2 ar
     4    5    4 1
     5    6   62 1
     6    7    8 1
     7    9   10 1
     8   11   31 2
     9   12   13 1
    10   14   68 1
    11   15   48 2
    12   16   48 2
    13   17   53 3
    14   18   19 1
    15   20   18 ar
    16   21   20 1
    17   22   20 ar
    18   23   22 1
    19   24   79 1
    20   25   59 2
    21   26   59 2
    22   27   18 ar
    23   28   27 1
    24   29   27 ar
    25   30   29 1
    26   31   61 1
    27   32    7 ar
    28   33    7 ar
    29   34   33 1
    30   35   33 ar
    31   36   35 1
    32   37    9 ar
    33   38   37 1
    34   39   40 1
    35   41   42 3
    36   43   44 1
    37   45   12 ar
    38   46   45 1
    39   47   12 ar
    40   48   74 1
    41   49   43 ar
    42   50   49 1
    43   51   47 ar
    44   52   51 1
    45   53   75 1
    46   54   55 1
    47   56   22 ar
    48   57   58 1
    49   59   83 1
    50   60   86 3
    51   61    2 ar
    52   62    4 ar
    53   63    6 1
    54   64   39 ar
    55   65   64 1
    56   66   41 1
    57   67   66 1
    58   68   47 1
    59   69   14 1
    60   70   69 ar
    61   71   70 1
    62   72   70 ar
    63   73   72 1
    64   74   72 ar
    65   75   68 2
    66   76   75 1
    67   77   54 ar
    68   78   77 1
    69   79   56 1
    70   80   24 1
    71   81   57 ar
    72   82   81 1
    73   83   81 ar
    74   84   79 2
    75   85   84 1
    76   86   84 1
    77   87   80 ar
    78   88   87 1
    79   89   83 ar
    80   90   89 1
    81    9   32 ar
    82   29   56 ar
    83   32   63 1
    84   35   37 ar
    85   39   61 ar
    86   43   45 ar
    87   49   51 ar
    88   54   69 ar
    89   57   80 ar
    90   62   64 ar
    91   63   66 2
    92   74   77 ar
    93   87   89 ar
@<TRIPOS>SUBSTRUCTURE
     1 RES1 1
     2 RES2 12
     3 RES3 18

@<TRIPOS>CRYSIN
   9.0546   13.7185   16.4462 103.5270  90.9130 100.2270   2 1

