# MOL2 file generated by ConQuest
# Please check atom types

@<TRIPOS>MOLECULE
WEHCOD
    28    30     1
SMALL
NO_CHARGES
****
Generated from CSD

@<TRIPOS>ATOM
      1 O1         7.5522    3.3380    3.6967 O.3       1 RES1    0.0000
      2 O2         3.3256   -0.3315    1.1276 O.2       1 RES1    0.0000
      3 O3         2.3752    1.5501    0.7729 O.2       1 RES1    0.0000
      4 N1         8.9113   -1.1815    3.1386 N.1       1 RES1    0.0000
      5 N2         3.2863    0.8862    1.2222 N.pl3     1 RES1    0.0000
      6 C1        10.1796    3.9077    4.4578 C.ar      1 RES1    0.0000
      7 H1         9.6761    4.5918    4.0786 H         1 RES1    0.0000
      8 C2        11.3906    4.1937    5.0540 C.ar      1 RES1    0.0000
      9 H2        11.7038    5.0695    5.0685 H         1 RES1    0.0000
     10 C3        12.1390    3.1922    5.6273 C.ar      1 RES1    0.0000
     11 H3        12.9531    3.3903    6.0297 H         1 RES1    0.0000
     12 C4        11.6774    1.8926    5.6035 C.ar      1 RES1    0.0000
     13 H4        12.1813    1.2160    5.9942 H         1 RES1    0.0000
     14 C5        10.4797    1.5926    5.0059 C.ar      1 RES1    0.0000
     15 H5        10.1779    0.7137    4.9906 H         1 RES1    0.0000
     16 C6         9.7125    2.5979    4.4231 C.ar      1 RES1    0.0000
     17 C7         8.4311    2.2879    3.8143 C.2       1 RES1    0.0000
     18 C8         7.8704    1.1516    3.2997 C.2       1 RES1    0.0000
     19 C9         6.5535    1.4970    2.8279 C.ar      1 RES1    0.0000
     20 C10        6.4193    2.8560    3.0914 C.ar      1 RES1    0.0000
     21 C11        5.3107    3.5967    2.7624 C.ar      1 RES1    0.0000
     22 H6         5.2547    4.5049    2.9537 H         1 RES1    0.0000
     23 C12        4.2855    2.9247    2.1350 C.ar      1 RES1    0.0000
     24 H7         3.5161    3.3801    1.8821 H         1 RES1    0.0000
     25 C13        4.4040    1.5667    1.8809 C.ar      1 RES1    0.0000
     26 C14        5.5160    0.8211    2.2066 C.ar      1 RES1    0.0000
     27 H8         5.5674   -0.0883    2.0191 H         1 RES1    0.0000
     28 C15        8.4733   -0.1352    3.2098 C.1       1 RES1    0.0000
@<TRIPOS>BOND
     1    1   17 1
     2    2    5 2
     3    3    5 2
     4    4   28 3
     5    5   25 1
     6    6    7 1
     7    8    6 ar
     8    9    8 1
     9   10    8 ar
    10   11   10 1
    11   12   10 ar
    12   13   12 1
    13   14   12 ar
    14   15   14 1
    15   16    6 ar
    16   17   16 1
    17   18   17 2
    18   19   18 1
    19   20    1 1
    20   21   20 ar
    21   22   21 1
    22   23   21 ar
    23   24   23 1
    24   25   23 ar
    25   26   19 ar
    26   27   26 1
    27   28   18 1
    28   14   16 ar
    29   19   20 ar
    30   25   26 ar
@<TRIPOS>SUBSTRUCTURE
     1 RES1 1

@<TRIPOS>CRYSIN
   8.6348   14.4760   10.0498  90.0000 101.1860  90.0000 231 1

