# MOL2 file generated by ConQuest
# Please check atom types

@<TRIPOS>MOLECULE
WEHGEW
    32    34     1
SMALL
NO_CHARGES
****
Generated from CSD

@<TRIPOS>ATOM
      1 O1         3.5094    2.1921    7.0149 O.3       1 RES1    0.0000
      2 C1         2.7606    2.3013    8.2717 C.3       1 RES1    0.0000
      3 C2         1.4775    3.0057    7.8906 C.2       1 RES1    0.0000
      4 C3         1.4941    3.1505    6.4363 C.ar      1 RES1    0.0000
      5 C4         0.6066    3.6622    5.5252 C.ar      1 RES1    0.0000
      6 C5         0.9450    3.6819    4.1665 C.ar      1 RES1    0.0000
      7 C6         0.0997    4.1896    3.1242 C.2       1 RES1    0.0000
      8 C7         0.4812    4.1570    1.8448 C.2       1 RES1    0.0000
      9 C8         1.7658    3.6365    1.4649 C.2       1 RES1    0.0000
     10 O2         2.5761    3.1541    2.4658 O.3       1 RES1    0.0000
     11 C9         2.1920    3.1607    3.7883 C.ar      1 RES1    0.0000
     12 C10        3.1006    2.6333    4.6833 C.ar      1 RES1    0.0000
     13 C11        2.7298    2.6501    6.0085 C.ar      1 RES1    0.0000
     14 C12        2.6019    0.9128    8.8782 C.3       1 RES1    0.0000
     15 C13        3.9642    0.3304    9.2301 C.3       1 RES1    0.0000
     16 C14        1.8204   -0.0080    7.9461 C.3       1 RES1    0.0000
     17 O3         0.8177    3.1850    9.9808 O.3       1 RES1    0.0000
     18 O4         2.2070    3.5735    0.3418 O.2       1 RES1    0.0000
     19 N1         0.5197    3.4458    8.6349 N.2       1 RES1    0.0000
     20 H1         3.2510    2.8596    8.8555 H         1 RES1    0.0000
     21 H2        -0.2349    3.9658    5.7940 H         1 RES1    0.0000
     22 H3        -0.7552    4.5332    3.3333 H         1 RES1    0.0000
     23 H4        -0.0315    4.4795    1.1259 H         1 RES1    0.0000
     24 H5         3.9783    2.2862    4.4061 H         1 RES1    0.0000
     25 H6         2.0824    1.0842    9.7324 H         1 RES1    0.0000
     26 H7         4.4980    0.9311   10.0030 H         1 RES1    0.0000
     27 H8         3.8722   -0.5223    9.6349 H         1 RES1    0.0000
     28 H9         4.4765    0.1461    8.3792 H         1 RES1    0.0000
     29 H10        1.7432   -0.8351    8.3467 H         1 RES1    0.0000
     30 H11        2.3656   -0.1953    7.1450 H         1 RES1    0.0000
     31 H12        0.9099    0.3555    7.9461 H         1 RES1    0.0000
     32 H13       -0.2084    3.6271   10.5984 H         1 RES1    0.0000
@<TRIPOS>BOND
     1    1    2 1
     2    2    3 1
     3    3    4 1
     4    4    5 ar
     5    5    6 ar
     6    6    7 1
     7    7    8 2
     8    8    9 1
     9    9   10 1
    10   10   11 1
    11   11    6 ar
    12   12   11 ar
    13   13    1 1
    14   14    2 1
    15   15   14 1
    16   16   14 1
    17   17   19 1
    18   18    9 2
    19   19    3 2
    20   20    2 1
    21   21    5 1
    22   22    7 1
    23   23    8 1
    24   24   12 1
    25   25   14 1
    26   26   15 1
    27   27   15 1
    28   28   15 1
    29   29   16 1
    30   30   16 1
    31   31   16 1
    32   32   17 1
    33    4   13 ar
    34   12   13 ar
@<TRIPOS>SUBSTRUCTURE
     1 RES1 1

@<TRIPOS>CRYSIN
   5.9047   10.0150   11.0390  87.2500  78.7770  81.5000   2 1

