# MOL2 file generated by ConQuest
# Please check atom types

@<TRIPOS>MOLECULE
WEHHOH
    66    68     2
SMALL
NO_CHARGES
****
Generated from CSD

@<TRIPOS>ATOM
      1 O1         9.3880   10.8073    0.2867 O.3       1 RES1    0.0000
      2 N1         6.7919    8.0611    2.0316 N.ar      1 RES1    0.0000
      3 N2         6.4284    5.6903    2.1665 N.ar      1 RES1    0.0000
      4 N3         8.1446    6.5782    0.7418 N.ar      1 RES1    0.0000
      5 N4         7.8237    4.3055    0.9684 N.3       1 RES1    0.0000
      6 N5         5.2193    7.1450    3.4338 N.3       1 RES1    0.0000
      7 N6         9.2361    8.8124   -0.5745 N.2       1 RES1    0.0000
      8 N7         8.5281   10.0751    1.1348 N.2       1 RES1    0.0000
      9 C1         7.7377    7.7701    1.1539 C.ar      1 RES1    0.0000
     10 C2         6.1693    6.9522    2.5288 C.ar      1 RES1    0.0000
     11 C3         7.4531    5.5453    1.2993 C.ar      1 RES1    0.0000
     12 C4         8.4825    8.9054    0.5674 C.2       1 RES1    0.0000
     13 C5         9.7563    9.9856   -0.7001 C.2       1 RES1    0.0000
     14 C6        10.6597   10.5113   -1.7311 C.3       1 RES1    0.0000
     15 C7         8.9708    4.0668    0.0850 C.3       1 RES1    0.0000
     16 C8        10.2498    3.8850    0.8148 C.3       1 RES1    0.0000
     17 C9         7.1571    3.1427    1.5587 C.3       1 RES1    0.0000
     18 C10        7.5651    2.8586    2.9675 C.3       1 RES1    0.0000
     19 O2        -0.9287    0.8109    5.4168 O.3       2 RES2    0.0000
     20 N8         2.2198    3.1529    4.0492 N.ar      2 RES2    0.0000
     21 N9         3.9155    4.6445    4.8464 N.ar      2 RES2    0.0000
     22 N10        2.2366    3.8121    6.3362 N.ar      2 RES2    0.0000
     23 N11        4.0016    5.0600    7.1187 N.3       2 RES2    0.0000
     24 N12        3.7950    4.0626    2.6438 N.3       2 RES2    0.0000
     25 N13       -0.1663    2.4027    6.7084 N.2       2 RES2    0.0000
     26 N14        0.1720    1.3880    4.7424 N.2       2 RES2    0.0000
     27 C11        1.7519    3.1625    5.2866 C.ar      2 RES2    0.0000
     28 C12        3.3023    3.9491    3.8774 C.ar      2 RES2    0.0000
     29 C13        3.3792    4.4975    6.0748 C.ar      2 RES2    0.0000
     30 C14        0.5671    2.3099    5.5556 C.2       2 RES2    0.0000
     31 C15       -1.0559    1.4768    6.5668 C.2       2 RES2    0.0000
     32 C16       -2.1422    1.0522    7.4901 C.3       2 RES2    0.0000
     33 C17        3.5157    4.8258    8.4813 C.3       2 RES2    0.0000
     34 C18        3.8098    3.4458    8.9968 C.3       2 RES2    0.0000
     35 C19        5.2701    5.7606    6.9634 C.3       2 RES2    0.0000
     36 C20        6.3989    4.8383    6.8760 C.3       2 RES2    0.0000
     37 H1         5.1541    7.9430    3.8354 H         1 RES1    0.0000
     38 H2         4.8348    6.4523    3.8838 H         1 RES1    0.0000
     39 H3        10.8022    9.8414   -2.4325 H         1 RES1    0.0000
     40 H4        10.2906   11.2422   -2.1609 H         1 RES1    0.0000
     41 H5        11.4856   10.8604   -1.3344 H         1 RES1    0.0000
     42 H6         8.9688    4.8268   -0.5739 H         1 RES1    0.0000
     43 H7         8.7664    3.2836   -0.4286 H         1 RES1    0.0000
     44 H8        10.2002    3.1118    1.5233 H         1 RES1    0.0000
     45 H9        10.4763    4.4430    1.3934 H         1 RES1    0.0000
     46 H10       10.9973    3.6891    0.1889 H         1 RES1    0.0000
     47 H11        7.4293    2.4558    0.9565 H         1 RES1    0.0000
     48 H12        6.1944    3.2708    1.5127 H         1 RES1    0.0000
     49 H13        7.2768    2.1216    3.2473 H         1 RES1    0.0000
     50 H14        7.2067    3.5038    3.5425 H         1 RES1    0.0000
     51 H15        8.5042    2.7610    2.9639 H         1 RES1    0.0000
     52 H16        3.5178    3.5497    2.0547 H         2 RES2    0.0000
     53 H17        4.6777    4.5909    2.5365 H         2 RES2    0.0000
     54 H18       -2.1485    1.5840    8.2069 H         2 RES2    0.0000
     55 H19       -1.9566    0.2438    7.8172 H         2 RES2    0.0000
     56 H20       -2.9264    1.0838    6.9788 H         2 RES2    0.0000
     57 H21        2.4977    4.9784    8.5233 H         2 RES2    0.0000
     58 H22        3.9504    5.4608    9.0689 H         2 RES2    0.0000
     59 H23        3.5246    3.3274    9.9073 H         2 RES2    0.0000
     60 H24        3.2080    2.7575    8.4548 H         2 RES2    0.0000
     61 H25        4.7046    3.2218    8.9390 H         2 RES2    0.0000
     62 H26        5.7138    6.5540    7.4995 H         2 RES2    0.0000
     63 H27        5.2868    6.4097    6.1994 H         2 RES2    0.0000
     64 H28        7.2704    5.5541    6.9079 H         2 RES2    0.0000
     65 H29        6.4375    4.2580    7.6873 H         2 RES2    0.0000
     66 H30        6.1595    4.3005    5.9042 H         2 RES2    0.0000
@<TRIPOS>BOND
     1    1    8 1
     2    2    9 ar
     3    3   10 ar
     4    4    9 ar
     5    5   11 1
     6    6   10 1
     7    7   12 1
     8    8   12 2
     9    9   12 1
    10   10    2 ar
    11   11    3 ar
    12   13    1 1
    13   14   13 1
    14   15    5 1
    15   16   15 1
    16   17    5 1
    17   18   17 1
    18   19   26 1
    19   20   27 ar
    20   21   28 ar
    21   22   27 ar
    22   23   29 1
    23   24   28 1
    24   25   30 1
    25   26   30 2
    26   27   30 1
    27   28   20 ar
    28   29   21 ar
    29   31   19 1
    30   32   31 1
    31   33   23 1
    32   34   33 1
    33   35   23 1
    34   36   35 1
    35   37    6 1
    36   38    6 1
    37   39   14 1
    38   40   14 1
    39   41   14 1
    40   42   15 1
    41   43   15 1
    42   44   16 1
    43   45   16 1
    44   46   16 1
    45   47   17 1
    46   48   17 1
    47   49   18 1
    48   50   18 1
    49   51   18 1
    50   52   24 1
    51   53   24 1
    52   54   32 1
    53   55   32 1
    54   56   32 1
    55   57   33 1
    56   58   33 1
    57   59   34 1
    58   60   34 1
    59   61   34 1
    60   62   35 1
    61   63   35 1
    62   64   36 1
    63   65   36 1
    64   66   36 1
    65    4   11 ar
    66    7   13 2
    67   22   29 ar
    68   25   31 2
@<TRIPOS>SUBSTRUCTURE
     1 RES1 1
     2 RES2 19

@<TRIPOS>CRYSIN
  10.0270   10.9780   12.1820  80.6400  77.5000  76.8300   2 1

