# MOL2 file generated by ConQuest
# Please check atom types

@<TRIPOS>MOLECULE
WEHJOJ01
    37    38     1
SMALL
USER_CHARGES
****
Generated from CSD

@<TRIPOS>ATOM
      1 O1         3.9475   16.5698    4.1003 O.2       1 RES1    0.0000
      2 N1         3.5868   17.5375    3.3214 N.pl3     1 RES1    0.0000
      3 C1         4.3417   18.8102    3.2716 C.3       1 RES1    0.0000
      4 C2         5.6570   18.4971    2.5903 C.3       1 RES1    0.0000
      5 H1         6.0925   17.7754    3.0519 H         1 RES1    0.0000
      6 H2         6.2193   19.2734    2.6083 H         1 RES1    0.0000
      7 H3         5.4926   18.2408    1.6798 H         1 RES1    0.0000
      8 C3         4.5680   19.2952    4.7169 C.3       1 RES1    0.0000
      9 H4         3.7257   19.5370    5.1084 H         1 RES1    0.0000
     10 H5         5.1487   20.0587    4.7105 H         1 RES1    0.0000
     11 H6         4.9705   18.5917    5.2305 H         1 RES1    0.0000
     12 C4         3.3711   19.6893    2.4354 C.3       1 RES1    0.0000
     13 C5         2.4744   20.5848    3.2270 C.3       1 RES1    0.0000
     14 H7         2.9960   21.2785    3.6387 H         1 RES1    0.0000
     15 H8         2.0301   20.0733    3.9072 H         1 RES1    0.0000
     16 H9         1.8203   20.9786    2.6455 H         1 RES1    0.0000
     17 C6         4.0321   20.4986    1.3116 C.3       1 RES1    0.0000
     18 H10        3.3625   21.0058    0.8457 H         1 RES1    0.0000
     19 H11        4.4648   19.9006    0.6982 H         1 RES1    0.0000
     20 H12        4.6817   21.0967    1.6883 H         1 RES1    0.0000
     21 N2         2.4980   18.6466    1.8231 N.pl3     1 RES1    1.0000
     22 O2         1.6546   18.9280    0.8850 O.2       1 RES1   -1.0000
     23 C7         2.5995   17.4646    2.4247 C.2       1 RES1    0.0000
     24 C8         1.8105   16.3169    2.1372 C.2       1 RES1    0.0000
     25 C9         1.9290   15.0066    2.6593 C.2       1 RES1    0.0000
     26 H13        2.5764   14.7523    3.2769 H         1 RES1    0.0000
     27 N3         1.0374   14.2078    2.1828 N.2       1 RES1    0.0000
     28 N4         0.2958   14.9771    1.3349 N.pl3     1 RES1    0.0000
     29 C10       -0.8715   14.3960    0.6834 C.3       1 RES1    0.0000
     30 H14       -1.4172   13.9578    1.3540 H         1 RES1    0.0000
     31 H15       -1.4013   15.1122    0.2961 H         1 RES1    0.0000
     32 C11       -0.5596   13.4743   -0.3173 C.3       1 RES1    0.0000
     33 H16       -1.3698   13.1398   -0.7078 H         1 RES1    0.0000
     34 H17       -0.0621   12.7453    0.0626 H         1 RES1    0.0000
     35 H18       -0.0317   13.9033   -0.9943 H         1 RES1    0.0000
     36 C12        0.7378   16.2226    1.2713 C.2       1 RES1    0.0000
     37 H19        0.3923   16.9065    0.7428 H         1 RES1    0.0000
@<TRIPOS>BOND
     1    1    2 1
     2    2    3 1
     3    3    4 1
     4    4    5 1
     5    6    4 1
     6    7    4 1
     7    8    3 1
     8    9    8 1
     9   10    8 1
    10   11    8 1
    11   12    3 1
    12   13   12 1
    13   14   13 1
    14   15   13 1
    15   16   13 1
    16   17   12 1
    17   18   17 1
    18   19   17 1
    19   20   17 1
    20   21   12 1
    21   22   21 1
    22   23    2 1
    23   24   23 1
    24   25   24 1
    25   26   25 1
    26   27   25 2
    27   28   27 1
    28   29   28 1
    29   30   29 1
    30   31   29 1
    31   32   29 1
    32   33   32 1
    33   34   32 1
    34   35   32 1
    35   36   24 2
    36   37   36 1
    37   21   23 2
    38   28   36 1
@<TRIPOS>SUBSTRUCTURE
     1 RES1 1

@<TRIPOS>CRYSIN
   7.3177   18.1790   10.7920  90.0000 100.4910  90.0000  14 1

