# MOL2 file generated by ConQuest
# Please check atom types

@<TRIPOS>MOLECULE
WEHKIE
    53    55     1
SMALL
NO_CHARGES
****
Generated from CSD

@<TRIPOS>ATOM
      1 O1         2.3068   -1.3390   11.9008 O.2       1 RES1    0.0000
      2 N1         3.1911   -2.2071   11.6590 N.pl3     1 RES1    0.0000
      3 C1         2.9452   -3.6364   11.9260 C.3       1 RES1    0.0000
      4 C2         2.9162   -3.7821   13.4244 C.3       1 RES1    0.0000
      5 H1         1.7676   -3.3715   13.3968 H         1 RES1    0.0000
      6 H2         2.8505   -3.2752   13.9740 H         1 RES1    0.0000
      7 H3         2.6193   -4.7321   13.6493 H         1 RES1    0.0000
      8 C3         1.6445   -4.0434   11.3055 C.3       1 RES1    0.0000
      9 H4         1.0048   -3.4798   11.6410 H         1 RES1    0.0000
     10 H5         1.5731   -5.0933   11.2923 H         1 RES1    0.0000
     11 H6         1.7371   -3.5401   10.4865 H         1 RES1    0.0000
     12 C4         4.1979   -4.2734   11.3043 C.3       1 RES1    0.0000
     13 C5         4.9711   -5.2294   12.1774 C.3       1 RES1    0.0000
     14 H7         5.9104   -5.3342   11.5929 H         1 RES1    0.0000
     15 H8         4.4357   -5.9121   12.2784 H         1 RES1    0.0000
     16 H9         4.9285   -4.6599   13.1923 H         1 RES1    0.0000
     17 C6         3.9696   -4.8911    9.9478 C.3       1 RES1    0.0000
     18 H10        4.8320   -4.9729    9.5605 H         1 RES1    0.0000
     19 H11        3.4745   -4.1782    9.3561 H         1 RES1    0.0000
     20 H12        3.4963   -5.6713   10.0897 H         1 RES1    0.0000
     21 N2         5.0567   -3.0668   11.0674 N.pl3     1 RES1    0.0000
     22 O2         6.2582   -3.1728   10.6717 O.2       1 RES1    0.0000
     23 C7         4.3940   -1.9326   11.2153 C.2       1 RES1    0.0000
     24 C8         4.8797   -0.6370   10.9002 C.2       1 RES1    0.0000
     25 N3         4.1033    0.4443   11.0493 N.pl3     1 RES1    0.0000
     26 H13        3.1618    0.4696   11.3404 H         1 RES1    0.0000
     27 C9         6.0749   -0.1951   10.4420 C.2       1 RES1    0.0000
     28 H14        6.8429   -0.7104   10.2941 H         1 RES1    0.0000
     29 N4         4.7066    1.5810   10.6850 N.2       1 RES1    0.0000
     30 C10        5.9248    1.1824   10.3146 C.2       1 RES1    0.0000
     31 C11        6.8989    2.1216    9.8492 C.2       1 RES1    0.0000
     32 O3         8.5865    0.6418    9.3573 O.2       1 RES1    0.0000
     33 N5         8.1117    1.8194    9.4102 N.pl3     1 RES1    0.0000
     34 C12        8.8103    2.7550    7.3334 C.3       1 RES1    0.0000
     35 H15        7.8128    2.8778    7.1794 H         1 RES1    0.0000
     36 H16        9.3949    1.8904    7.1073 H         1 RES1    0.0000
     37 H17        9.5293    3.6364    6.9630 H         1 RES1    0.0000
     38 C13       10.2741    2.9633    9.3260 C.3       1 RES1    0.0000
     39 H18        9.9327    2.8778   10.3783 H         1 RES1    0.0000
     40 H19       10.7855    3.9615    8.8751 H         1 RES1    0.0000
     41 H20       10.6044    2.2155    8.9352 H         1 RES1    0.0000
     42 C14        8.8435    2.9789    8.8654 C.3       1 RES1    0.0000
     43 C15        7.6353    5.1523    8.2750 C.3       1 RES1    0.0000
     44 H21        7.1588    4.8044    7.6484 H         1 RES1    0.0000
     45 H22        8.4768    5.5750    7.8529 H         1 RES1    0.0000
     46 H23        7.0259    5.8519    8.6827 H         1 RES1    0.0000
     47 C16        8.4964    4.8549   10.5443 C.3       1 RES1    0.0000
     48 H24        8.7669    4.2144   11.2201 H         1 RES1    0.0000
     49 H25        7.8006    5.5148   10.7511 H         1 RES1    0.0000
     50 H26        9.3063    5.3221   10.2941 H         1 RES1    0.0000
     51 C17        7.9796    4.1385    9.3357 C.3       1 RES1    0.0000
     52 N6         6.7413    3.4317    9.7481 N.pl3     1 RES1    0.0000
     53 O4         5.6996    4.0963   10.0464 O.2       1 RES1    0.0000
@<TRIPOS>BOND
     1    1    2 1
     2    2    3 1
     3    3    4 1
     4    4    5 1
     5    6    4 1
     6    7    4 1
     7    8    3 1
     8    9    8 1
     9   10    8 1
    10   11    8 1
    11   12    3 1
    12   13   12 1
    13   14   13 1
    14   15   13 1
    15   16   13 1
    16   17   12 1
    17   18   17 1
    18   19   17 1
    19   20   17 1
    20   21   12 1
    21   22   21 2
    22   23    2 2
    23   24   23 1
    24   25   24 1
    25   26   25 1
    26   27   24 2
    27   28   27 1
    28   29   25 1
    29   30   27 1
    30   31   30 1
    31   32   33 1
    32   33   31 2
    33   34   35 1
    34   36   34 1
    35   37   34 1
    36   38   39 1
    37   40   38 1
    38   41   38 1
    39   42   33 1
    40   43   44 1
    41   45   43 1
    42   46   43 1
    43   47   48 1
    44   49   47 1
    45   50   47 1
    46   51   42 1
    47   52   31 1
    48   53   52 2
    49   21   23 1
    50   29   30 2
    51   34   42 1
    52   38   42 1
    53   43   51 1
    54   47   51 1
    55   51   52 1
@<TRIPOS>SUBSTRUCTURE
     1 RES1 1

@<TRIPOS>CRYSIN
  13.1730   12.0410   12.8790  90.0000 110.9720  90.0000  14 1

