# MOL2 file generated by ConQuest
# Please check atom types

@<TRIPOS>MOLECULE
WEHLIF
   120   120     4
SMALL
NO_CHARGES
****
Generated from CSD

@<TRIPOS>ATOM
      1 N1         0.4231   -1.6036   11.2394 N.3       1 RES1    0.0000
      2 C1         0.4064   -0.7112   12.3975 C.3       1 RES1    0.0000
      3 H1         1.3122   -0.3879   12.5837 H         1 RES1    0.0000
      4 N2        -0.4289    0.3968   11.8714 N.pl3     1 RES1    0.0000
      5 C2        -0.4950    0.3883   10.5826 C.2       1 RES1    0.0000
      6 C3         0.3267   -0.7285   10.0334 C.3       1 RES1    0.0000
      7 C4        -0.1687   -1.3440   13.6176 C.2       1 RES1    0.0000
      8 C5         0.5545   -1.5405   14.6890 C.2       1 RES1    0.0000
      9 H2         0.1842   -1.9677   15.4282 H         1 RES1    0.0000
     10 H3         1.4388   -1.2542   14.7130 H         1 RES1    0.0000
     11 C6        -2.1019   -2.3844   14.5078 C.3       1 RES1    0.0000
     12 H4        -3.0095   -2.5841   14.2673 H         1 RES1    0.0000
     13 H5        -2.0927   -1.8272   15.2887 H         1 RES1    0.0000
     14 H6        -1.6321   -3.2008   14.6906 H         1 RES1    0.0000
     15 C7        -1.2242    1.4216    9.8114 C.3       1 RES1    0.0000
     16 H7        -1.6898    2.0034   10.4159 H         1 RES1    0.0000
     17 H8        -1.8557    0.9969    9.2261 H         1 RES1    0.0000
     18 H9        -0.6002    1.9325    9.2919 H         1 RES1    0.0000
     19 C8         1.6849   -0.1949    9.5516 C.3       1 RES1    0.0000
     20 H10        2.1095    0.2911   10.2619 H         1 RES1    0.0000
     21 H11        1.5514    0.3892    8.8012 H         1 RES1    0.0000
     22 H12        2.2442   -0.9302    9.2886 H         1 RES1    0.0000
     23 C9        -0.3605   -1.5168    8.9247 C.3       1 RES1    0.0000
     24 H13       -1.2001   -1.8552    9.2454 H         1 RES1    0.0000
     25 H14        0.1993   -2.2494    8.6569 H         1 RES1    0.0000
     26 H15       -0.5143   -0.9410    8.1711 H         1 RES1    0.0000
     27 O1         1.6835   -2.2985   11.2783 O.3       1 RES1    0.0000
     28 O2        -1.4644   -1.6987   13.4266 O.3       1 RES1    0.0000
     29 O3        -0.9426    1.2743   12.6921 O.2       1 RES1    0.0000
     30 N3        -7.4088    2.6587   12.7424 N.3       2 RES2    0.0000
     31 C10       -7.8636    3.4549   11.6083 C.3       2 RES2    0.0000
     32 H16       -8.8015    3.2510   11.4100 H         2 RES2    0.0000
     33 N4        -7.7495    4.8195   12.1623 N.pl3     2 RES2    0.0000
     34 C11       -7.6551    4.8205   13.4527 C.2       2 RES2    0.0000
     35 C12       -7.7447    3.4246   13.9790 C.3       2 RES2    0.0000
     36 C13       -7.0351    3.2812   10.3812 C.2       2 RES2    0.0000
     37 C14       -7.5572    2.9259    9.2229 C.2       2 RES2    0.0000
     38 H17       -7.0109    2.8309    8.4757 H         2 RES2    0.0000
     39 H18       -8.4717    2.7700    9.1524 H         2 RES2    0.0000
     40 C15       -4.8138    3.3203    9.5676 C.3       2 RES2    0.0000
     41 H19       -3.9262    3.5316    9.8659 H         2 RES2    0.0000
     42 H20       -5.0439    3.8809    8.8237 H         2 RES2    0.0000
     43 H21       -4.8491    2.3992    9.2967 H         2 RES2    0.0000
     44 C16       -7.5667    6.0678   14.2464 C.3       2 RES2    0.0000
     45 H22       -7.5161    6.8210   13.6548 H         2 RES2    0.0000
     46 H23       -6.7824    6.0410   14.7996 H         2 RES2    0.0000
     47 H24       -8.3462    6.1496   14.8028 H         2 RES2    0.0000
     48 C17       -9.1474    3.1470   14.5190 C.3       2 RES2    0.0000
     49 H25       -9.7982    3.3579   13.8440 H         2 RES2    0.0000
     50 H26       -9.3056    3.6901   15.2951 H         2 RES2    0.0000
     51 H27       -9.2220    2.2203   14.7563 H         2 RES2    0.0000
     52 C18       -6.7008    3.0995   15.0385 C.3       2 RES2    0.0000
     53 H28       -5.8246    3.2742   14.6890 H         2 RES2    0.0000
     54 H29       -6.7696    2.1736   15.2822 H         2 RES2    0.0000
     55 H30       -6.8507    3.6463   15.8130 H         2 RES2    0.0000
     56 O4        -8.1168    1.4118   12.6895 O.3       2 RES2    0.0000
     57 O5        -5.7375    3.5381   10.6323 O.3       2 RES2    0.0000
     58 O6        -7.7998    5.8461   11.3588 O.2       2 RES2    0.0000
     59 N5        -1.4779    4.4587   11.5644 N.3       3 RES3    0.0000
     60 C19       -0.9797    5.5160   10.6743 C.3       3 RES3    0.0000
     61 H31       -0.1360    5.8765   11.0187 H         3 RES3    0.0000
     62 N6        -2.0525    6.5204   10.8100 N.pl3     3 RES3    0.0000
     63 C20       -2.8065    6.3031   11.8333 C.2       3 RES3    0.0000
     64 C21       -2.2766    5.1476   12.6228 C.3       3 RES3    0.0000
     65 C22       -0.8035    5.0585    9.2678 C.2       3 RES3    0.0000
     66 C23        0.3885    4.9833    8.7194 C.2       3 RES3    0.0000
     67 H32        0.4808    4.6659    7.8488 H         3 RES3    0.0000
     68 H33        1.1399    5.2472    9.1989 H         3 RES3    0.0000
     69 C24       -1.9759    4.2238    7.3742 C.3       3 RES3    0.0000
     70 H34       -2.8741    4.0203    7.1032 H         3 RES3    0.0000
     71 H35       -1.4397    3.4295    7.3309 H         3 RES3    0.0000
     72 H36       -1.6086    4.8917    6.7905 H         3 RES3    0.0000
     73 C25       -3.9676    7.1701   12.1684 C.3       3 RES3    0.0000
     74 H37       -4.0742    7.8389   11.4869 H         3 RES3    0.0000
     75 H38       -3.8145    7.5981   13.0150 H         3 RES3    0.0000
     76 H39       -4.7633    6.6353   12.2197 H         3 RES3    0.0000
     77 C26       -1.4131    5.6849   13.7734 C.3       3 RES3    0.0000
     78 H40       -0.7480    6.2808   13.4223 H         3 RES3    0.0000
     79 H41       -0.9830    4.9517   14.2192 H         3 RES3    0.0000
     80 H42       -1.9691    6.1564   14.3972 H         3 RES3    0.0000
     81 C27       -3.3323    4.1919   13.1353 C.3       3 RES3    0.0000
     82 H43       -3.8556    3.8675   12.3977 H         3 RES3    0.0000
     83 H44       -3.9050    4.6504   13.7558 H         3 RES3    0.0000
     84 H45       -2.9082    3.4530   13.5762 H         3 RES3    0.0000
     85 O7        -0.3281    3.8155   12.1232 O.3       3 RES3    0.0000
     86 O8        -1.9851    4.7172    8.7119 O.3       3 RES3    0.0000
     87 O9        -2.1074    7.5211    9.9680 O.2       3 RES3    0.0000
     88 N7        -5.6084   -3.3230   12.5088 N.3       4 RES4    0.0000
     89 C28       -6.5496   -2.6277   13.3918 C.3       4 RES4    0.0000
     90 H46       -7.4664   -2.7489   13.0679 H         4 RES4    0.0000
     91 N8        -6.1254   -1.2217   13.2031 N.pl3     4 RES4    0.0000
     92 C29       -5.3550   -1.0650   12.1812 C.2       4 RES4    0.0000
     93 C30       -5.2205   -2.3579   11.4339 C.3       4 RES4    0.0000
     94 C31       -6.4490   -3.0490   14.8205 C.2       4 RES4    0.0000
     95 C32       -7.4532   -3.5792   15.4763 C.2       4 RES4    0.0000
     96 H47       -7.3507   -3.8198   16.3678 H         4 RES4    0.0000
     97 H48       -8.2679   -3.7136   15.0481 H         4 RES4    0.0000
     98 C33       -4.9164   -3.1815   16.6500 C.3       4 RES4    0.0000
     99 H49       -4.0120   -2.9413   16.8648 H         4 RES4    0.0000
    100 H50       -5.0243   -4.1315   16.7382 H         4 RES4    0.0000
    101 H51       -5.5165   -2.7338   17.2513 H         4 RES4    0.0000
    102 C34       -4.7869    0.2574   11.8060 C.3       4 RES4    0.0000
    103 H52       -5.0221    0.9074   12.4730 H         4 RES4    0.0000
    104 H53       -5.1407    0.5278   10.9562 H         4 RES4    0.0000
    105 H54       -3.8314    0.1901   11.7483 H         4 RES4    0.0000
    106 C35       -6.1682   -2.3547   10.2379 C.3       4 RES4    0.0000
    107 H55       -7.0612   -2.1713   10.5377 H         4 RES4    0.0000
    108 H56       -6.1443   -3.2138    9.8082 H         4 RES4    0.0000
    109 H57       -5.8951   -1.6779    9.6141 H         4 RES4    0.0000
    110 C36       -3.7928   -2.6618   10.9899 C.3       4 RES4    0.0000
    111 H58       -3.2140   -2.6661   11.7563 H         4 RES4    0.0000
    112 H59       -3.4998   -1.9890   10.3710 H         4 RES4    0.0000
    113 H60       -3.7665   -3.5224   10.5650 H         4 RES4    0.0000
    114 O10       -6.3032   -4.4488   11.9665 O.3       4 RES4    0.0000
    115 O11       -5.2073   -2.7903   15.3049 O.3       4 RES4    0.0000
    116 O12       -6.5827   -0.3053   14.0226 O.2       4 RES4    0.0000
    117 H61        1.4786   -3.1439   10.7911 H         1 RES1    0.0000
    118 H62       -0.6459    2.8980   12.2822 H         3 RES3    0.0000
    119 H63       -7.4997    0.7701   13.1160 H         2 RES2    0.0000
    120 H64       -5.5743   -5.1820   11.8974 H         4 RES4    0.0000
@<TRIPOS>BOND
     1    1    2 1
     2    2    3 1
     3    4    2 1
     4    5    4 2
     5    6    1 1
     6    7    2 1
     7    8    7 2
     8    9    8 1
     9   10    8 1
    10   11   12 1
    11   13   11 1
    12   14   11 1
    13   15    5 1
    14   16   15 1
    15   17   15 1
    16   18   15 1
    17   19    6 1
    18   20   19 1
    19   21   19 1
    20   22   19 1
    21   23    6 1
    22   24   23 1
    23   25   23 1
    24   26   23 1
    25   27    1 1
    26   28    7 1
    27   29    4 1
    28   30   31 1
    29   31   32 1
    30   33   31 1
    31   34   33 2
    32   35   30 1
    33   36   31 1
    34   37   36 2
    35   38   37 1
    36   39   37 1
    37   40   41 1
    38   42   40 1
    39   43   40 1
    40   44   34 1
    41   45   44 1
    42   46   44 1
    43   47   44 1
    44   48   35 1
    45   49   48 1
    46   50   48 1
    47   51   48 1
    48   52   35 1
    49   53   52 1
    50   54   52 1
    51   55   52 1
    52   56   30 1
    53   57   36 1
    54   58   33 1
    55   59   60 1
    56   60   61 1
    57   62   60 1
    58   63   62 2
    59   64   59 1
    60   65   60 1
    61   66   65 2
    62   67   66 1
    63   68   66 1
    64   69   70 1
    65   71   69 1
    66   72   69 1
    67   73   63 1
    68   74   73 1
    69   75   73 1
    70   76   73 1
    71   77   64 1
    72   78   77 1
    73   79   77 1
    74   80   77 1
    75   81   64 1
    76   82   81 1
    77   83   81 1
    78   84   81 1
    79   85   59 1
    80   86   65 1
    81   87   62 1
    82   88   89 1
    83   89   90 1
    84   91   89 1
    85   92   91 2
    86   93   88 1
    87   94   89 1
    88   95   94 2
    89   96   95 1
    90   97   95 1
    91   98   99 1
    92  100   98 1
    93  101   98 1
    94  102   92 1
    95  103  102 1
    96  104  102 1
    97  105  102 1
    98  106   93 1
    99  107  106 1
   100  108  106 1
   101  109  106 1
   102  110   93 1
   103  111  110 1
   104  112  110 1
   105  113  110 1
   106  114   88 1
   107  115   94 1
   108  116   91 1
   109  117   27 1
   110  118   85 1
   111  119   56 1
   112  120  114 1
   113    5    6 1
   114   11   28 1
   115   34   35 1
   116   40   57 1
   117   63   64 1
   118   69   86 1
   119   92   93 1
   120   98  115 1
@<TRIPOS>SUBSTRUCTURE
     1 RES1 1
     2 RES2 30
     3 RES3 59
     4 RES4 88

@<TRIPOS>CRYSIN
  11.1390   12.5570   16.5720  90.0370 104.0820 105.5020   2 1

