# MOL2 file generated by ConQuest
# Please check atom types

@<TRIPOS>MOLECULE
WEHPII
    40    43     1
SMALL
NO_CHARGES
****
Generated from CSD

@<TRIPOS>ATOM
      1 O1         2.9824    1.0185    5.5654 O.3       1 RES1    0.0000
      2 O2         1.1577   -0.7418    2.4228 O.3       1 RES1    0.0000
      3 O3        -0.2652   -1.7336    3.8314 O.2       1 RES1    0.0000
      4 N1        -1.4574    1.1953    5.9081 N.3       1 RES1    0.0000
      5 N2         2.2099    0.4372    6.6933 N.3       1 RES1    0.0000
      6 C1        -0.1058    1.2075    6.2464 C.2       1 RES1    0.0000
      7 C2         0.2167    2.4449    6.7243 C.2       1 RES1    0.0000
      8 C3        -0.9570    3.2508    6.6872 C.ar      1 RES1    0.0000
      9 C4        -1.2453    4.5723    7.0532 C.ar      1 RES1    0.0000
     10 C5        -2.5270    5.0331    6.9120 C.ar      1 RES1    0.0000
     11 C6        -3.5413    4.2040    6.4178 C.ar      1 RES1    0.0000
     12 C7        -3.2885    2.8988    6.0458 C.ar      1 RES1    0.0000
     13 C8        -1.9800    2.4375    6.1862 C.ar      1 RES1    0.0000
     14 C9         0.8714    0.0535    6.1156 C.3       1 RES1    0.0000
     15 C10        1.3099   -0.1787    4.6639 C.2       1 RES1    0.0000
     16 C11        2.4582    0.4448    4.4754 C.2       1 RES1    0.0000
     17 C12        2.2128    1.4765    7.7308 C.3       1 RES1    0.0000
     18 C13        1.5625    2.7754    7.3046 C.3       1 RES1    0.0000
     19 C14       -2.2983    0.0849    5.4595 C.3       1 RES1    0.0000
     20 C15        0.4272   -1.2074    6.8620 C.3       1 RES1    0.0000
     21 C16        0.6310   -0.9621    3.6497 C.2       1 RES1    0.0000
     22 C17        0.5953   -1.5148    1.3492 C.3       1 RES1    0.0000
     23 H1        -0.5250    5.1642    7.4225 H         1 RES1    0.0000
     24 H2        -2.7435    5.9766    7.1677 H         1 RES1    0.0000
     25 H3        -4.4782    4.5703    6.3429 H         1 RES1    0.0000
     26 H4        -4.0181    2.3062    5.6945 H         1 RES1    0.0000
     27 H5         2.9043    0.4852    3.5757 H         1 RES1    0.0000
     28 H6         3.1581    1.6683    7.9856 H         1 RES1    0.0000
     29 H7         1.7146    1.1282    8.5272 H         1 RES1    0.0000
     30 H8         2.1256    3.2358    6.6123 H         1 RES1    0.0000
     31 H9         1.4515    3.3864    8.0924 H         1 RES1    0.0000
     32 H10       -3.0242    0.4370    4.8628 H         1 RES1    0.0000
     33 H11       -2.7585   -0.3538    6.1526 H         1 RES1    0.0000
     34 H12       -1.8083   -0.6026    4.8930 H         1 RES1    0.0000
     35 H13        1.0986   -1.9309    6.7475 H         1 RES1    0.0000
     36 H14        0.3333   -0.9928    7.8427 H         1 RES1    0.0000
     37 H15       -0.4612   -1.5081    6.5125 H         1 RES1    0.0000
     38 H16        1.0381   -1.2838    0.4968 H         1 RES1    0.0000
     39 H17        0.7107   -2.4888    1.5480 H         1 RES1    0.0000
     40 H18       -0.3916   -1.3136    1.2854 H         1 RES1    0.0000
@<TRIPOS>BOND
     1    1    5 1
     2    2   21 1
     3    3   21 2
     4    4    6 1
     5    5   14 1
     6    6    7 2
     7    7    8 1
     8    8    9 ar
     9    9   10 ar
    10   10   11 ar
    11   11   12 ar
    12   12   13 ar
    13   13    4 1
    14   14    6 1
    15   15   14 1
    16   16    1 1
    17   17    5 1
    18   18    7 1
    19   19    4 1
    20   20   14 1
    21   21   15 1
    22   22    2 1
    23   23    9 1
    24   24   10 1
    25   25   11 1
    26   26   12 1
    27   27   16 1
    28   28   17 1
    29   29   17 1
    30   30   18 1
    31   31   18 1
    32   32   19 1
    33   33   19 1
    34   34   19 1
    35   35   20 1
    36   36   20 1
    37   37   20 1
    38   38   22 1
    39   39   22 1
    40   40   22 1
    41    8   13 ar
    42   15   16 2
    43   17   18 1
@<TRIPOS>SUBSTRUCTURE
     1 RES1 1

@<TRIPOS>CRYSIN
   9.0430    9.6910   10.4810 109.5200 114.9300  96.4700   2 1

