# MOL2 file generated by ConQuest
# Please check atom types

@<TRIPOS>MOLECULE
WEHTEI
    49    50     1
SMALL
NO_CHARGES
****
Generated from CSD

@<TRIPOS>ATOM
      1 N1        -2.4658    2.5095   -0.7339 N.pl3     1 RES1    0.0000
      2 O1        -1.8854    1.8199   -1.5168 O.2       1 RES1    0.0000
      3 O2        -2.6513    2.1832    0.3976 O.2       1 RES1    0.0000
      4 O3        -1.2188    5.1798   -1.2517 O.3       1 RES1    0.0000
      5 O4        -3.9244    5.0106   -3.6718 O.3       1 RES1    0.0000
      6 O5        -2.9027    7.6754   -4.0424 O.3       1 RES1    0.0000
      7 O6         1.5506    5.4506   -0.3952 O.3       1 RES1    0.0000
      8 C1        -3.1064    3.7702   -1.1904 C.3       1 RES1    0.0000
      9 C2        -2.2006    4.5836   -2.0862 C.3       1 RES1    0.0000
     10 C3        -3.0093    5.6660   -2.8029 C.3       1 RES1    0.0000
     11 C4        -2.0955    6.5995   -3.5613 C.3       1 RES1    0.0000
     12 C5        -0.9485    7.0940   -2.6876 C.3       1 RES1    0.0000
     13 C6        -0.2478    5.9442   -1.9660 C.3       1 RES1    0.0000
     14 C7         0.7340    6.4599   -0.9425 C.3       1 RES1    0.0000
     15 O7         0.0587    7.7290   -3.5049 O.3       1 RES1    0.0000
     16 O8         2.2521    9.3105   -2.6655 O.3       1 RES1    0.0000
     17 O9         2.6477   11.6508   -4.1970 O.3       1 RES1    0.0000
     18 O10        0.1493   12.9910   -4.9186 O.3       1 RES1    0.0000
     19 O11       -0.7637    9.4648   -4.7026 O.3       1 RES1    0.0000
     20 O12       -3.0382   10.3106   -5.9470 O.3       1 RES1    0.0000
     21 C8         0.0283    9.1136   -3.5589 C.3       1 RES1    0.0000
     22 C9         1.4434    9.6562   -3.7601 C.3       1 RES1    0.0000
     23 C10        1.3376   11.1757   -3.8927 C.3       1 RES1    0.0000
     24 C11        0.3507   11.5843   -4.9653 C.3       1 RES1    0.0000
     25 C12       -0.9927   10.8836   -4.7984 C.3       1 RES1    0.0000
     26 C13       -1.8941   11.1119   -5.9936 C.3       1 RES1    0.0000
     27 H1        -3.7027    5.1567   -4.4781 H         1 RES1    0.0000
     28 H2        -2.4086    8.2475   -4.4326 H         1 RES1    0.0000
     29 H3         1.1065    5.0042    0.1767 H         1 RES1    0.0000
     30 H4        -3.3484    4.3017   -0.4172 H         1 RES1    0.0000
     31 H5        -3.9208    3.5567   -1.6727 H         1 RES1    0.0000
     32 H6        -1.7731    4.0050   -2.7376 H         1 RES1    0.0000
     33 H7        -3.5078    6.1762   -2.1449 H         1 RES1    0.0000
     34 H8        -1.7253    6.1235   -4.3215 H         1 RES1    0.0000
     35 H9        -1.2862    7.7290   -2.0357 H         1 RES1    0.0000
     36 H10        0.2094    5.3794   -2.6093 H         1 RES1    0.0000
     37 H11        1.2978    7.1310   -1.3561 H         1 RES1    0.0000
     38 H12        0.2427    6.8897   -0.2236 H         1 RES1    0.0000
     39 H13        1.8419    9.4889   -1.9427 H         1 RES1    0.0000
     40 H14        2.6962   12.4799   -4.0203 H         1 RES1    0.0000
     41 H15        0.4862   13.3497   -5.6108 H         1 RES1    0.0000
     42 H16       -3.6281   10.6858   -5.4635 H         1 RES1    0.0000
     43 H17       -0.3637    9.4768   -2.7502 H         1 RES1    0.0000
     44 H18        1.8209    9.2855   -4.5730 H         1 RES1    0.0000
     45 H19        1.0550   11.5491   -3.0442 H         1 RES1    0.0000
     46 H20        0.7181   11.3513   -5.8329 H         1 RES1    0.0000
     47 H21       -1.4296   11.1997   -3.9928 H         1 RES1    0.0000
     48 H22       -2.1593   12.0446   -6.0187 H         1 RES1    0.0000
     49 H23       -1.4021   10.9188   -6.8061 H         1 RES1    0.0000
@<TRIPOS>BOND
     1    1    2 2
     2    3    1 2
     3    4    9 1
     4    5   10 1
     5    6   11 1
     6    7   14 1
     7    8    1 1
     8    9    8 1
     9   10    9 1
    10   11   10 1
    11   12   11 1
    12   13    4 1
    13   14   13 1
    14   15   12 1
    15   16   22 1
    16   17   23 1
    17   18   24 1
    18   19   21 1
    19   20   26 1
    20   21   15 1
    21   22   21 1
    22   23   22 1
    23   24   23 1
    24   25   19 1
    25   26   25 1
    26   27    5 1
    27   28    6 1
    28   29    7 1
    29   30    8 1
    30   31    8 1
    31   32    9 1
    32   33   10 1
    33   34   11 1
    34   35   12 1
    35   36   13 1
    36   37   14 1
    37   38   14 1
    38   39   16 1
    39   40   17 1
    40   41   18 1
    41   42   20 1
    42   43   21 1
    43   44   22 1
    44   45   23 1
    45   46   24 1
    46   47   25 1
    47   48   26 1
    48   49   26 1
    49   12   13 1
    50   24   25 1
@<TRIPOS>SUBSTRUCTURE
     1 RES1 1

@<TRIPOS>CRYSIN
   7.2460    9.2430   24.5440  90.0000  90.0000  90.0000  19 1

