# MOL2 file generated by ConQuest
# Please check atom types

@<TRIPOS>MOLECULE
WEHTIM
    84    85     1
SMALL
NO_CHARGES
****
Generated from CSD

@<TRIPOS>ATOM
      1 N1         3.5289   -6.9867   10.3359 N.pl3     1 RES1    0.0000
      2 O1         4.6329   -6.9700    9.8493 O.2       1 RES1    0.0000
      3 O2         3.2786   -6.4690   11.3873 O.2       1 RES1    0.0000
      4 O3         1.9933   -5.7848    8.3026 O.3       1 RES1    0.0000
      5 O4         1.6664   -9.2268    7.2816 O.3       1 RES1    0.0000
      6 O5        -0.2808  -10.1178    7.9029 O.2       1 RES1    0.0000
      7 O6        -0.3431   -7.8458    5.6263 O.3       1 RES1    0.0000
      8 O7         0.7800   -9.3073    4.3511 O.2       1 RES1    0.0000
      9 O8         0.3884   -3.6002    8.2461 O.3       1 RES1    0.0000
     10 O9         1.6141   -2.8868    9.9622 O.2       1 RES1    0.0000
     11 C1         2.4447   -7.6751    9.5973 C.3       1 RES1    0.0000
     12 C2         2.3125   -7.1518    8.1918 C.3       1 RES1    0.0000
     13 C3         1.1874   -7.9013    7.4749 C.3       1 RES1    0.0000
     14 C4         0.8592  -10.2621    7.5618 C.2       1 RES1    0.0000
     15 C5         1.5621  -11.5598    7.3663 C.3       1 RES1    0.0000
     16 C6         0.8854   -7.2643    6.1346 C.3       1 RES1    0.0000
     17 C7        -0.2535   -8.9145    4.8073 C.2       1 RES1    0.0000
     18 C8        -1.5964   -9.5057    4.5423 C.3       1 RES1    0.0000
     19 C9         0.6592   -5.7584    6.2671 C.3       1 RES1    0.0000
     20 C10        1.8081   -5.1214    7.0600 C.3       1 RES1    0.0000
     21 C11        1.5622   -3.6793    7.4032 C.3       1 RES1    0.0000
     22 C12        0.5718   -3.2824    9.5212 C.2       1 RES1    0.0000
     23 C13       -0.6586   -3.4684   10.3446 C.3       1 RES1    0.0000
     24 O10        0.6826   -5.1325    4.9855 O.3       1 RES1    0.0000
     25 O11        0.6855   -6.0873    2.4330 O.3       1 RES1    0.0000
     26 O12       -0.9434   -7.2948    1.5966 O.2       1 RES1    0.0000
     27 O13        0.6484   -3.6696    1.0253 O.3       1 RES1    0.0000
     28 O14        2.8749   -3.6738    1.1318 O.2       1 RES1    0.0000
     29 O15        0.6425   -1.4157    2.8327 O.3       1 RES1    0.0000
     30 O16       -0.8972   -0.1069    1.8704 O.2       1 RES1    0.0000
     31 O17       -1.3114   -3.9458    4.6249 O.3       1 RES1    0.0000
     32 O18       -1.8604   -1.4712    6.1520 O.3       1 RES1    0.0000
     33 O19       -0.5273    0.0972    6.1064 O.2       1 RES1    0.0000
     34 C14       -0.5405   -5.0658    4.2729 C.3       1 RES1    0.0000
     35 C15       -0.2023   -5.0200    2.7958 C.3       1 RES1    0.0000
     36 C16        0.2166   -7.1158    1.7596 C.2       1 RES1    0.0000
     37 C17        1.2891   -8.0484    1.3251 C.3       1 RES1    0.0000
     38 C18        0.5213   -3.7348    2.4591 C.3       1 RES1    0.0000
     39 C19        1.8786   -3.6877    0.4823 C.2       1 RES1    0.0000
     40 C20        1.7919   -3.7085   -0.9884 C.3       1 RES1    0.0000
     41 C21       -0.2619   -2.5329    2.9131 C.3       1 RES1    0.0000
     42 C22        0.2156   -0.2679    2.2570 C.2       1 RES1    0.0000
     43 C23        1.3126    0.7314    2.1832 C.3       1 RES1    0.0000
     44 C24       -0.6976   -2.6786    4.3685 C.3       1 RES1    0.0000
     45 C25       -1.7276   -1.6280    4.7291 C.3       1 RES1    0.0000
     46 C26       -1.3349   -0.4899    6.7103 C.2       1 RES1    0.0000
     47 C27       -1.5050   -0.3997    8.1896 C.3       1 RES1    0.0000
     48 H1         1.6057   -7.5474   10.0676 H         1 RES1    0.0000
     49 H2         2.6297   -8.6258    9.5701 H         1 RES1    0.0000
     50 H3         3.1485   -7.2629    7.7121 H         1 RES1    0.0000
     51 H4         0.3894   -7.9124    8.0263 H         1 RES1    0.0000
     52 H5         2.5017  -11.4530    7.5814 H         1 RES1    0.0000
     53 H6         1.4718  -11.8402    6.4409 H         1 RES1    0.0000
     54 H7         1.1729  -12.2302    7.9463 H         1 RES1    0.0000
     55 H8         1.6126   -7.4350    5.5157 H         1 RES1    0.0000
     56 H9        -2.1333   -8.8742    4.0383 H         1 RES1    0.0000
     57 H10       -2.0351   -9.7028    5.3830 H         1 RES1    0.0000
     58 H11       -1.4935  -10.3232    4.0296 H         1 RES1    0.0000
     59 H12       -0.1875   -5.5863    6.7090 H         1 RES1    0.0000
     60 H13        2.6249   -5.1880    6.5411 H         1 RES1    0.0000
     61 H14        2.3301   -3.3143    7.8705 H         1 RES1    0.0000
     62 H15        1.4231   -3.1644    6.5941 H         1 RES1    0.0000
     63 H16       -0.6939   -4.3816   10.6704 H         1 RES1    0.0000
     64 H17       -1.4418   -3.2893    9.8015 H         1 RES1    0.0000
     65 H18       -0.6402   -2.8577   11.0983 H         1 RES1    0.0000
     66 H19       -1.0533   -5.8694    4.4541 H         1 RES1    0.0000
     67 H20       -1.0168   -5.0825    2.2727 H         1 RES1    0.0000
     68 H21        1.6218   -8.5384    2.0941 H         1 RES1    0.0000
     69 H22        2.0143   -7.5432    0.9254 H         1 RES1    0.0000
     70 H23        0.9318   -8.6716    0.6734 H         1 RES1    0.0000
     71 H24        1.4002   -3.7335    2.8688 H         1 RES1    0.0000
     72 H25        1.1720   -3.0242   -1.2860 H         1 RES1    0.0000
     73 H26        1.4783   -4.5787   -1.2817 H         1 RES1    0.0000
     74 H27        2.6686   -3.5364   -1.3668 H         1 RES1    0.0000
     75 H28       -1.0315   -2.3914    2.3407 H         1 RES1    0.0000
     76 H29        2.1062    0.3137    1.8139 H         1 RES1    0.0000
     77 H30        1.5062    1.0631    3.0738 H         1 RES1    0.0000
     78 H31        1.0410    1.4684    1.6162 H         1 RES1    0.0000
     79 H32        0.0758   -2.5773    4.9453 H         1 RES1    0.0000
     80 H33       -1.4690   -0.7800    4.3381 H         1 RES1    0.0000
     81 H34       -2.5861   -1.8806    4.3555 H         1 RES1    0.0000
     82 H35       -1.7154   -1.2769    8.5459 H         1 RES1    0.0000
     83 H36       -2.2292    0.2123    8.3960 H         1 RES1    0.0000
     84 H37       -0.6837   -0.0736    8.5915 H         1 RES1    0.0000
@<TRIPOS>BOND
     1    1    2 2
     2    3    1 2
     3    4   12 1
     4    5   13 1
     5    6   14 2
     6    7   16 1
     7    8   17 2
     8    9   21 1
     9   10   22 2
    10   11    1 1
    11   12   11 1
    12   13   12 1
    13   14    5 1
    14   15   14 1
    15   16   13 1
    16   17    7 1
    17   18   17 1
    18   19   16 1
    19   20    4 1
    20   21   20 1
    21   22    9 1
    22   23   22 1
    23   24   19 1
    24   25   35 1
    25   26   36 2
    26   27   38 1
    27   28   39 2
    28   29   41 1
    29   30   42 2
    30   31   34 1
    31   32   45 1
    32   33   46 2
    33   34   24 1
    34   35   34 1
    35   36   25 1
    36   37   36 1
    37   38   35 1
    38   39   27 1
    39   40   39 1
    40   41   38 1
    41   42   29 1
    42   43   42 1
    43   44   31 1
    44   45   44 1
    45   46   32 1
    46   47   46 1
    47   48   11 1
    48   49   11 1
    49   50   12 1
    50   51   13 1
    51   52   15 1
    52   53   15 1
    53   54   15 1
    54   55   16 1
    55   56   18 1
    56   57   18 1
    57   58   18 1
    58   59   19 1
    59   60   20 1
    60   61   21 1
    61   62   21 1
    62   63   23 1
    63   64   23 1
    64   65   23 1
    65   66   34 1
    66   67   35 1
    67   68   37 1
    68   69   37 1
    69   70   37 1
    70   71   38 1
    71   72   40 1
    72   73   40 1
    73   74   40 1
    74   75   41 1
    75   76   43 1
    76   77   43 1
    77   78   43 1
    78   79   44 1
    79   80   45 1
    80   81   45 1
    81   82   47 1
    82   83   47 1
    83   84   47 1
    84   19   20 1
    85   41   44 1
@<TRIPOS>SUBSTRUCTURE
     1 RES1 1

@<TRIPOS>CRYSIN
   5.6240   13.8790   21.7430  90.0000  92.4500  90.0000   4 1

