# MOL2 file generated by ConQuest
# Please check atom types

@<TRIPOS>MOLECULE
WEJCUJ
    49    52     1
SMALL
NO_CHARGES
****
Generated from CSD

@<TRIPOS>ATOM
      1 N1         0.4258    2.4577   14.1344 N.2       1 RES1    0.0000
      2 C1         1.0567    3.4670   13.5623 C.2       1 RES1    0.0000
      3 N2         1.7874    4.1489   14.4995 N.pl3     1 RES1    0.0000
      4 C2         1.5768    3.5284   15.7310 C.2       1 RES1    0.0000
      5 C3         0.7426    2.4749   15.4694 C.2       1 RES1    0.0000
      6 C4         0.2234    1.4643   16.4357 C.3       1 RES1    0.0000
      7 C5         2.0942    4.0336   17.0296 C.3       1 RES1    0.0000
      8 C6         1.0338    4.6934   17.8942 C.ar      1 RES1    0.0000
      9 C7         0.1383    5.6059   17.3547 C.ar      1 RES1    0.0000
     10 C8        -0.7756    6.2497   18.1539 C.ar      1 RES1    0.0000
     11 C9        -0.8223    5.9946   19.4998 C.ar      1 RES1    0.0000
     12 C10        0.0549    5.0908   20.0447 C.ar      1 RES1    0.0000
     13 C11        0.9587    4.4310   19.2382 C.ar      1 RES1    0.0000
     14 C12        2.5246    5.3643   14.3161 C.2       1 RES1    0.0000
     15 N3         1.9642    6.4693   14.0818 N.2       1 RES1    0.0000
     16 O1         0.5961    6.3822   14.0436 O.3       1 RES1    0.0000
     17 C13        4.0034    5.2698   14.3851 C.ar      1 RES1    0.0000
     18 C14        4.6325    4.0533   14.1562 C.ar      1 RES1    0.0000
     19 C15        6.0262    3.9551   14.1708 C.ar      1 RES1    0.0000
     20 C16        6.7753    5.0552   14.4105 C.ar      1 RES1    0.0000
     21 C17        6.1636    6.2792   14.6594 C.ar      1 RES1    0.0000
     22 C18        4.7754    6.3908   14.6539 C.ar      1 RES1    0.0000
     23 C19        0.9688    3.7810   12.1293 C.ar      1 RES1    0.0000
     24 C20        2.0338    4.3047   11.4027 C.ar      1 RES1    0.0000
     25 C21        1.8808    4.5536   10.0441 C.ar      1 RES1    0.0000
     26 C22        0.7051    4.2838    9.4248 C.ar      1 RES1    0.0000
     27 C23       -0.3443    3.7589   10.1204 C.ar      1 RES1    0.0000
     28 C24       -0.2326    3.5124   11.4772 C.ar      1 RES1    0.0000
     29 H1         0.4304    7.2480   13.8039 H         1 RES1    0.0000
     30 H2        -0.9935    3.1494   11.9767 H         1 RES1    0.0000
     31 H3        -1.1831    3.5566    9.6573 H         1 RES1    0.0000
     32 H4         0.6135    4.4665    8.4676 H         1 RES1    0.0000
     33 H5         2.6271    4.9264    9.5301 H         1 RES1    0.0000
     34 H6         2.8863    4.4972   11.8459 H         1 RES1    0.0000
     35 H7         0.5696    1.6593   17.3311 H         1 RES1    0.0000
     36 H8         0.5146    0.5703   16.1614 H         1 RES1    0.0000
     37 H9        -0.7564    1.4987   16.4502 H         1 RES1    0.0000
     38 H10        2.4724    3.2782   17.5255 H         1 RES1    0.0000
     39 H11        2.7975    4.6910   16.8480 H         1 RES1    0.0000
     40 H12        0.1575    5.7923   16.3921 H         1 RES1    0.0000
     41 H13       -1.3983    6.8948   17.7598 H         1 RES1    0.0000
     42 H14       -1.4743    6.4545   20.0683 H         1 RES1    0.0000
     43 H15        0.0366    4.9117   21.0073 H         1 RES1    0.0000
     44 H16        1.5594    3.7650   19.6342 H         1 RES1    0.0000
     45 H17        4.0932    3.2536   13.9819 H         1 RES1    0.0000
     46 H18        6.4603    3.0918   14.0091 H         1 RES1    0.0000
     47 H19        7.7532    4.9890   14.4105 H         1 RES1    0.0000
     48 H20        6.7148    7.0702   14.8392 H         1 RES1    0.0000
     49 H21        4.3477    7.2542   14.8374 H         1 RES1    0.0000
@<TRIPOS>BOND
     1    1    2 2
     2    2    3 1
     3    3    4 1
     4    4    5 2
     5    5    1 1
     6    6    5 1
     7    7    4 1
     8    8    7 1
     9    9    8 ar
    10   10    9 ar
    11   11   10 ar
    12   12   11 ar
    13   13    8 ar
    14   14    3 1
    15   15   14 2
    16   16   15 1
    17   17   14 1
    18   18   17 ar
    19   19   18 ar
    20   20   19 ar
    21   21   20 ar
    22   22   17 ar
    23   23    2 1
    24   24   23 ar
    25   25   24 ar
    26   26   25 ar
    27   27   26 ar
    28   28   23 ar
    29   29   16 1
    30   30   28 1
    31   31   27 1
    32   32   26 1
    33   33   25 1
    34   34   24 1
    35   35    6 1
    36   36    6 1
    37   37    6 1
    38   38    7 1
    39   39    7 1
    40   40    9 1
    41   41   10 1
    42   42   11 1
    43   43   12 1
    44   44   13 1
    45   45   18 1
    46   46   19 1
    47   47   20 1
    48   48   21 1
    49   49   22 1
    50   12   13 ar
    51   21   22 ar
    52   27   28 ar
@<TRIPOS>SUBSTRUCTURE
     1 RES1 1

@<TRIPOS>CRYSIN
   9.1570   12.2640   18.1630  90.0000  90.0000  90.0000  19 1

