# MOL2 file generated by ConQuest
# Please check atom types

@<TRIPOS>MOLECULE
WEJFOJ
    63    65     2
SMALL
NO_CHARGES
****
Generated from CSD

@<TRIPOS>ATOM
      1 N1        -0.3722    3.5073    0.3688 N.ar      1 RES1    0.0000
      2 N2         3.1301    1.2455    2.9086 N.3       1 RES1    0.0000
      3 N3         1.5586    0.0274    1.9056 N.2       1 RES1    0.0000
      4 C1         0.3319    4.6529    0.3177 C.ar      1 RES1    0.0000
      5 C2         1.6194    4.7624    0.8292 C.ar      1 RES1    0.0000
      6 C3         2.2015    3.6588    1.4184 C.ar      1 RES1    0.0000
      7 C4         1.4868    2.4656    1.4910 C.ar      1 RES1    0.0000
      8 C5         0.2003    2.4399    0.9414 C.ar      1 RES1    0.0000
      9 C6         2.0510    1.2491    2.0997 C.2       1 RES1    0.0000
     10 C7         3.2903   -0.1016    3.5227 C.3       1 RES1    0.0000
     11 C8         2.6656   -0.0084    4.9204 C.3       1 RES1    0.0000
     12 C9         4.7646   -0.4672    3.6221 C.3       1 RES1    0.0000
     13 C10        2.4684   -0.9681    2.5350 C.3       1 RES1    0.0000
     14 C11        1.6628   -2.0910    3.1653 C.3       1 RES1    0.0000
     15 C12        3.2865   -1.5441    1.3740 C.3       1 RES1    0.0000
     16 O1         3.9357    2.1214    3.1561 O.2       1 RES1    0.0000
     17 H1         2.0916    5.5847    0.7696 H         1 RES1    0.0000
     18 H2         3.0804    3.7106    1.7758 H         1 RES1    0.0000
     19 H3        -0.2907    1.6269    0.9688 H         1 RES1    0.0000
     20 H4         2.7458   -0.8475    5.3598 H         1 RES1    0.0000
     21 H5         3.1207    0.6568    5.4228 H         1 RES1    0.0000
     22 H6         1.7473    0.2231    4.8456 H         1 RES1    0.0000
     23 H7         4.8557   -1.3262    4.0165 H         1 RES1    0.0000
     24 H8         5.2193    0.1749    4.1544 H         1 RES1    0.0000
     25 H9         5.1399   -0.4787    2.7497 H         1 RES1    0.0000
     26 H10        2.2562   -2.7164    3.5636 H         1 RES1    0.0000
     27 H11        1.0813   -1.7380    3.8292 H         1 RES1    0.0000
     28 H12        1.1505   -2.5247    2.4926 H         1 RES1    0.0000
     29 H13        3.8931   -2.1978    1.7009 H         1 RES1    0.0000
     30 H14        3.7714   -0.8465    0.9484 H         1 RES1    0.0000
     31 H15        2.6943   -1.9443    0.7491 H         1 RES1    0.0000
     32 O2         0.8250   -0.3447    1.0778 Du        2 SUP2    0.0000
     33 N1B        0.3722    6.9686   -0.3688 N.ar      1 RES1    0.0000
     34 N2B       -3.1301    9.2304   -2.9086 N.3       1 RES1    0.0000
     35 N3B       -1.5586   10.4485   -1.9056 N.2       1 RES1    0.0000
     36 C1B       -0.3319    5.8230   -0.3177 C.ar      1 RES1    0.0000
     37 C2B       -1.6194    5.7135   -0.8292 C.ar      1 RES1    0.0000
     38 C3B       -2.2015    6.8171   -1.4184 C.ar      1 RES1    0.0000
     39 C4B       -1.4868    8.0103   -1.4910 C.ar      1 RES1    0.0000
     40 C5B       -0.2003    8.0360   -0.9414 C.ar      1 RES1    0.0000
     41 C6B       -2.0510    9.2268   -2.0997 C.2       1 RES1    0.0000
     42 C7B       -3.2903   10.5775   -3.5227 C.3       1 RES1    0.0000
     43 C8B       -2.6656   10.4843   -4.9204 C.3       1 RES1    0.0000
     44 C9B       -4.7646   10.9431   -3.6221 C.3       1 RES1    0.0000
     45 C10B      -2.4684   11.4440   -2.5350 C.3       1 RES1    0.0000
     46 C11B      -1.6628   12.5669   -3.1653 C.3       1 RES1    0.0000
     47 C12B      -3.2865   12.0200   -1.3740 C.3       1 RES1    0.0000
     48 O1B       -3.9357    8.3545   -3.1561 O.2       1 RES1    0.0000
     49 H1B       -2.0916    4.8912   -0.7696 H         1 RES1    0.0000
     50 H2B       -3.0804    6.7653   -1.7758 H         1 RES1    0.0000
     51 H3B        0.2907    8.8490   -0.9688 H         1 RES1    0.0000
     52 H4B       -2.7458   11.3234   -5.3598 H         1 RES1    0.0000
     53 H5B       -3.1207    9.8191   -5.4228 H         1 RES1    0.0000
     54 H6B       -1.7473   10.2528   -4.8456 H         1 RES1    0.0000
     55 H7B       -4.8557   11.8021   -4.0165 H         1 RES1    0.0000
     56 H8B       -5.2193   10.3010   -4.1544 H         1 RES1    0.0000
     57 H9B       -5.1399   10.9546   -2.7497 H         1 RES1    0.0000
     58 H10B      -2.2562   13.1923   -3.5636 H         1 RES1    0.0000
     59 H11B      -1.0813   12.2139   -3.8292 H         1 RES1    0.0000
     60 H12B      -1.1505   13.0006   -2.4926 H         1 RES1    0.0000
     61 H13B      -3.8931   12.6737   -1.7009 H         1 RES1    0.0000
     62 H14B      -3.7714   11.3224   -0.9484 H         1 RES1    0.0000
     63 H15B      -2.6943   12.4202   -0.7491 H         1 RES1    0.0000
@<TRIPOS>BOND
     1    1    4 ar
     2    2    9 1
     3    3    9 2
     4    4    5 ar
     5    5    6 ar
     6    6    7 ar
     7    7    8 ar
     8    8    1 ar
     9    9    7 1
    10   10    2 1
    11   11   10 1
    12   12   10 1
    13   13    3 1
    14   14   13 1
    15   15   13 1
    16   16    2 1
    17   17    5 1
    18   18    6 1
    19   19    8 1
    20   20   11 1
    21   21   11 1
    22   22   11 1
    23   23   12 1
    24   24   12 1
    25   25   12 1
    26   26   14 1
    27   27   14 1
    28   28   14 1
    29   29   15 1
    30   30   15 1
    31   31   15 1
    32   33   36 ar
    33   34   41 1
    34   35   41 2
    35   36    4 1
    36   37   36 ar
    37   38   37 ar
    38   39   38 ar
    39   40   33 ar
    40   41   39 1
    41   42   34 1
    42   43   42 1
    43   44   42 1
    44   45   35 1
    45   46   45 1
    46   47   45 1
    47   48   34 1
    48   49   37 1
    49   50   38 1
    50   51   40 1
    51   52   43 1
    52   53   43 1
    53   54   43 1
    54   55   44 1
    55   56   44 1
    56   57   44 1
    57   58   46 1
    58   59   46 1
    59   60   46 1
    60   61   47 1
    61   62   47 1
    62   63   47 1
    63   10   13 1
    64   39   40 ar
    65   42   45 1
@<TRIPOS>SUBSTRUCTURE
     1 RES1 1
     2 SUP2 32

@<TRIPOS>CRYSIN
   6.3011   10.4759   17.1953  90.0000  98.0450  90.0000 231 1

