# MOL2 file generated by ConQuest
# Please check atom types

@<TRIPOS>MOLECULE
WEJGOK
    66    69     1
SMALL
NO_CHARGES
****
Generated from CSD

@<TRIPOS>ATOM
      1 O1         8.1057   -0.7507    3.0848 O.2       1 RES1    0.0000
      2 N1         5.3196    1.1942    2.4131 N.2       1 RES1    0.0000
      3 N2         7.2254    0.1604    2.9885 N.3       1 RES1    0.0000
      4 C1         5.3904   -1.1807    1.8602 C.ar      1 RES1    0.0000
      5 C2         6.2395    2.2530    2.9215 C.3       1 RES1    0.0000
      6 C3         5.9499    0.0692    2.4091 C.2       1 RES1    0.0000
      7 C4         6.0239   -2.4209    1.9592 C.ar      1 RES1    0.0000
      8 C5         5.4165   -3.5571    1.4394 C.ar      1 RES1    0.0000
      9 C6         7.3456    1.4742    3.6851 C.3       1 RES1    0.0000
     10 C7         4.1844   -3.4789    0.8020 C.ar      1 RES1    0.0000
     11 C8         3.5850   -4.6590    0.2365 C.1       1 RES1    0.0000
     12 C9         3.5477   -2.2381    0.7068 C.ar      1 RES1    0.0000
     13 C10        4.1404   -1.1082    1.2383 C.ar      1 RES1    0.0000
     14 C11        6.7773    2.9494    1.6696 C.3       1 RES1    0.0000
     15 C12        7.0034    1.2098    5.1520 C.3       1 RES1    0.0000
     16 C13        5.4643    3.2533    3.7686 C.3       1 RES1    0.0000
     17 C14        8.7676    2.0001    3.5564 C.3       1 RES1    0.0000
     18 H1         6.8737   -2.4844    2.3796 H         1 RES1    0.0000
     19 H2         5.8480   -4.3999    1.5203 H         1 RES1    0.0000
     20 H3         2.7069   -2.1701    0.2695 H         1 RES1    0.0000
     21 H4         3.6921   -0.2720    1.1944 H         1 RES1    0.0000
     22 H5         7.3726    3.6467    1.9172 H         1 RES1    0.0000
     23 H6         7.2394    2.3123    1.1379 H         1 RES1    0.0000
     24 H7         6.0536    3.3118    1.1725 H         1 RES1    0.0000
     25 H8         7.0713    2.0196    5.6441 H         1 RES1    0.0000
     26 H9         7.6044    0.5688    5.5131 H         1 RES1    0.0000
     27 H10        6.1147    0.8779    5.2090 H         1 RES1    0.0000
     28 H11        6.0517    3.9290    4.0856 H         1 RES1    0.0000
     29 H12        5.0728    2.8017    4.5062 H         1 RES1    0.0000
     30 H13        4.7804    3.6498    3.2408 H         1 RES1    0.0000
     31 H14        8.8378    2.8337    4.0073 H         1 RES1    0.0000
     32 H15        9.3710    1.3777    3.9454 H         1 RES1    0.0000
     33 H16        8.9806    2.1175    2.6382 H         1 RES1    0.0000
     34 O1B       -1.4174   -9.5536   -3.0848 O.2       1 RES1    0.0000
     35 N1B        1.3687  -11.4985   -2.4131 N.2       1 RES1    0.0000
     36 N2B       -0.5371  -10.4647   -2.9885 N.3       1 RES1    0.0000
     37 C1B        1.2979   -9.1236   -1.8602 C.ar      1 RES1    0.0000
     38 C2B        0.4488  -12.5573   -2.9215 C.3       1 RES1    0.0000
     39 C3B        0.7384  -10.3735   -2.4091 C.2       1 RES1    0.0000
     40 C4B        0.6644   -7.8834   -1.9592 C.ar      1 RES1    0.0000
     41 C5B        1.2718   -6.7472   -1.4394 C.ar      1 RES1    0.0000
     42 C6B       -0.6573  -11.7785   -3.6851 C.3       1 RES1    0.0000
     43 C7B        2.5039   -6.8254   -0.8020 C.ar      1 RES1    0.0000
     44 C8B        3.1033   -5.6453   -0.2365 C.1       1 RES1    0.0000
     45 C9B        3.1406   -8.0662   -0.7068 C.ar      1 RES1    0.0000
     46 C10B       2.5479   -9.1961   -1.2383 C.ar      1 RES1    0.0000
     47 C11B      -0.0890  -13.2537   -1.6696 C.3       1 RES1    0.0000
     48 C12B      -0.3151  -11.5141   -5.1520 C.3       1 RES1    0.0000
     49 C13B       1.2240  -13.5576   -3.7686 C.3       1 RES1    0.0000
     50 C14B      -2.0793  -12.3044   -3.5564 C.3       1 RES1    0.0000
     51 H1B       -0.1854   -7.8199   -2.3796 H         1 RES1    0.0000
     52 H2B        0.8403   -5.9044   -1.5203 H         1 RES1    0.0000
     53 H3B        3.9814   -8.1342   -0.2695 H         1 RES1    0.0000
     54 H4B        2.9962  -10.0323   -1.1944 H         1 RES1    0.0000
     55 H5B       -0.6843  -13.9510   -1.9172 H         1 RES1    0.0000
     56 H6B       -0.5511  -12.6166   -1.1379 H         1 RES1    0.0000
     57 H7B        0.6347  -13.6161   -1.1725 H         1 RES1    0.0000
     58 H8B       -0.3830  -12.3239   -5.6441 H         1 RES1    0.0000
     59 H9B       -0.9161  -10.8731   -5.5131 H         1 RES1    0.0000
     60 H10B       0.5736  -11.1822   -5.2090 H         1 RES1    0.0000
     61 H11B       0.6366  -14.2333   -4.0856 H         1 RES1    0.0000
     62 H12B       1.6155  -13.1060   -4.5062 H         1 RES1    0.0000
     63 H13B       1.9079  -13.9541   -3.2408 H         1 RES1    0.0000
     64 H14B      -2.1495  -13.1380   -4.0073 H         1 RES1    0.0000
     65 H15B      -2.6827  -11.6820   -3.9454 H         1 RES1    0.0000
     66 H16B      -2.2923  -12.4218   -2.6382 H         1 RES1    0.0000
@<TRIPOS>BOND
     1    1    3 1
     2    2    5 1
     3    3    6 1
     4    4    6 1
     5    5    9 1
     6    6    2 2
     7    7    4 ar
     8    8    7 ar
     9    9    3 1
    10   10    8 ar
    11   11   10 1
    12   12   10 ar
    13   13    4 ar
    14   14    5 1
    15   15    9 1
    16   16    5 1
    17   17    9 1
    18   18    7 1
    19   19    8 1
    20   20   12 1
    21   21   13 1
    22   22   14 1
    23   23   14 1
    24   24   14 1
    25   25   15 1
    26   26   15 1
    27   27   15 1
    28   28   16 1
    29   29   16 1
    30   30   16 1
    31   31   17 1
    32   32   17 1
    33   33   17 1
    34   34   36 1
    35   35   38 1
    36   36   39 1
    37   37   39 1
    38   38   42 1
    39   39   35 2
    40   40   37 ar
    41   41   40 ar
    42   42   36 1
    43   43   41 ar
    44   44   11 3
    45   45   43 ar
    46   46   37 ar
    47   47   38 1
    48   48   42 1
    49   49   38 1
    50   50   42 1
    51   51   40 1
    52   52   41 1
    53   53   45 1
    54   54   46 1
    55   55   47 1
    56   56   47 1
    57   57   47 1
    58   58   48 1
    59   59   48 1
    60   60   48 1
    61   61   49 1
    62   62   49 1
    63   63   49 1
    64   64   50 1
    65   65   50 1
    66   66   50 1
    67   12   13 ar
    68   43   44 1
    69   45   46 ar
@<TRIPOS>SUBSTRUCTURE
     1 RES1 1

@<TRIPOS>CRYSIN
   6.6883   10.3043   18.2359  90.0000  93.2310  90.0000 231 1

