# MOL2 file generated by ConQuest
# Please check atom types

@<TRIPOS>MOLECULE
WEJGAW
   132   138     2
SMALL
NO_CHARGES
****
Generated from CSD

@<TRIPOS>ATOM
      1 O1        -0.4783    9.8402    1.7407 O.2       1 RES1    0.0000
      2 O2        -4.4754   10.8784   -0.3578 O.2       1 RES1    0.0000
      3 N1        -2.9001   11.5297    4.6025 N.ar      1 RES1    0.0000
      4 N2        -1.3647   10.0473    0.8406 N.3       1 RES1    0.0000
      5 N3        -3.2756   10.4898   -0.1489 N.pl3     1 RES1    0.0000
      6 C1        -4.7114   11.8876    6.0824 C.1       1 RES1    0.0000
      7 C2        -4.2377   11.4811    4.7888 C.ar      1 RES1    0.0000
      8 C3        -5.1230   11.0733    3.7920 C.ar      1 RES1    0.0000
      9 C4        -4.6292   10.7104    2.5462 C.ar      1 RES1    0.0000
     10 C5        -3.2421   10.7658    2.3330 C.ar      1 RES1    0.0000
     11 C6        -2.4333   11.1752    3.4059 C.ar      1 RES1    0.0000
     12 C7        -2.6475   10.4335    1.0457 C.2       1 RES1    0.0000
     13 C8        -2.4349    9.9183   -1.2557 C.3       1 RES1    0.0000
     14 C9        -2.9213    8.4834   -1.4897 C.3       1 RES1    0.0000
     15 C10       -2.6397   10.7473   -2.5145 C.3       1 RES1    0.0000
     16 C11       -1.0217   10.0121   -0.6224 C.3       1 RES1    0.0000
     17 C12       -0.3080   11.3335   -0.9080 C.3       1 RES1    0.0000
     18 C13       -0.1029    8.8356   -0.8934 C.3       1 RES1    0.0000
     19 H1        -6.0566   11.0435    3.9655 H         1 RES1    0.0000
     20 H2        -5.2151   10.4322    1.8517 H         1 RES1    0.0000
     21 H3        -1.4948   11.2117    3.2654 H         1 RES1    0.0000
     22 H4        -2.4123    8.0858   -2.1866 H         1 RES1    0.0000
     23 H5        -3.8390    8.4949   -1.7353 H         1 RES1    0.0000
     24 H6        -2.8125    7.9801   -0.6909 H         1 RES1    0.0000
     25 H7        -2.1123   10.3904   -3.2190 H         1 RES1    0.0000
     26 H8        -2.3798   11.6454   -2.3481 H         1 RES1    0.0000
     27 H9        -3.5569   10.7232   -2.7611 H         1 RES1    0.0000
     28 H10       -0.0631   11.3671   -1.8253 H         1 RES1    0.0000
     29 H11       -0.8926   12.0565   -0.7095 H         1 RES1    0.0000
     30 H12        0.4713   11.3997   -0.3693 H         1 RES1    0.0000
     31 H13        0.1174    8.8097   -1.8173 H         1 RES1    0.0000
     32 H14        0.6915    8.9285   -0.3812 H         1 RES1    0.0000
     33 H15       -0.5435    8.0298   -0.6512 H         1 RES1    0.0000
     34 O3         1.1983    4.3320    8.3787 O.2       2 RES2    0.0000
     35 O4         5.1421    2.6094    6.6647 O.2       2 RES2    0.0000
     36 N4         3.8667    4.3694   11.4748 N.ar      2 RES2    0.0000
     37 N5         2.0446    3.7540    7.6137 N.3       2 RES2    0.0000
     38 N6         3.9243    2.9509    6.7958 N.pl3     2 RES2    0.0000
     39 C14        5.7744    4.9984   12.7287 C.1       2 RES2    0.0000
     40 C15        5.2096    4.5512   11.4953 C.ar      2 RES2    0.0000
     41 C16        6.0201    4.3498   10.3751 C.ar      2 RES2    0.0000
     42 C17        5.4274    3.9897    9.1753 C.ar      2 RES2    0.0000
     43 C18        4.0352    3.8431    9.1253 C.ar      2 RES2    0.0000
     44 C19        3.3110    4.0204   10.3185 C.ar      2 RES2    0.0000
     45 C20        3.3540    3.5167    7.8860 C.2       2 RES2    0.0000
     46 C21        3.0012    2.9520    5.6178 C.3       2 RES2    0.0000
     47 C22        3.4256    4.1635    4.7850 C.3       2 RES2    0.0000
     48 C23        3.1755    1.6586    4.8374 C.3       2 RES2    0.0000
     49 C24        1.6210    3.1285    6.3151 C.3       2 RES2    0.0000
     50 C25        0.9492    1.8053    6.6840 C.3       2 RES2    0.0000
     51 C26        0.6451    4.0566    5.5917 C.3       2 RES2    0.0000
     52 H16        6.9624    4.4559   10.4354 H         2 RES2    0.0000
     53 H17        5.9560    3.8456    8.3997 H         2 RES2    0.0000
     54 H18        2.3716    3.8832   10.2964 H         2 RES2    0.0000
     55 H19        2.8764    4.2213    4.0119 H         2 RES2    0.0000
     56 H20        3.3285    4.9543    5.3024 H         2 RES2    0.0000
     57 H21        4.3327    4.0665    4.5228 H         2 RES2    0.0000
     58 H22        2.5890    1.6619    4.0900 H         2 RES2    0.0000
     59 H23        4.0735    1.5883    4.5347 H         2 RES2    0.0000
     60 H24        2.9708    0.9194    5.3977 H         2 RES2    0.0000
     61 H25        0.6590    1.3639    5.8941 H         2 RES2    0.0000
     62 H26        0.2016    1.9771    7.2441 H         2 RES2    0.0000
     63 H27        1.5701    1.2534    7.1449 H         2 RES2    0.0000
     64 H28        0.3772    3.6609    4.7703 H         2 RES2    0.0000
     65 H29       -0.1184    4.2006    6.1389 H         2 RES2    0.0000
     66 H30        1.0711    4.8879    5.4176 H         2 RES2    0.0000
     67 O1A       -9.3471   14.2960   11.4955 O.2       1 RES1    0.0000
     68 O2A       -5.3499   13.2577   13.5939 O.2       1 RES1    0.0000
     69 N1A       -6.9253   12.6064    8.6337 N.ar      1 RES1    0.0000
     70 N2A       -8.4607   14.0888   12.3955 N.3       1 RES1    0.0000
     71 N3A       -6.5497   13.6463   13.3850 N.pl3     1 RES1    0.0000
     72 C1A       -5.1139   12.2486    7.1537 C.1       1 RES1    0.0000
     73 C2A       -5.5877   12.6550    8.4473 C.ar      1 RES1    0.0000
     74 C3A       -4.7024   13.0628    9.4441 C.ar      1 RES1    0.0000
     75 C4A       -5.1961   13.4257   10.6899 C.ar      1 RES1    0.0000
     76 C5A       -6.5833   13.3703   10.9031 C.ar      1 RES1    0.0000
     77 C6A       -7.3921   12.9609    9.8302 C.ar      1 RES1    0.0000
     78 C7A       -7.1779   13.7026   12.1905 C.2       1 RES1    0.0000
     79 C8A       -7.3904   14.2178   14.4918 C.3       1 RES1    0.0000
     80 C9A       -6.9041   15.6527   14.7259 C.3       1 RES1    0.0000
     81 C10A      -7.1857   13.3888   15.7506 C.3       1 RES1    0.0000
     82 C11A      -8.8036   14.1240   13.8585 C.3       1 RES1    0.0000
     83 C12A      -9.5173   12.8026   14.1441 C.3       1 RES1    0.0000
     84 C13A      -9.7224   15.3006   14.1296 C.3       1 RES1    0.0000
     85 H1A       -3.7688   13.0926    9.2706 H         1 RES1    0.0000
     86 H2A       -4.6102   13.7039   11.3844 H         1 RES1    0.0000
     87 H3A       -8.3306   12.9244    9.9708 H         1 RES1    0.0000
     88 H4A       -7.4131   16.0503   15.4227 H         1 RES1    0.0000
     89 H5A       -5.9864   15.6412   14.9714 H         1 RES1    0.0000
     90 H6A       -7.0128   16.1560   13.9271 H         1 RES1    0.0000
     91 H7A       -7.7131   13.7458   16.4552 H         1 RES1    0.0000
     92 H8A       -7.4456   12.4908   15.5842 H         1 RES1    0.0000
     93 H9A       -6.2685   13.4129   15.9972 H         1 RES1    0.0000
     94 H10A      -9.7623   12.7690   15.0614 H         1 RES1    0.0000
     95 H11A      -8.9328   12.0796   13.9456 H         1 RES1    0.0000
     96 H12A     -10.2966   12.7364   13.6054 H         1 RES1    0.0000
     97 H13A      -9.9427   15.3264   15.0535 H         1 RES1    0.0000
     98 H14A     -10.5168   15.2076   13.6173 H         1 RES1    0.0000
     99 H15A      -9.2818   16.1063   13.8874 H         1 RES1    0.0000
    100 O3A       10.8394    6.0817   18.0935 O.2       2 RES2    0.0000
    101 O4A        6.8956    7.8043   19.8076 O.2       2 RES2    0.0000
    102 N4A        8.1710    6.0442   14.9975 N.ar      2 RES2    0.0000
    103 N5A        9.9931    6.6596   18.8586 N.3       2 RES2    0.0000
    104 N6A        8.1134    7.4627   19.6764 N.pl3     2 RES2    0.0000
    105 C14A       6.2633    5.4153   13.7436 C.1       2 RES2    0.0000
    106 C15A       6.8280    5.8625   14.9770 C.ar      2 RES2    0.0000
    107 C16A       6.0175    6.0638   16.0971 C.ar      2 RES2    0.0000
    108 C17A       6.6102    6.4239   17.2970 C.ar      2 RES2    0.0000
    109 C18A       8.0025    6.5705   17.3470 C.ar      2 RES2    0.0000
    110 C19A       8.7266    6.3932   16.1538 C.ar      2 RES2    0.0000
    111 C20A       8.6836    6.8970   18.5863 C.2       2 RES2    0.0000
    112 C21A       9.0365    7.4616   20.8545 C.3       2 RES2    0.0000
    113 C22A       8.6120    6.2501   21.6873 C.3       2 RES2    0.0000
    114 C23A       8.8622    8.7551   21.6349 C.3       2 RES2    0.0000
    115 C24A      10.4166    7.2851   20.1572 C.3       2 RES2    0.0000
    116 C25A      11.0884    8.6084   19.7883 C.3       2 RES2    0.0000
    117 C26A      11.3926    6.3570   20.8805 C.3       2 RES2    0.0000
    118 H16A       5.0752    5.9578   16.0369 H         2 RES2    0.0000
    119 H17A       6.0816    6.5680   18.0726 H         2 RES2    0.0000
    120 H18A       9.6660    6.5305   16.1759 H         2 RES2    0.0000
    121 H19A       9.1612    6.1923   22.4604 H         2 RES2    0.0000
    122 H20A       8.7091    5.4594   21.1699 H         2 RES2    0.0000
    123 H21A       7.7049    6.3472   21.9495 H         2 RES2    0.0000
    124 H22A       9.4486    8.7517   22.3823 H         2 RES2    0.0000
    125 H23A       7.9641    8.8254   21.9376 H         2 RES2    0.0000
    126 H24A       9.0669    9.4942   21.0746 H         2 RES2    0.0000
    127 H25A      11.3786    9.0497   20.5782 H         2 RES2    0.0000
    128 H26A      11.8361    8.4366   19.2281 H         2 RES2    0.0000
    129 H27A      10.4675    9.1602   19.3274 H         2 RES2    0.0000
    130 H28A      11.6604    6.7527   21.7020 H         2 RES2    0.0000
    131 H29A      12.1560    6.2130   20.3334 H         2 RES2    0.0000
    132 H30A      10.9665    5.5257   21.0547 H         2 RES2    0.0000
@<TRIPOS>BOND
     1    1    4 1
     2    2    5 1
     3    3    7 ar
     4    4   12 1
     5    5   12 2
     6    6    7 1
     7    7    8 ar
     8    8    9 ar
     9    9   10 ar
    10   10   11 ar
    11   11    3 ar
    12   12   10 1
    13   13    5 1
    14   14   13 1
    15   15   13 1
    16   16    4 1
    17   17   16 1
    18   18   16 1
    19   19    8 1
    20   20    9 1
    21   21   11 1
    22   22   14 1
    23   23   14 1
    24   24   14 1
    25   25   15 1
    26   26   15 1
    27   27   15 1
    28   28   17 1
    29   29   17 1
    30   30   17 1
    31   31   18 1
    32   32   18 1
    33   33   18 1
    34   34   37 1
    35   35   38 1
    36   36   40 ar
    37   37   45 1
    38   38   45 2
    39   39   40 1
    40   40   41 ar
    41   41   42 ar
    42   42   43 ar
    43   43   44 ar
    44   44   36 ar
    45   45   43 1
    46   46   38 1
    47   47   46 1
    48   48   46 1
    49   49   37 1
    50   50   49 1
    51   51   49 1
    52   52   41 1
    53   53   42 1
    54   54   44 1
    55   55   47 1
    56   56   47 1
    57   57   47 1
    58   58   48 1
    59   59   48 1
    60   60   48 1
    61   61   50 1
    62   62   50 1
    63   63   50 1
    64   64   51 1
    65   65   51 1
    66   66   51 1
    67   67   70 1
    68   68   71 1
    69   69   73 ar
    70   70   78 1
    71   71   78 2
    72   72    6 3
    73   73   72 1
    74   74   73 ar
    75   75   74 ar
    76   76   75 ar
    77   77   69 ar
    78   78   76 1
    79   79   71 1
    80   80   79 1
    81   81   79 1
    82   82   70 1
    83   83   82 1
    84   84   82 1
    85   85   74 1
    86   86   75 1
    87   87   77 1
    88   88   80 1
    89   89   80 1
    90   90   80 1
    91   91   81 1
    92   92   81 1
    93   93   81 1
    94   94   83 1
    95   95   83 1
    96   96   83 1
    97   97   84 1
    98   98   84 1
    99   99   84 1
   100  100  103 1
   101  101  104 1
   102  102  106 ar
   103  103  111 1
   104  104  111 2
   105  105   39 3
   106  106  105 1
   107  107  106 ar
   108  108  107 ar
   109  109  108 ar
   110  110  102 ar
   111  111  109 1
   112  112  104 1
   113  113  112 1
   114  114  112 1
   115  115  103 1
   116  116  115 1
   117  117  115 1
   118  118  107 1
   119  119  108 1
   120  120  110 1
   121  121  113 1
   122  122  113 1
   123  123  113 1
   124  124  114 1
   125  125  114 1
   126  126  114 1
   127  127  116 1
   128  128  116 1
   129  129  116 1
   130  130  117 1
   131  131  117 1
   132  132  117 1
   133   13   16 1
   134   46   49 1
   135   76   77 ar
   136   79   82 1
   137  109  110 ar
   138  112  115 1
@<TRIPOS>SUBSTRUCTURE
     1 RES1 1
     2 RES2 34

@<TRIPOS>CRYSIN
   7.3674   13.0178   13.7189  90.9445 104.4985 104.2092   2 1

