# MOL2 file generated by ConQuest
# Please check atom types

@<TRIPOS>MOLECULE
WEJGIE
   131   134     3
SMALL
NO_CHARGES
****
Generated from CSD

@<TRIPOS>ATOM
      1 O1        -0.6927    4.8718    1.7454 O.2       1 RES1    0.0000
      2 N1         1.8119    4.6009    4.9728 N.ar      1 RES1    0.0000
      3 N2         0.1444    4.2994    0.9826 N.3       1 RES1    0.0000
      4 N3         2.1370    3.5541    0.2686 N.2       1 RES1    0.0000
      5 C1         3.6805    5.1908    6.3291 C.1       1 RES1    0.0000
      6 C2         3.1471    4.8135    5.0393 C.ar      1 RES1    0.0000
      7 C3         3.9917    4.7309    3.9359 C.ar      1 RES1    0.0000
      8 C4         3.4390    4.4546    2.7021 C.ar      1 RES1    0.0000
      9 C5         2.0572    4.2771    2.6002 C.ar      1 RES1    0.0000
     10 C6         1.3048    4.3362    3.7734 C.ar      1 RES1    0.0000
     11 C7         1.4751    4.0249    1.2723 C.2       1 RES1    0.0000
     12 C8         1.2377    3.5975   -0.9173 C.3       1 RES1    0.0000
     13 C9         1.4695    2.3558   -1.7745 C.3       1 RES1    0.0000
     14 C10        1.6724    4.8487   -1.6925 C.3       1 RES1    0.0000
     15 C11       -0.1954    3.7153   -0.3381 C.3       1 RES1    0.0000
     16 C12       -0.8635    2.3750   -0.0642 C.3       1 RES1    0.0000
     17 C13       -1.1560    4.6395   -1.0845 C.3       1 RES1    0.0000
     18 H1         4.9272    4.8748    4.0192 H         1 RES1    0.0000
     19 H2         3.9783    4.3751    1.9241 H         1 RES1    0.0000
     20 H3         0.3701    4.1780    3.7140 H         1 RES1    0.0000
     21 H4         0.8935    2.3826   -2.5289 H         1 RES1    0.0000
     22 H5         2.3728    2.3274   -2.0664 H         1 RES1    0.0000
     23 H6         1.2790    1.5813   -1.2576 H         1 RES1    0.0000
     24 H7         1.1283    4.9409   -2.4660 H         1 RES1    0.0000
     25 H8         1.5857    5.6228   -1.1495 H         1 RES1    0.0000
     26 H9         2.5803    4.7450   -1.9542 H         1 RES1    0.0000
     27 H10       -1.1075    1.9590   -0.8827 H         1 RES1    0.0000
     28 H11       -1.6415    2.5224    0.4598 H         1 RES1    0.0000
     29 H12       -0.2630    1.8129    0.4105 H         1 RES1    0.0000
     30 H13       -1.3787    4.2612   -1.9268 H         1 RES1    0.0000
     31 H14       -0.7348    5.4805   -1.2166 H         1 RES1    0.0000
     32 H15       -1.9468    4.7584   -0.5720 H         1 RES1    0.0000
     33 N4         3.8241    0.8628    2.8504 N.ar      2 RES2    0.0000
     34 C14        3.3229    0.1567    0.5393 C.1       2 RES2    0.0000
     35 C15        2.8797    0.5183    1.8692 C.ar      2 RES2    0.0000
     36 C16        1.5694    0.4766    2.0916 C.ar      2 RES2    0.0000
     37 C17        1.1408    0.7706    3.3142 C.ar      2 RES2    0.0000
     38 C18        1.9870    1.1103    4.3757 C.ar      2 RES2    0.0000
     39 C19        3.3519    1.1656    4.1288 C.ar      2 RES2    0.0000
     40 C20        1.4900    1.3542    5.7421 C.2       2 RES2    0.0000
     41 C21        1.4026    1.6608    7.9756 C.3       2 RES2    0.0000
     42 C22        1.8202    3.0409    8.4491 C.3       2 RES2    0.0000
     43 C23        1.7329    0.6455    9.0738 C.3       2 RES2    0.0000
     44 C24       -0.0766    1.5980    7.4786 C.3       2 RES2    0.0000
     45 C25       -0.9797    2.7298    7.8949 C.3       2 RES2    0.0000
     46 C26       -0.7948    0.2931    7.7727 C.3       2 RES2    0.0000
     47 O2        -0.7345    1.9897    5.1817 O.2       2 RES2    0.0000
     48 N5         0.1729    1.7144    6.0374 N.3       2 RES2    0.0000
     49 N6         2.2399    1.2482    6.8176 N.2       2 RES2    0.0000
     50 H16        0.9612    0.2300    1.4054 H         2 RES2    0.0000
     51 H17        0.2052    0.7455    3.4773 H         2 RES2    0.0000
     52 H18        3.9548    1.3793    4.8307 H         2 RES2    0.0000
     53 H19        1.6097    3.6911    7.7894 H         2 RES2    0.0000
     54 H20        1.3712    3.2553    9.2591 H         2 RES2    0.0000
     55 H21        2.7586    3.0332    8.5995 H         2 RES2    0.0000
     56 H22        1.4660   -0.2254    8.8048 H         2 RES2    0.0000
     57 H23        1.2850    0.8793    9.8776 H         2 RES2    0.0000
     58 H24        2.6717    0.6584    9.2194 H         2 RES2    0.0000
     59 H25       -1.8503    2.5965    7.5376 H         2 RES2    0.0000
     60 H26       -1.0249    2.7380    8.8431 H         2 RES2    0.0000
     61 H27       -0.6348    3.5599    7.5868 H         2 RES2    0.0000
     62 H28       -1.6828    0.3288    7.4377 H         2 RES2    0.0000
     63 H29       -0.8161    0.1340    8.7090 H         2 RES2    0.0000
     64 H30       -0.3213   -0.4096    7.3419 H         2 RES2    0.0000
     65 O3        -0.7357    0.5597    5.3220 Du        3 SUP3    0.0000
     66 N7         0.1805    1.0659    6.0185 Du        3 SUP3    0.0000
     67 N8         2.2005    1.7367    6.6398 Du        3 SUP3    0.0000
     68 O1A        8.5086    5.8675   11.9394 O.2       1 RES1    0.0000
     69 N1A        6.0040    6.1384    8.7120 N.ar      1 RES1    0.0000
     70 N2A        7.6715    6.4400   12.7022 N.3       1 RES1    0.0000
     71 N3A        5.6789    7.1852   13.4161 N.2       1 RES1    0.0000
     72 C1A        4.1354    5.5485    7.3557 C.1       1 RES1    0.0000
     73 C2A        4.6687    5.9259    8.6455 C.ar      1 RES1    0.0000
     74 C3A        3.8242    6.0084    9.7489 C.ar      1 RES1    0.0000
     75 C4A        4.3769    6.2848   10.9827 C.ar      1 RES1    0.0000
     76 C5A        5.7587    6.4622   11.0845 C.ar      1 RES1    0.0000
     77 C6A        6.5111    6.4031    9.9113 C.ar      1 RES1    0.0000
     78 C7A        6.3408    6.7144   12.4125 C.2       1 RES1    0.0000
     79 C8A        6.5781    7.1419   14.6020 C.3       1 RES1    0.0000
     80 C9A        6.3464    8.3836   15.4592 C.3       1 RES1    0.0000
     81 C10A       6.1435    5.8907   15.3773 C.3       1 RES1    0.0000
     82 C11A       8.0113    7.0241   14.0229 C.3       1 RES1    0.0000
     83 C12A       8.6794    8.3643   13.7489 C.3       1 RES1    0.0000
     84 C13A       8.9719    6.0999   14.7693 C.3       1 RES1    0.0000
     85 H1A        2.8887    5.8646    9.6655 H         1 RES1    0.0000
     86 H2A        3.8376    6.3642   11.7607 H         1 RES1    0.0000
     87 H3A        7.4458    6.5614    9.9707 H         1 RES1    0.0000
     88 H4A        6.9224    8.3568   16.2137 H         1 RES1    0.0000
     89 H5A        5.4431    8.4119   15.7511 H         1 RES1    0.0000
     90 H6A        6.5369    9.1580   14.9424 H         1 RES1    0.0000
     91 H7A        6.6876    5.7984   16.1507 H         1 RES1    0.0000
     92 H8A        6.2301    5.1165   14.8343 H         1 RES1    0.0000
     93 H9A        5.2356    5.9943   15.6389 H         1 RES1    0.0000
     94 H10A       8.9234    8.7804   14.5674 H         1 RES1    0.0000
     95 H11A       9.4574    8.2170   13.2249 H         1 RES1    0.0000
     96 H12A       8.0788    8.9265   13.2742 H         1 RES1    0.0000
     97 H13A       9.1946    6.4782   15.6115 H         1 RES1    0.0000
     98 H14A       8.5507    5.2588   14.9013 H         1 RES1    0.0000
     99 H15A       9.7627    5.9809   14.2568 H         1 RES1    0.0000
    100 N4A        3.2179   -0.8628   -2.8504 N.ar      2 RES2    0.0000
    101 C14A       3.7191   -0.1567   -0.5393 C.1       2 RES2    0.0000
    102 C15A       4.1623   -0.5183   -1.8692 C.ar      2 RES2    0.0000
    103 C16A       5.4726   -0.4766   -2.0916 C.ar      2 RES2    0.0000
    104 C17A       5.9012   -0.7706   -3.3142 C.ar      2 RES2    0.0000
    105 C18A       5.0550   -1.1103   -4.3757 C.ar      2 RES2    0.0000
    106 C19A       3.6901   -1.1656   -4.1288 C.ar      2 RES2    0.0000
    107 C20A       5.5520   -1.3542   -5.7421 C.2       2 RES2    0.0000
    108 C21A       5.6394   -1.6608   -7.9756 C.3       2 RES2    0.0000
    109 C22A       5.2218   -3.0409   -8.4491 C.3       2 RES2    0.0000
    110 C23A       5.3091   -0.6455   -9.0738 C.3       2 RES2    0.0000
    111 C24A       7.1186   -1.5980   -7.4786 C.3       2 RES2    0.0000
    112 C25A       8.0217   -2.7298   -7.8949 C.3       2 RES2    0.0000
    113 C26A       7.8368   -0.2931   -7.7727 C.3       2 RES2    0.0000
    114 O2A        7.7765   -1.9897   -5.1817 O.2       2 RES2    0.0000
    115 N5A        6.8691   -1.7144   -6.0374 N.3       2 RES2    0.0000
    116 N6A        4.8021   -1.2482   -6.8176 N.2       2 RES2    0.0000
    117 H16A       6.0808   -0.2300   -1.4054 H         2 RES2    0.0000
    118 H17A       6.8368   -0.7455   -3.4773 H         2 RES2    0.0000
    119 H18A       3.0872   -1.3793   -4.8307 H         2 RES2    0.0000
    120 H19A       5.4323   -3.6911   -7.7894 H         2 RES2    0.0000
    121 H20A       5.6708   -3.2553   -9.2591 H         2 RES2    0.0000
    122 H21A       4.2834   -3.0332   -8.5995 H         2 RES2    0.0000
    123 H22A       5.5760    0.2254   -8.8048 H         2 RES2    0.0000
    124 H23A       5.7570   -0.8793   -9.8776 H         2 RES2    0.0000
    125 H24A       4.3703   -0.6584   -9.2194 H         2 RES2    0.0000
    126 H25A       8.8923   -2.5965   -7.5376 H         2 RES2    0.0000
    127 H26A       8.0669   -2.7380   -8.8431 H         2 RES2    0.0000
    128 H27A       7.6768   -3.5599   -7.5868 H         2 RES2    0.0000
    129 H28A       8.7248   -0.3288   -7.4377 H         2 RES2    0.0000
    130 H29A       7.8581   -0.1340   -8.7090 H         2 RES2    0.0000
    131 H30A       7.3633    0.4096   -7.3419 H         2 RES2    0.0000
@<TRIPOS>BOND
     1    1    3 1
     2    2    6 ar
     3    3   11 1
     4    4   11 2
     5    5    6 1
     6    6    7 ar
     7    7    8 ar
     8    8    9 ar
     9    9   10 ar
    10   10    2 ar
    11   11    9 1
    12   12    4 1
    13   13   12 1
    14   14   12 1
    15   15    3 1
    16   16   15 1
    17   17   15 1
    18   18    7 1
    19   19    8 1
    20   20   10 1
    21   21   13 1
    22   22   13 1
    23   23   13 1
    24   24   14 1
    25   25   14 1
    26   26   14 1
    27   27   16 1
    28   28   16 1
    29   29   16 1
    30   30   17 1
    31   31   17 1
    32   32   17 1
    33   33   35 ar
    34   34   35 1
    35   35   36 ar
    36   36   37 ar
    37   37   38 ar
    38   38   39 ar
    39   39   33 ar
    40   40   38 1
    41   41   42 1
    42   42   53 1
    43   43   41 1
    44   44   41 1
    45   45   44 1
    46   46   44 1
    47   47   48 1
    48   48   40 1
    49   49   40 2
    50   50   36 1
    51   51   37 1
    52   52   39 1
    53   54   42 1
    54   55   42 1
    55   56   43 1
    56   57   43 1
    57   58   43 1
    58   59   45 1
    59   60   45 1
    60   61   45 1
    61   62   46 1
    62   63   46 1
    63   64   46 1
    64   68   70 1
    65   69   73 ar
    66   70   78 1
    67   71   78 2
    68   72    5 3
    69   73   72 1
    70   74   73 ar
    71   75   74 ar
    72   76   75 ar
    73   77   69 ar
    74   78   76 1
    75   79   71 1
    76   80   79 1
    77   81   79 1
    78   82   70 1
    79   83   82 1
    80   84   82 1
    81   85   74 1
    82   86   75 1
    83   87   77 1
    84   88   80 1
    85   89   80 1
    86   90   80 1
    87   91   81 1
    88   92   81 1
    89   93   81 1
    90   94   83 1
    91   95   83 1
    92   96   83 1
    93   97   84 1
    94   98   84 1
    95   99   84 1
    96  100  102 ar
    97  101   34 3
    98  102  101 1
    99  103  102 ar
   100  104  103 ar
   101  105  104 ar
   102  106  100 ar
   103  107  105 1
   104  108  109 1
   105  109  120 1
   106  110  108 1
   107  111  108 1
   108  112  111 1
   109  113  111 1
   110  114  115 1
   111  115  107 1
   112  116  107 2
   113  117  103 1
   114  118  104 1
   115  119  106 1
   116  121  109 1
   117  122  109 1
   118  123  110 1
   119  124  110 1
   120  125  110 1
   121  126  112 1
   122  127  112 1
   123  128  112 1
   124  129  113 1
   125  130  113 1
   126  131  113 1
   127   12   15 1
   128   41   49 1
   129   44   48 1
   130   76   77 ar
   131   79   82 1
   132  105  106 ar
   133  108  116 1
   134  111  115 1
@<TRIPOS>SUBSTRUCTURE
     1 RES1 1
     2 RES2 33
     3 SUP3 65

@<TRIPOS>CRYSIN
   7.0420   12.9582   14.2234  94.4070 103.7610 102.8630   2 1

