# MOL2 file generated by ConQuest
# Please check atom types

@<TRIPOS>MOLECULE
WEJJOL
    27    28     1
SMALL
NO_CHARGES
****
Generated from CSD

@<TRIPOS>ATOM
      1 O1        -0.7232    2.8456    2.7957 O.3       1 RES1    0.0000
      2 O2        -0.4286    6.3848    6.4234 O.2       1 RES1    0.0000
      3 O3         3.0567    2.2850   11.2060 O.2       1 RES1    0.0000
      4 O4         3.0122    4.3087   11.9748 O.2       1 RES1    0.0000
      5 N1         2.7459    3.4706   11.1187 N.pl3     1 RES1    0.0000
      6 C1         1.1787    3.4069    7.7387 C.ar      1 RES1    0.0000
      7 H1         1.0428    2.8069    7.0421 H         1 RES1    0.0000
      8 C2         1.8242    2.9878    8.8987 C.ar      1 RES1    0.0000
      9 H2         2.1116    2.1086    8.9918 H         1 RES1    0.0000
     10 C3         2.0281    3.9080    9.9092 C.ar      1 RES1    0.0000
     11 C4         1.6175    5.2309    9.8174 C.ar      1 RES1    0.0000
     12 H3         1.7770    5.8312   10.5103 H         1 RES1    0.0000
     13 C5         0.9619    5.6308    8.6622 C.ar      1 RES1    0.0000
     14 H4         0.6701    6.5102    8.5791 H         1 RES1    0.0000
     15 C6         0.7336    4.7248    7.6191 C.ar      1 RES1    0.0000
     16 C7        -0.0052    5.2276    6.4146 C.2       1 RES1    0.0000
     17 C8        -0.2138    4.3496    5.2541 C.2       1 RES1    0.0000
     18 H5         0.1208    3.4817    5.2538 H         1 RES1    0.0000
     19 C9        -0.8971    4.8183    4.1869 C.2       1 RES1    0.0000
     20 H6        -1.2203    5.6873    4.2538 H         1 RES1    0.0000
     21 C10       -1.1781    4.1299    2.9700 C.2       1 RES1    0.0000
     22 C11       -1.8568    4.5380    1.8526 C.2       1 RES1    0.0000
     23 H7        -2.2611    5.3653    1.7195 H         1 RES1    0.0000
     24 C12       -1.8238    3.4516    0.9360 C.2       1 RES1    0.0000
     25 H8        -2.2021    3.4262    0.0873 H         1 RES1    0.0000
     26 C13       -1.1306    2.4613    1.5465 C.2       1 RES1    0.0000
     27 H9        -0.9547    1.6300    1.1666 H         1 RES1    0.0000
@<TRIPOS>BOND
     1    1   21 1
     2    2   16 2
     3    3    5 2
     4    4    5 2
     5    5   10 1
     6    6    7 1
     7    8    6 ar
     8    9    8 1
     9   10    8 ar
    10   11   10 ar
    11   12   11 1
    12   13   11 ar
    13   14   13 1
    14   15    6 ar
    15   16   15 1
    16   17   16 1
    17   18   17 1
    18   19   17 2
    19   20   19 1
    20   21   19 1
    21   22   21 2
    22   23   22 1
    23   24   22 1
    24   25   24 1
    25   26    1 1
    26   27   26 1
    27   13   15 ar
    28   24   26 2
@<TRIPOS>SUBSTRUCTURE
     1 RES1 1

@<TRIPOS>CRYSIN
   3.8809   10.6603   26.5500  90.0000  94.8670  90.0000  14 1

