# MOL2 file generated by ConQuest
# Please check atom types

@<TRIPOS>MOLECULE
WEKGOJ
    34    34     2
SMALL
NO_CHARGES
****
Generated from CSD

@<TRIPOS>ATOM
      1 N1         7.1150    9.5578    1.9069 N.pl3     1 RES1    0.0000
      2 N2        10.3977    7.8322   -0.9971 N.pl3     1 RES1    0.0000
      3 N3        10.2506    6.1978    3.6515 N.pl3     1 RES1    0.0000
      4 N4         8.7853    8.6367    0.5312 N.ar      1 RES1    0.0000
      5 N5        12.6893    9.0212   -3.9221 N.pl3     2 RES2    0.0000
      6 N6        14.2865    4.6934   -2.1892 N.pl3     2 RES2    0.0000
      7 N7        14.2865    8.9164   -2.1892 N.ar      2 RES2    0.0000
      8 C1         8.2602    8.6284    1.7345 C.ar      1 RES1    0.0000
      9 C2         9.8048    7.8184    0.3653 C.ar      1 RES1    0.0000
     10 C3        10.3489    6.9924    1.3249 C.ar      1 RES1    0.0000
     11 H1        11.0720    6.4338    1.1497 H         1 RES1    0.0000
     12 C4         9.7485    7.0523    2.5568 C.ar      1 RES1    0.0000
     13 C5         8.6742    7.8791    2.8096 C.ar      1 RES1    0.0000
     14 H2         8.2633    7.9259    3.6419 H         1 RES1    0.0000
     15 C6        13.5462    8.2110   -3.0184 C.ar      2 RES2    0.0000
     16 C7        13.5045    6.8376   -3.1007 C.ar      2 RES2    0.0000
     17 H3        12.9836    6.3900   -3.7277 H         2 RES2    0.0000
     18 C8        14.2865    6.1816   -2.1892 C.ar      2 RES2    0.0000
     19 O1         7.0532   10.5330    1.1845 O.2       1 RES1    0.0000
     20 O2         6.3115    9.2672    2.7700 O.2       1 RES1    0.0000
     21 O3        11.3143    7.0723   -1.1923 O.2       1 RES1    0.0000
     22 O4         9.9734    8.6084   -1.8125 O.2       1 RES1    0.0000
     23 O5        11.2466    5.5292    3.4256 O.2       1 RES1    0.0000
     24 O6         9.6502    6.2145    4.7078 O.2       1 RES1    0.0000
     25 O7        12.7113   10.2221   -3.8030 O.2       2 RES2    0.0000
     26 O8        12.0181    8.4295   -4.7268 O.2       2 RES2    0.0000
     27 O9        14.9145    4.1335   -1.3047 O.2       2 RES2    0.0000
     28 N5B       15.8837    9.0212   -0.4562 N.pl3     2 RES2    0.0000
     29 C6B       15.0268    8.2110   -1.3599 C.ar      2 RES2    0.0000
     30 C7B       15.0685    6.8376   -1.2776 C.ar      2 RES2    0.0000
     31 H3B       15.5894    6.3900   -0.6506 H         2 RES2    0.0000
     32 O7B       15.8617   10.2221   -0.5753 O.2       2 RES2    0.0000
     33 O8B       16.5549    8.4295    0.3485 O.2       2 RES2    0.0000
     34 O9B       13.6585    4.1335   -3.0736 O.2       2 RES2    0.0000
@<TRIPOS>BOND
     1    1    8 1
     2    2    9 1
     3    3   12 1
     4    4    8 ar
     5    5   15 1
     6    6   18 1
     7    7   15 ar
     8    8   13 ar
     9    9    4 ar
    10   10    9 ar
    11   11   10 1
    12   12   10 ar
    13   13   12 ar
    14   14   13 1
    15   15   16 ar
    16   16   17 1
    17   18   16 ar
    18   19    1 2
    19   20    1 2
    20   21    2 2
    21   22    2 2
    22   23    3 2
    23   24    3 2
    24   25    5 2
    25   26    5 2
    26   27    6 2
    27   28   29 1
    28   29    7 ar
    29   30   18 ar
    30   31   30 1
    31   32   28 2
    32   33   28 2
    33   34    6 2
    34   29   30 ar
@<TRIPOS>SUBSTRUCTURE
     1 RES1 1
     2 RES2 5

@<TRIPOS>CRYSIN
  28.5730    9.7394    8.7566  90.0000  90.0000  90.0000  60 1

