# MOL2 file generated by ConQuest
# Please check atom types

@<TRIPOS>MOLECULE
WEKGEB
    30    31     1
SMALL
NO_CHARGES
****
Generated from CSD

@<TRIPOS>ATOM
      1 O1         5.9741    1.7649    4.6287 O.2       1 RES1    0.0000
      2 O2         5.3204    0.3396    3.1308 O.2       1 RES1    0.0000
      3 O3         6.1530    2.1489    0.9864 O.2       1 RES1    0.0000
      4 N1         5.2446    1.4184    3.7035 N.pl3     1 RES1    0.0000
      5 N2         4.2845    1.5629   -0.1847 N.am      1 RES1    0.0000
      6 H1         3.3926    1.5047   -0.1655 H         1 RES1    0.0000
      7 N3         5.9915   -0.7383   -0.1373 N.pl3     1 RES1    0.0000
      8 H2         6.1039   -0.1946    0.5809 H         1 RES1    0.0000
      9 H3         6.7238   -1.2372   -0.2203 H         1 RES1    0.0000
     10 C1         4.1971    2.3585    3.2861 C.ar      1 RES1    0.0000
     11 C2         3.4159    2.9207    4.2830 C.ar      1 RES1    0.0000
     12 H4         3.5728    2.7190    5.1982 H         1 RES1    0.0000
     13 C3         2.3940    3.7891    3.9073 C.ar      1 RES1    0.0000
     14 H5         1.8338    4.1769    4.5691 H         1 RES1    0.0000
     15 C4         2.1943    4.0892    2.5666 C.ar      1 RES1    0.0000
     16 H6         1.5108    4.6999    2.3158 H         1 RES1    0.0000
     17 C5         2.9886    3.5008    1.5885 C.ar      1 RES1    0.0000
     18 H7         2.8350    3.7048    0.6740 H         1 RES1    0.0000
     19 C6         4.0051    2.6194    1.9337 C.ar      1 RES1    0.0000
     20 C7         4.9265    2.0790    0.8723 C.2       1 RES1    0.0000
     21 C8         4.9296    1.0911   -1.3745 C.ar      1 RES1    0.0000
     22 C9         4.6455    1.7362   -2.5742 C.ar      1 RES1    0.0000
     23 H8         4.0936    2.5092   -2.5788 H         1 RES1    0.0000
     24 C10        5.1692    1.2498   -3.7657 C.ar      1 RES1    0.0000
     25 H9         4.9604    1.6738   -4.5899 H         1 RES1    0.0000
     26 C11        5.9996    0.1377   -3.7418 C.ar      1 RES1    0.0000
     27 H10        6.3619   -0.1957   -4.5538 H         1 RES1    0.0000
     28 C12        6.3037   -0.4912   -2.5464 C.ar      1 RES1    0.0000
     29 H11        6.8838   -1.2435   -2.5449 H         1 RES1    0.0000
     30 C13        5.7660   -0.0279   -1.3382 C.ar      1 RES1    0.0000
@<TRIPOS>BOND
     1    1    4 2
     2    2    4 2
     3    3   20 2
     4    4   10 1
     5    5    6 1
     6    7    8 1
     7    9    7 1
     8   10   11 ar
     9   11   12 1
    10   13   11 ar
    11   14   13 1
    12   15   13 ar
    13   16   15 1
    14   17   15 ar
    15   18   17 1
    16   19   10 ar
    17   20    5 1
    18   21    5 1
    19   22   21 ar
    20   23   22 1
    21   24   22 ar
    22   25   24 1
    23   26   24 ar
    24   27   26 1
    25   28   26 ar
    26   29   28 1
    27   30    7 1
    28   17   19 ar
    29   19   20 1
    30   21   30 ar
    31   28   30 ar
@<TRIPOS>SUBSTRUCTURE
     1 RES1 1

@<TRIPOS>CRYSIN
   7.4377    7.7862   11.4106  75.3450  77.9440  65.9980   2 1

