# MOL2 file generated by ConQuest
# Please check atom types

@<TRIPOS>MOLECULE
WEKGIF
    71    75     1
SMALL
NO_CHARGES
****
Generated from CSD

@<TRIPOS>ATOM
      1 O1        11.7761    4.3868    5.2249 O.2       1 RES1    0.0000
      2 O2        12.1395    7.8301    6.9037 O.2       1 RES1    0.0000
      3 O3         5.8714    5.4562    8.9692 O.2       1 RES1    0.0000
      4 O4         7.4722    6.5207    4.3405 O.2       1 RES1    0.0000
      5 O5        13.7910    2.6344    4.1930 O.2       1 RES1    0.0000
      6 O6        13.2548    1.0208    5.5294 O.2       1 RES1    0.0000
      7 O7         6.9554    6.1571   -0.3653 O.2       1 RES1    0.0000
      8 O8         6.0536    6.0138    1.5935 O.2       1 RES1    0.0000
      9 N1        13.2598    6.0990    4.9533 N.am      1 RES1    0.0000
     10 H1        14.0625    6.4207    5.1743 H         1 RES1    0.0000
     11 N2        10.5293    7.0729    5.4617 N.am      1 RES1    0.0000
     12 H2         9.6776    6.8641    5.4458 H         1 RES1    0.0000
     13 N3         6.3914    5.7709    6.7568 N.am      1 RES1    0.0000
     14 H3         6.9830    6.1058    6.2463 H         1 RES1    0.0000
     15 N4         6.5375    4.4383    4.1324 N.am      1 RES1    0.0000
     16 H4         6.5967    3.7249    3.6540 H         1 RES1    0.0000
     17 N5         8.8229    6.6951    7.4616 N.ar      1 RES1    0.0000
     18 N6        13.6664    2.1543    5.3073 N.pl3     1 RES1    0.0000
     19 N7         6.9899    5.8559    0.8228 N.pl3     1 RES1    0.0000
     20 C1        14.0796    2.9663    6.4607 C.ar      1 RES1    0.0000
     21 C2        14.8067    2.3415    7.4557 C.ar      1 RES1    0.0000
     22 H5        14.9930    1.4107    7.4092 H         1 RES1    0.0000
     23 C3        15.2603    3.1035    8.5258 C.ar      1 RES1    0.0000
     24 H6        15.7692    2.6957    9.2176 H         1 RES1    0.0000
     25 C4        14.9700    4.4607    8.5839 C.ar      1 RES1    0.0000
     26 H7        15.2871    4.9797    9.3137 H         1 RES1    0.0000
     27 C5        14.2195    5.0642    7.5810 C.ar      1 RES1    0.0000
     28 H8        14.0124    5.9893    7.6385 H         1 RES1    0.0000
     29 C6        13.7704    4.3246    6.4949 C.ar      1 RES1    0.0000
     30 C7        12.8390    4.9329    5.4858 C.2       1 RES1    0.0000
     31 C8        12.5012    6.8163    3.9885 C.ar      1 RES1    0.0000
     32 C9        13.0813    7.0565    2.7458 C.ar      1 RES1    0.0000
     33 H9        13.9879    6.8172    2.5987 H         1 RES1    0.0000
     34 C10       12.3526    7.6409    1.7203 C.ar      1 RES1    0.0000
     35 H10       12.7634    7.8071    0.8799 H         1 RES1    0.0000
     36 C11       11.0215    7.9837    1.9238 C.ar      1 RES1    0.0000
     37 H11       10.5079    8.3459    1.2116 H         1 RES1    0.0000
     38 C12       10.4473    7.7948    3.1696 C.ar      1 RES1    0.0000
     39 H12        9.5408    8.0447    3.3121 H         1 RES1    0.0000
     40 C13       11.1848    7.2419    4.2206 C.ar      1 RES1    0.0000
     41 C14       11.0141    7.3854    6.6814 C.2       1 RES1    0.0000
     42 C15       10.0358    7.1469    7.8018 C.ar      1 RES1    0.0000
     43 C16       10.4206    7.3884    9.1149 C.ar      1 RES1    0.0000
     44 H13       11.3004    7.6815    9.3188 H         1 RES1    0.0000
     45 C17        9.4852    7.1905   10.1184 C.ar      1 RES1    0.0000
     46 H14        9.7070    7.3697   11.0248 H         1 RES1    0.0000
     47 C18        8.2261    6.7303    9.7862 C.ar      1 RES1    0.0000
     48 H15        7.5651    6.5917   10.4549 H         1 RES1    0.0000
     49 C19        7.9492    6.4741    8.4455 C.ar      1 RES1    0.0000
     50 C20        6.6247    5.8618    8.0833 C.2       1 RES1    0.0000
     51 C21        5.2612    5.1682    6.1689 C.ar      1 RES1    0.0000
     52 C22        4.0322    5.1719    6.8377 C.ar      1 RES1    0.0000
     53 H16        3.9527    5.6290    7.6666 H         1 RES1    0.0000
     54 C23        2.9320    4.5209    6.3130 C.ar      1 RES1    0.0000
     55 H17        2.1060    4.5317    6.7816 H         1 RES1    0.0000
     56 C24        3.0358    3.8553    5.1069 C.ar      1 RES1    0.0000
     57 H18        2.2902    3.3814    4.7580 H         1 RES1    0.0000
     58 C25        4.2324    3.8822    4.4061 C.ar      1 RES1    0.0000
     59 H19        4.2921    3.4449    3.5656 H         1 RES1    0.0000
     60 C26        5.3500    4.5417    4.9167 C.ar      1 RES1    0.0000
     61 C27        7.3911    5.4235    3.7896 C.2       1 RES1    0.0000
     62 C28        8.3825    5.0350    2.7152 C.ar      1 RES1    0.0000
     63 C29        9.5807    4.4716    3.1389 C.ar      1 RES1    0.0000
     64 H20        9.7142    4.3016    4.0639 H         1 RES1    0.0000
     65 C30       10.5874    4.1513    2.2365 C.ar      1 RES1    0.0000
     66 H21       11.4006    3.7704    2.5474 H         1 RES1    0.0000
     67 C31       10.4070    4.3858    0.8853 C.ar      1 RES1    0.0000
     68 H22       11.0952    4.1639    0.2677 H         1 RES1    0.0000
     69 C32        9.2229    4.9434    0.4334 C.ar      1 RES1    0.0000
     70 H23        9.0927    5.1053   -0.4931 H         1 RES1    0.0000
     71 C33        8.2290    5.2629    1.3474 C.ar      1 RES1    0.0000
@<TRIPOS>BOND
     1    1   30 2
     2    2   41 2
     3    3   50 2
     4    4   61 2
     5    5   18 2
     6    6   18 2
     7    7   19 2
     8    8   19 2
     9    9   10 1
    10   11   12 1
    11   13   14 1
    12   15   16 1
    13   17   42 ar
    14   18   20 1
    15   19   71 1
    16   20   21 ar
    17   21   22 1
    18   23   21 ar
    19   24   23 1
    20   25   23 ar
    21   26   25 1
    22   27   25 ar
    23   28   27 1
    24   29   20 ar
    25   30    9 1
    26   31    9 1
    27   32   31 ar
    28   33   32 1
    29   34   32 ar
    30   35   34 1
    31   36   34 ar
    32   37   36 1
    33   38   36 ar
    34   39   38 1
    35   40   11 1
    36   41   11 1
    37   42   41 1
    38   43   42 ar
    39   44   43 1
    40   45   43 ar
    41   46   45 1
    42   47   45 ar
    43   48   47 1
    44   49   17 ar
    45   50   13 1
    46   51   13 1
    47   52   51 ar
    48   53   52 1
    49   54   52 ar
    50   55   54 1
    51   56   54 ar
    52   57   56 1
    53   58   56 ar
    54   59   58 1
    55   60   15 1
    56   61   15 1
    57   62   61 1
    58   63   62 ar
    59   64   63 1
    60   65   63 ar
    61   66   65 1
    62   67   65 ar
    63   68   67 1
    64   69   67 ar
    65   70   69 1
    66   71   62 ar
    67   27   29 ar
    68   29   30 1
    69   31   40 ar
    70   38   40 ar
    71   47   49 ar
    72   49   50 1
    73   51   60 ar
    74   58   60 ar
    75   69   71 ar
@<TRIPOS>SUBSTRUCTURE
     1 RES1 1

@<TRIPOS>CRYSIN
  14.9676   15.1359   12.9657  90.0000  98.9550  90.0000  14 1

