# MOL2 file generated by ConQuest
# Please check atom types

@<TRIPOS>MOLECULE
WEMREO
    27    29     1
SMALL
NO_CHARGES
****
Generated from CSD

@<TRIPOS>ATOM
      1 C1         7.7356    3.2533   14.5969 C.ar      1 RES1    0.0000
      2 C2         8.3521    2.4113   15.4919 C.ar      1 RES1    0.0000
      3 H1         9.2769    2.3064   15.5082 H         1 RES1    0.0000
      4 C3         7.5321    1.7320   16.3634 C.ar      1 RES1    0.0000
      5 H2         7.9076    1.1523   16.9862 H         1 RES1    0.0000
      6 C4         6.1489    1.8964   16.3293 C.ar      1 RES1    0.0000
      7 H3         5.6203    1.4208   16.9283 H         1 RES1    0.0000
      8 C5         5.5477    2.7453   15.4312 C.ar      1 RES1    0.0000
      9 H4         4.6241    2.8503   15.4192 H         1 RES1    0.0000
     10 C6         6.3634    3.4492   14.5350 C.ar      1 RES1    0.0000
     11 C7         6.1542    4.3960   13.4924 C.2       1 RES1    0.0000
     12 H5         5.3370    4.7353   13.2043 H         1 RES1    0.0000
     13 C8         7.3667    4.7029   13.0058 C.2       1 RES1    0.0000
     14 C9         7.7519    5.6174   11.9645 C.2       1 RES1    0.0000
     15 C10        7.0438    6.4139   11.1424 C.2       1 RES1    0.0000
     16 H6         6.1201    6.5145   11.1030 H         1 RES1    0.0000
     17 C11        8.0127    7.0566   10.3598 C.2       1 RES1    0.0000
     18 C12        7.8225    8.0393    9.2648 C.2       1 RES1    0.0000
     19 C13        6.2365    9.4198    8.2180 C.3       1 RES1    0.0000
     20 H7         6.6695   10.2504    8.4252 H         1 RES1    0.0000
     21 H8         5.2852    9.5518    8.1959 H         1 RES1    0.0000
     22 H9         6.5347    9.1068    7.3612 H         1 RES1    0.0000
     23 N1         9.2297    6.6928   10.6725 N.2       1 RES1    0.0000
     24 O1         8.3716    4.0182   13.6504 O.3       1 RES1    0.0000
     25 O2         9.0776    5.7635   11.7092 O.3       1 RES1    0.0000
     26 O3         8.6877    8.4121    8.5254 O.2       1 RES1    0.0000
     27 O4         6.5642    8.4416    9.2286 O.3       1 RES1    0.0000
@<TRIPOS>BOND
     1    1    2 ar
     2    2    3 1
     3    4    2 ar
     4    5    4 1
     5    6    4 ar
     6    7    6 1
     7    8    6 ar
     8    9    8 1
     9   10    1 ar
    10   11   10 1
    11   12   11 1
    12   13   11 2
    13   14   13 1
    14   15   14 2
    15   16   15 1
    16   17   15 1
    17   18   17 1
    18   19   20 1
    19   21   19 1
    20   22   19 1
    21   23   17 2
    22   24    1 1
    23   25   14 1
    24   26   18 2
    25   27   18 1
    26    8   10 ar
    27   13   24 1
    28   19   27 1
    29   23   25 1
@<TRIPOS>SUBSTRUCTURE
     1 RES1 1

@<TRIPOS>CRYSIN
  11.5170    8.7431   22.2595  90.0000  90.0000  90.0000  61 1

