# MOL2 file generated by ConQuest
# Please check atom types

@<TRIPOS>MOLECULE
WEMTAK
    76    72     3
SMALL
NO_CHARGES
****
Generated from CSD

@<TRIPOS>ATOM
      1 O1         9.1755   -0.4376   15.1022 O.2       1 RES1    0.0000
      2 O2         8.3349   -0.1501   16.9983 O.2       1 RES1    0.0000
      3 O3         3.0161   -0.4330   16.8660 O.2       1 RES1    0.0000
      4 O4         2.6114   -1.6431   15.1589 O.2       1 RES1    0.0000
      5 N1         5.7757    0.6556   11.8112 N.2       1 RES1    0.0000
      6 N2         8.2428   -0.2799   15.8073 N.pl3     1 RES1    0.0000
      7 N3         3.3251   -0.8879   15.7949 N.pl3     1 RES1    0.0000
      8 C1         6.8732    0.2007   13.8968 C.ar      1 RES1    0.0000
      9 H1         7.6679    0.4262   13.4694 H         1 RES1    0.0000
     10 C2         6.8940   -0.2233   15.1936 C.ar      1 RES1    0.0000
     11 C3         5.7731   -0.6028   15.9230 C.ar      1 RES1    0.0000
     12 C4         4.6032   -0.5032   15.1828 C.ar      1 RES1    0.0000
     13 C5         4.5285   -0.0671   13.8721 C.ar      1 RES1    0.0000
     14 H2         3.7077   -0.0204   13.4359 H         1 RES1    0.0000
     15 C6         5.6859    0.2957   13.2254 C.ar      1 RES1    0.0000
     16 C7         4.8474    1.2455   11.3588 C.2       1 RES1    0.0000
     17 H3         4.1429    1.4990   11.9102 H         1 RES1    0.0000
     18 C8         4.8137    1.5888    9.8695 C.ar      1 RES1    0.0000
     19 C9         3.6715    2.1206    9.3740 C.ar      1 RES1    0.0000
     20 H4         2.9507    2.2730    9.9409 H         1 RES1    0.0000
     21 C10        3.5671    2.4352    8.0464 C.ar      1 RES1    0.0000
     22 H5         2.7688    2.7883    7.7252 H         1 RES1    0.0000
     23 C11        4.6184    2.2413    7.1737 C.ar      1 RES1    0.0000
     24 C12        5.8024    1.7253    7.6701 C.ar      1 RES1    0.0000
     25 H6         6.5296    1.6008    7.1043 H         1 RES1    0.0000
     26 C13        5.9038    1.3926    9.0201 C.ar      1 RES1    0.0000
     27 H7         6.6958    1.0403    9.3555 H         1 RES1    0.0000
     28 C14        5.8050   -1.1452   17.3210 C.3       1 RES1    0.0000
     29 H8         6.6084   -1.6552   17.4473 H         1 RES1    0.0000
     30 H9         5.0407   -1.7095   17.4631 H         1 RES1    0.0000
     31 H10        5.7865   -0.4172   17.9461 H         1 RES1    0.0000
     32 C15        4.4652    2.5997    5.7124 C.3       1 RES1    0.0000
     33 H11        5.2813    2.4035    5.2474 H         1 RES1    0.0000
     34 H12        4.2670    3.5351    5.6318 H         1 RES1    0.0000
     35 H13        3.7489    2.0867    5.3302 H         1 RES1    0.0000
     36 H14        3.5835    2.9467    5.5589 Du        3 SUP3    0.0000
     37 H15        4.5978    1.8151    5.1745 Du        3 SUP3    0.0000
     38 H16        5.1160    3.2643    5.4761 Du        3 SUP3    0.0000
     39 O5         7.5796    5.2891    8.2267 O.2       2 RES2    0.0000
     40 O6         5.9475    5.3849    7.0227 O.2       2 RES2    0.0000
     41 O7         1.3396    5.2891    9.8682 O.2       2 RES2    0.0000
     42 O8         1.8614    6.7474   11.3570 O.2       2 RES2    0.0000
     43 N4         6.2354    4.4132   12.8035 N.2       2 RES2    0.0000
     44 N5         6.4239    5.3306    8.0889 N.pl3     2 RES2    0.0000
     45 N6         2.1477    5.8722   10.5421 N.pl3     2 RES2    0.0000
     46 C16        6.2022    4.8674   10.4428 C.ar      2 RES2    0.0000
     47 H17        7.1104    4.6697   10.4239 H         2 RES2    0.0000
     48 C17        5.5680    5.2619    9.2859 C.ar      2 RES2    0.0000
     49 C18        4.2165    5.6112    9.2096 C.ar      2 RES2    0.0000
     50 C19        3.5731    5.5049   10.4365 C.ar      2 RES2    0.0000
     51 C20        4.1670    5.1096   11.6163 C.ar      2 RES2    0.0000
     52 H18        3.6704    5.0771   12.4010 H         2 RES2    0.0000
     53 C21        5.5059    4.7618   11.6267 C.ar      2 RES2    0.0000
     54 C22        5.6291    3.8188   13.7125 C.2       2 RES2    0.0000
     55 H19        4.7417    3.5751   13.5739 H         2 RES2    0.0000
     56 C23        6.2633    3.4883   14.9957 C.ar      2 RES2    0.0000
     57 C24        5.4944    3.0055   16.0204 C.ar      2 RES2    0.0000
     58 H20        4.5832    2.8758   15.8822 H         2 RES2    0.0000
     59 C25        6.0329    2.7091   17.2467 C.ar      2 RES2    0.0000
     60 H21        5.4807    2.3937   17.9264 H         2 RES2    0.0000
     61 C26        7.3705    2.8720   17.4832 C.ar      2 RES2    0.0000
     62 C27        8.1713    3.3314   16.4414 C.ar      2 RES2    0.0000
     63 H22        9.0863    3.4340   16.5741 H         2 RES2    0.0000
     64 C28        7.6168    3.6362   15.2112 C.ar      2 RES2    0.0000
     65 H23        8.1626    3.9440   14.5240 H         2 RES2    0.0000
     66 C29        3.5079    6.1265    7.9872 C.3       2 RES2    0.0000
     67 H24        3.3720    5.4053    7.3685 H         2 RES2    0.0000
     68 H25        4.0412    6.8085    7.5715 H         2 RES2    0.0000
     69 H26        2.6593    6.4954    8.2417 H         2 RES2    0.0000
     70 C30        7.9469    2.5589   18.8353 C.3       2 RES2    0.0000
     71 H27        8.8925    2.7279   18.8272 H         2 RES2    0.0000
     72 H28        7.7882    1.6355   19.0440 H         2 RES2    0.0000
     73 H29        7.5282    3.1134   19.4974 H         2 RES2    0.0000
     74 H30        7.2480    2.2564   19.4186 Du        3 SUP3    0.0000
     75 H31        8.3504    3.3488   19.2017 Du        3 SUP3    0.0000
     76 H32        8.6105    1.8709   18.7484 Du        3 SUP3    0.0000
@<TRIPOS>BOND
     1    1    6 2
     2    2    6 2
     3    3    7 2
     4    4    7 2
     5    5   15 1
     6    6   10 1
     7    7   12 1
     8    8    9 1
     9   10    8 ar
    10   11   10 ar
    11   12   11 ar
    12   13   12 ar
    13   14   13 1
    14   15    8 ar
    15   16    5 2
    16   17   16 1
    17   18   16 1
    18   19   18 ar
    19   20   19 1
    20   21   19 ar
    21   22   21 1
    22   23   21 ar
    23   24   23 ar
    24   25   24 1
    25   26   18 ar
    26   27   26 1
    27   28   11 1
    28   29   28 1
    29   30   28 1
    30   31   28 1
    31   32   23 1
    32   33   32 1
    33   34   32 1
    34   35   32 1
    35   39   44 2
    36   40   44 2
    37   41   45 2
    38   42   45 2
    39   43   53 1
    40   44   48 1
    41   45   50 1
    42   46   47 1
    43   48   46 ar
    44   49   48 ar
    45   50   49 ar
    46   51   50 ar
    47   52   51 1
    48   53   46 ar
    49   54   43 2
    50   55   54 1
    51   56   54 1
    52   57   56 ar
    53   58   57 1
    54   59   57 ar
    55   60   59 1
    56   61   59 ar
    57   62   61 ar
    58   63   62 1
    59   64   56 ar
    60   65   64 1
    61   66   49 1
    62   67   66 1
    63   68   66 1
    64   69   66 1
    65   70   61 1
    66   71   70 1
    67   72   70 1
    68   73   70 1
    69   13   15 ar
    70   24   26 ar
    71   51   53 ar
    72   62   64 ar
@<TRIPOS>SUBSTRUCTURE
     1 RES1 1
     2 RES2 39
     3 SUP3 36

@<TRIPOS>CRYSIN
  19.4410    7.5440   19.9970  90.0000  99.6800  90.0000 231 1

