# MOL2 file generated by ConQuest
# Please check atom types

@<TRIPOS>MOLECULE
WENCOH
    29    33     1
SMALL
NO_CHARGES
****
Generated from CSD

@<TRIPOS>ATOM
      1 O1         1.0354   22.0607   -1.8741 O.3       1 RES1    0.0000
      2 O2         2.3501    9.1665   -0.5771 O.2       1 RES1    0.0000
      3 O3         2.4925   10.2745   -2.4475 O.2       1 RES1    0.0000
      4 N1         0.6327   16.1851    0.6967 N.3       1 RES1    0.0000
      5 N2         2.2522   10.1824   -1.2506 N.pl3     1 RES1    0.0000
      6 N3        -0.1787   17.5761    2.4976 N.2       1 RES1    0.0000
      7 C1         0.9241   17.4050    1.4800 C.3       1 RES1    0.0000
      8 C2        -1.0448   16.6459    2.3011 C.2       1 RES1    0.0000
      9 C3        -0.6650   15.6630    1.1908 C.3       1 RES1    0.0000
     10 C4         0.6375   14.9609    1.4849 C.3       1 RES1    0.0000
     11 C5         0.9867   18.6578    0.6088 C.ar      1 RES1    0.0000
     12 C6         0.1357   18.7806   -0.4832 C.ar      1 RES1    0.0000
     13 C7         0.1858   19.9259   -1.2982 C.ar      1 RES1    0.0000
     14 C8         1.0622   20.9768   -1.0188 C.ar      1 RES1    0.0000
     15 C9         1.8673   20.8233    0.0573 C.ar      1 RES1    0.0000
     16 C10        1.8729   19.6955    0.8943 C.ar      1 RES1    0.0000
     17 C11        2.0545   23.0787   -1.6447 C.3       1 RES1    0.0000
     18 C12       -2.2835   16.5011    3.0857 C.ar      1 RES1    0.0000
     19 C13       -2.9477   15.2966    3.1369 C.ar      1 RES1    0.0000
     20 C14       -4.0592   15.1474    3.9788 C.ar      1 RES1    0.0000
     21 C15       -4.4987   16.2378    4.7243 C.ar      1 RES1    0.0000
     22 C16       -3.8684   17.4247    4.6474 C.ar      1 RES1    0.0000
     23 C17       -2.7459   17.5652    3.8556 C.ar      1 RES1    0.0000
     24 C18        1.0250   13.6818    0.7675 C.ar      1 RES1    0.0000
     25 C19        0.9937   13.6269   -0.6576 C.ar      1 RES1    0.0000
     26 C20        1.3752   12.4729   -1.3177 C.ar      1 RES1    0.0000
     27 C21        1.7682   11.4088   -0.5283 C.ar      1 RES1    0.0000
     28 C22        1.7895   11.4264    0.8516 C.ar      1 RES1    0.0000
     29 C23        1.4121   12.5716    1.4812 C.ar      1 RES1    0.0000
@<TRIPOS>BOND
     1    1   14 1
     2    2    5 2
     3    3    5 2
     4    4    7 1
     5    5   27 1
     6    6    7 1
     7    7   11 1
     8    8    6 2
     9    9    4 1
    10   10    4 1
    11   11   12 ar
    12   12   13 ar
    13   13   14 ar
    14   14   15 ar
    15   15   16 ar
    16   16   11 ar
    17   17    1 1
    18   18    8 1
    19   19   18 ar
    20   20   19 ar
    21   21   20 ar
    22   22   21 ar
    23   23   18 ar
    24   24   10 1
    25   25   24 ar
    26   26   25 ar
    27   27   26 ar
    28   28   27 ar
    29   29   24 ar
    30    8    9 1
    31    9   10 1
    32   22   23 ar
    33   28   29 ar
@<TRIPOS>SUBSTRUCTURE
     1 RES1 1

@<TRIPOS>CRYSIN
   7.3950   21.9400   12.2500  90.0000  95.1200  90.0000  14 1

