# MOL2 file generated by ConQuest
# Please check atom types

@<TRIPOS>MOLECULE
WENGUS
   126   128     3
SMALL
USER_CHARGES
****
Generated from CSD

@<TRIPOS>ATOM
      1 O1         3.1517    8.8788   12.0836 O.3       1 RES1    0.0000
      2 N1         4.1438    7.1195    8.4912 N.pl3     1 RES1    0.0000
      3 N2         6.1152    9.3695    3.7423 N.pl3     1 RES1    0.0000
      4 O2         6.0286    8.7321    2.6999 O.2       1 RES1    0.0000
      5 N3         2.8848    5.1081    7.9498 N.2       1 RES1   -1.0000
      6 N4         2.0658    5.0782   10.0885 N.2       1 RES1    0.0000
      7 N5         1.9483    4.8559    8.8205 N.pl3     1 RES1    1.0000
      8 O3         6.6307   10.4781    3.7965 O.2       1 RES1    0.0000
      9 O4         2.4803    6.8779   12.7875 O.2       1 RES1    0.0000
     10 O5        -2.5848    1.5582    6.0049 O.2       1 RES1    0.0000
     11 O6        -3.6299    2.1170    7.8056 O.2       1 RES1    0.0000
     12 C1         3.4439    5.6148   10.2439 C.3       1 RES1    0.0000
     13 C2         3.9875    5.6494    8.7537 C.3       1 RES1    0.0000
     14 N6        -2.6646    2.1393    7.0756 N.pl3     1 RES1    0.0000
     15 O7         8.6538   10.2664   10.4903 O.3       2 RES2    0.0000
     16 N7         9.8457   11.9089   14.0575 N.pl3     2 RES2    0.0000
     17 N8         8.1721   14.1873   12.1990 N.2       2 RES2    0.0000
     18 O8        11.6076   10.1625   19.8381 O.2       2 RES2    0.0000
     19 O9         8.7759   12.3053    9.5727 O.2       2 RES2    0.0000
     20 N9         7.8197   14.3084   13.4354 N.pl3     2 RES2    1.0000
     21 C3         9.4795   13.4811   12.2567 C.3       2 RES2    0.0000
     22 N10        8.5415   13.9055   14.4415 N.2       2 RES2   -1.0000
     23 N11        2.8578   16.7477   14.5148 N.pl3     2 RES2    0.0000
     24 N12       11.6378    9.5244   18.8038 N.pl3     2 RES2    0.0000
     25 O10        2.4303   16.7110   15.6536 O.2       2 RES2    0.0000
     26 O11       12.1156    8.4014   18.7283 O.2       2 RES2    0.0000
     27 C4         9.7696   13.3780   13.8105 C.3       2 RES2    0.0000
     28 O12        2.2850   17.2804   13.5940 O.2       2 RES2    0.0000
     29 C5         7.0834    4.9933   10.2167 C.3       1 RES1    0.0000
     30 H1         6.8435    4.0656   10.3711 H         1 RES1    0.0000
     31 H2         8.0495    5.0588   10.2621 H         1 RES1    0.0000
     32 C6         6.8078    6.1041   10.0925 Du        3 SUP3    0.0000
     33 H3         6.1261    6.7790   10.2364 Du        3 SUP3    0.0000
     34 H4         7.6785    6.5289   10.1319 Du        3 SUP3    0.0000
     35 C7         6.4960    5.8263   11.3025 C.3       1 RES1    0.0000
     36 H5         6.1993    6.6680   10.9239 H         1 RES1    0.0000
     37 H6         7.1883    6.0242   11.9523 H         1 RES1    0.0000
     38 C8         6.6988    4.9831   11.1511 Du        3 SUP3    0.0000
     39 H7         7.4694    5.0121   11.7402 Du        3 SUP3    0.0000
     40 H8         6.6825    4.1175   10.7134 Du        3 SUP3    0.0000
     41 C9         3.8014    7.8291    9.6124 C.2       1 RES1    0.0000
     42 H9         3.8411    8.7568    9.6563 H         1 RES1    0.0000
     43 C10        3.4064    7.0682   10.6407 C.2       1 RES1    0.0000
     44 C11        2.9697    7.5558   11.9280 C.2       1 RES1    0.0000
     45 C12        2.7468    9.4261   13.3471 C.3       1 RES1    0.0000
     46 H10        1.8289    9.1965   13.5152 H         1 RES1    0.0000
     47 H11        2.8397   10.3807   13.3259 H         1 RES1    0.0000
     48 H12        3.2995    9.0644   14.0438 H         1 RES1    0.0000
     49 C13        0.7336    4.2076    8.3554 C.ar      1 RES1    0.0000
     50 C14       -0.2095    3.8364    9.2777 C.ar      1 RES1    0.0000
     51 H13       -0.0843    4.0258   10.1788 H         1 RES1    0.0000
     52 C15       -1.3450    3.1804    8.8536 C.ar      1 RES1    0.0000
     53 H14       -2.0041    2.9272    9.4594 H         1 RES1    0.0000
     54 C16       -1.4783    2.9096    7.5103 C.ar      1 RES1    0.0000
     55 C17       -0.5541    3.2958    6.5895 C.ar      1 RES1    0.0000
     56 H15       -0.6793    3.1038    5.6884 H         1 RES1    0.0000
     57 C18        0.5716    3.9751    7.0105 C.ar      1 RES1    0.0000
     58 H16        1.2052    4.2704    6.3972 H         1 RES1    0.0000
     59 C19        4.5983    7.6903    7.2983 C.ar      1 RES1    0.0000
     60 C20        5.1700    8.9671    7.2998 C.ar      1 RES1    0.0000
     61 H17        5.2227    9.4523    8.0919 H         1 RES1    0.0000
     62 C21        5.6526    9.5035    6.1351 C.ar      1 RES1    0.0000
     63 H18        6.0370   10.3515    6.1412 H         1 RES1    0.0000
     64 C22        5.5736    8.7950    4.9584 C.ar      1 RES1    0.0000
     65 C23        5.0016    7.5416    4.9327 C.ar      1 RES1    0.0000
     66 H19        4.9471    7.0702    4.1315 H         1 RES1    0.0000
     67 C24        4.5108    6.9888    6.0897 C.ar      1 RES1    0.0000
     68 H20        4.1186    6.1441    6.0700 H         1 RES1    0.0000
     69 C25        5.2351    4.8517    8.3932 C.3       1 RES1    0.0000
     70 H21        5.1586    3.9847    8.8218 H         1 RES1    0.0000
     71 H22        5.2164    4.6980    7.4361 H         1 RES1    0.0000
     72 C26        6.6053    5.4118    8.7401 C.3       1 RES1    0.0000
     73 H23        6.5784    6.3784    8.6749 H         1 RES1    0.0000
     74 H24        7.2532    5.0881    8.0934 H         1 RES1    0.0000
     75 C27        5.3441    5.1896   12.0128 C.3       1 RES1    0.0000
     76 H25        5.0215    5.8322   12.6625 H         1 RES1    0.0000
     77 H26        5.7006    4.4400   12.5141 H         1 RES1    0.0000
     78 C28        4.1279    4.6766   11.2601 C.3       1 RES1    0.0000
     79 H27        3.4621    4.4155   11.9159 H         1 RES1    0.0000
     80 H28        4.3911    3.8715   10.7861 H         1 RES1    0.0000
     81 C29        9.5023   11.2414   12.9155 C.2       2 RES2    0.0000
     82 H29        9.4335   10.3144   12.8746 H         2 RES2    0.0000
     83 C30        9.2736   12.0334   11.8614 C.2       2 RES2    0.0000
     84 C31        8.8846   11.5939   10.5362 C.2       2 RES2    0.0000
     85 C32        8.2765    9.7385    9.2065 C.3       2 RES2    0.0000
     86 H30        7.5958   10.2932    8.8188 H         2 RES2    0.0000
     87 H31        7.9384    8.8460    9.3140 H         2 RES2    0.0000
     88 H32        9.0430    9.7214    8.6280 H         2 RES2    0.0000
     89 C33        6.5422   14.9323   13.7151 C.ar      2 RES2    0.0000
     90 C34        5.9644   15.7185   12.7474 C.ar      2 RES2    0.0000
     91 H33        6.3861   15.8443   11.9280 H         2 RES2    0.0000
     92 C35        4.7460   16.3207   13.0094 C.ar      2 RES2    0.0000
     93 H34        4.3312   16.8531   12.3687 H         2 RES2    0.0000
     94 C36        4.1614   16.1142   14.2391 C.ar      2 RES2    0.0000
     95 C37        4.7371   15.3461   15.2099 C.ar      2 RES2    0.0000
     96 H35        4.3159   15.2273   16.0307 H         2 RES2    0.0000
     97 C38        5.9551   14.7462   14.9524 C.ar      2 RES2    0.0000
     98 H36        6.3736   14.2277   15.6006 H         2 RES2    0.0000
     99 C39       10.1928   11.2921   15.2614 C.ar      2 RES2    0.0000
    100 C40       10.6883    9.9873   15.2599 C.ar      2 RES2    0.0000
    101 H37       10.7142    9.5077   14.4633 H         2 RES2    0.0000
    102 C41       11.1364    9.4029   16.4185 C.ar      2 RES2    0.0000
    103 H38       11.4655    8.5332   16.4109 H         2 RES2    0.0000
    104 C42       11.0936   10.1199   17.5922 C.ar      2 RES2    0.0000
    105 C43       10.5602   11.3848   17.6376 C.ar      2 RES2    0.0000
    106 H39       10.5171   11.8453   18.4433 H         2 RES2    0.0000
    107 C44       10.0874   11.9692   16.4790 C.ar      2 RES2    0.0000
    108 H40        9.6998   12.8137   16.5093 H         2 RES2    0.0000
    109 C45       10.9474   14.1675   14.3906 C.3       2 RES2    0.0000
    110 H41       10.9664   15.0312   13.9483 H         2 RES2    0.0000
    111 H42       10.7560   14.3333   15.3265 H         2 RES2    0.0000
    112 C46       12.3479   13.5820   14.3088 C.3       2 RES2    0.0000
    113 H43       12.2969   12.6511   14.5768 H         2 RES2    0.0000
    114 H44       12.9005   14.0393   14.9630 H         2 RES2    0.0000
    115 C47       13.0796   13.6427   12.9488 C.3       2 RES2    0.0000
    116 H45       13.0641   14.5628   12.6413 H         2 RES2    0.0000
    117 H46       14.0078   13.4043   13.0972 H         2 RES2    0.0000
    118 C48       12.5704   12.8084   11.8796 C.3       2 RES2    0.0000
    119 H47       12.0634   12.0808   12.2733 H         2 RES2    0.0000
    120 H48       13.3230   12.4180   11.4086 H         2 RES2    0.0000
    121 C49       11.6693   13.5304   10.8497 C.3       2 RES2    0.0000
    122 H49       12.2194   14.1697   10.3711 H         2 RES2    0.0000
    123 H50       11.3682   12.8729   10.2046 H         2 RES2    0.0000
    124 C50       10.4518   14.2649   11.3677 C.3       2 RES2    0.0000
    125 H51        9.9562   14.5969   10.6029 H         2 RES2    0.0000
    126 H52       10.7586   15.0367   11.8690 H         2 RES2    0.0000
@<TRIPOS>BOND
     1    1   44 1
     2    2   13 1
     3    3    4 2
     4    5    7 1
     5    6    7 2
     6    7   49 1
     7    8    3 2
     8    9   44 2
     9   10   14 2
    10   11   14 2
    11   12    6 1
    12   13    5 1
    13   14   54 1
    14   15   84 1
    15   16   27 1
    16   17   20 2
    17   18   24 2
    18   19   84 2
    19   20   22 1
    20   21   17 1
    21   22   27 1
    22   23   25 2
    23   24   26 2
    24   27   21 1
    25   28   23 2
    26   29   30 1
    27   31   29 1
    28   35   29 1
    29   36   35 1
    30   37   35 1
    31   41    2 1
    32   42   41 1
    33   43   12 1
    34   44   43 1
    35   45    1 1
    36   46   45 1
    37   47   45 1
    38   48   45 1
    39   49   50 ar
    40   50   51 1
    41   52   50 ar
    42   53   52 1
    43   54   52 ar
    44   55   54 ar
    45   56   55 1
    46   57   49 ar
    47   58   57 1
    48   59    2 1
    49   60   59 ar
    50   61   60 1
    51   62   60 ar
    52   63   62 1
    53   64    3 1
    54   65   64 ar
    55   66   65 1
    56   67   59 ar
    57   68   67 1
    58   69   13 1
    59   70   69 1
    60   71   69 1
    61   72   29 1
    62   73   72 1
    63   74   72 1
    64   75   35 1
    65   76   75 1
    66   77   75 1
    67   78   12 1
    68   79   78 1
    69   80   78 1
    70   81   16 1
    71   82   81 1
    72   83   21 1
    73   84   83 1
    74   85   15 1
    75   86   85 1
    76   87   85 1
    77   88   85 1
    78   89   20 1
    79   90   89 ar
    80   91   90 1
    81   92   90 ar
    82   93   92 1
    83   94   23 1
    84   95   94 ar
    85   96   95 1
    86   97   89 ar
    87   98   97 1
    88   99   16 1
    89  100   99 ar
    90  101  100 1
    91  102  100 ar
    92  103  102 1
    93  104   24 1
    94  105  104 ar
    95  106  105 1
    96  107   99 ar
    97  108  107 1
    98  109   27 1
    99  110  109 1
   100  111  109 1
   101  112  109 1
   102  113  112 1
   103  114  112 1
   104  115  112 1
   105  116  115 1
   106  117  115 1
   107  118  115 1
   108  119  118 1
   109  120  118 1
   110  121  118 1
   111  122  121 1
   112  123  121 1
   113  124   21 1
   114  125  124 1
   115  126  124 1
   116   12   13 1
   117   41   43 2
   118   55   57 ar
   119   62   64 ar
   120   65   67 ar
   121   69   72 1
   122   75   78 1
   123   81   83 2
   124   92   94 ar
   125   95   97 ar
   126  102  104 ar
   127  105  107 ar
   128  121  124 1
@<TRIPOS>SUBSTRUCTURE
     1 RES1 1
     2 RES2 15
     3 SUP3 32

@<TRIPOS>CRYSIN
  11.2071   14.2950   15.5830  76.9130  88.7190  68.6130   2 1

