# MOL2 file generated by ConQuest
# Please check atom types

@<TRIPOS>MOLECULE
WENRAJ
    36    38     2
SMALL
NO_CHARGES
****
Generated from CSD

@<TRIPOS>ATOM
      1 N1         2.9776    6.6745    8.4002 N.am      1 RES1    0.0000
      2 C1         3.9949    5.7890    8.2531 C.2       1 RES1    0.0000
      3 O1         4.1774    4.9819    7.3777 O.2       1 RES1    0.0000
      4 C2         4.9151    6.0344    9.4860 C.2       1 RES1    0.0000
      5 O2         5.9006    5.4092    9.7250 O.2       1 RES1    0.0000
      6 C3         4.2687    7.1278   10.2373 C.ar      1 RES1    0.0000
      7 C4         4.5983    7.7907   11.3906 C.ar      1 RES1    0.0000
      8 C5         3.7572    8.7910   11.8061 C.ar      1 RES1    0.0000
      9 N2         4.0927    9.5515   13.0292 N.pl3     1 RES1    0.0000
     10 O3         4.9988    9.1036   13.7327 O.2       1 RES1    0.0000
     11 O4         3.4475   10.5535   13.2829 O.2       1 RES1    0.0000
     12 C6         2.6165    9.1472   11.1173 C.ar      1 RES1    0.0000
     13 C7         2.2701    8.4652    9.9640 C.ar      1 RES1    0.0000
     14 C8         3.1086    7.4672    9.5473 C.ar      1 RES1    0.0000
     15 N3         0.8840    8.8137    5.3227 N.am      2 RES2    0.0000
     16 C9         0.2207    8.4988    6.4711 C.2       2 RES2    0.0000
     17 O5         0.5011    7.6241    7.2573 O.2       2 RES2    0.0000
     18 C10       -0.9631    9.5029    6.5177 C.2       2 RES2    0.0000
     19 O6        -1.7539    9.5652    7.3817 O.2       2 RES2    0.0000
     20 C11       -0.8535   10.3230    5.2786 C.ar      2 RES2    0.0000
     21 C12       -1.5973   11.3395    4.7553 C.ar      2 RES2    0.0000
     22 C13       -1.2123   11.8694    3.5714 C.ar      2 RES2    0.0000
     23 N4        -2.0200   12.9365    2.9402 N.pl3     2 RES2    0.0000
     24 O7        -2.9399   13.3762    3.6547 O.2       2 RES2    0.0000
     25 O8        -1.7415   13.3212    1.8396 O.2       2 RES2    0.0000
     26 C14       -0.0949   11.4424    2.9034 C.ar      2 RES2    0.0000
     27 C15        0.6851   10.4186    3.4231 C.ar      2 RES2    0.0000
     28 C16        0.2749    9.8568    4.6180 C.ar      2 RES2    0.0000
     29 H1         2.3220    6.7421    7.8474 H         1 RES1    0.0000
     30 H2         5.3623    7.5698   11.8735 H         1 RES1    0.0000
     31 H3         2.0831    9.8434   11.4261 H         1 RES1    0.0000
     32 H4         1.4976    8.6769    9.4909 H         1 RES1    0.0000
     33 H5         1.5988    8.4138    5.0604 H         2 RES2    0.0000
     34 H6        -2.3490   11.6589    5.2002 H         2 RES2    0.0000
     35 H7         0.1422   11.8405    2.0970 H         2 RES2    0.0000
     36 H8         1.4512   10.1236    2.9868 H         2 RES2    0.0000
@<TRIPOS>BOND
     1    1    2 1
     2    2    3 2
     3    4    2 1
     4    5    4 2
     5    6    4 1
     6    7    6 ar
     7    8    7 ar
     8    9    8 1
     9   10    9 2
    10   11    9 2
    11   12    8 ar
    12   13   12 ar
    13   14    1 1
    14   15   16 1
    15   16   17 2
    16   18   16 1
    17   19   18 2
    18   20   18 1
    19   21   20 ar
    20   22   21 ar
    21   23   22 1
    22   24   23 2
    23   25   23 2
    24   26   22 ar
    25   27   26 ar
    26   28   15 1
    27   29    1 1
    28   30    7 1
    29   31   12 1
    30   32   13 1
    31   33   15 1
    32   34   21 1
    33   35   26 1
    34   36   27 1
    35    6   14 ar
    36   13   14 ar
    37   20   28 ar
    38   27   28 ar
@<TRIPOS>SUBSTRUCTURE
     1 RES1 1
     2 RES2 15

@<TRIPOS>CRYSIN
   5.5595   12.0772   12.2795  87.3220  87.3550  83.0490   2 1

