# MOL2 file generated by ConQuest
# Please check atom types

@<TRIPOS>MOLECULE
WEPLUB
    38    40     1
SMALL
NO_CHARGES
****
Generated from CSD

@<TRIPOS>ATOM
      1 O1         6.2243    9.2558   -0.6135 O.2       1 RES1    0.0000
      2 O2         4.6929    4.8465    4.4042 O.3       1 RES1    0.0000
      3 O3         7.6145   12.2334    6.8592 O.2       1 RES1    0.0000
      4 O4         7.3010   10.2754    7.7201 O.2       1 RES1    0.0000
      5 N1         6.6059    8.9046    1.5932 N.am      1 RES1    0.0000
      6 N2         6.1603    7.2372    3.9303 N.3       1 RES1    0.0000
      7 N3         7.3680   11.0276    6.7498 N.pl3     1 RES1    0.0000
      8 C1         6.2332    9.6989    0.5236 C.2       1 RES1    0.0000
      9 C2         5.8706   11.1132    0.8687 C.3       1 RES1    0.0000
     10 H1         4.9666   11.1374    1.2717 H         1 RES1    0.0000
     11 H2         5.8572   11.6646    0.0463 H         1 RES1    0.0000
     12 C3         6.8836   11.6770    1.8476 C.3       1 RES1    0.0000
     13 H3         7.7767   11.7136    1.4224 H         1 RES1    0.0000
     14 H4         6.6246   12.5969    2.1058 H         1 RES1    0.0000
     15 C4         6.9341   10.7980    3.0685 C.ar      1 RES1    0.0000
     16 C5         7.1733   11.3276    4.3181 C.ar      1 RES1    0.0000
     17 H5         7.3530   12.2546    4.4229 H         1 RES1    0.0000
     18 C6         7.1479   10.4865    5.4180 C.ar      1 RES1    0.0000
     19 C7         6.8484    9.1430    5.3016 C.ar      1 RES1    0.0000
     20 H6         6.8216    8.5951    6.0774 H         1 RES1    0.0000
     21 C8         6.5853    8.5900    4.0536 C.ar      1 RES1    0.0000
     22 C9         6.7086    9.4181    2.9118 C.ar      1 RES1    0.0000
     23 C10        7.0882    7.5615    1.2504 C.3       1 RES1    0.0000
     24 H7         7.6177    7.6048    0.4266 H         1 RES1    0.0000
     25 H8         6.3235    6.9640    1.1160 H         1 RES1    0.0000
     26 H9         7.6465    7.2191    1.9795 H         1 RES1    0.0000
     27 C11        6.4586    6.3679    5.0744 C.3       1 RES1    0.0000
     28 H10        5.9432    6.6628    5.8670 H         1 RES1    0.0000
     29 H11        7.4224    6.4154    5.2938 H         1 RES1    0.0000
     30 C12        6.0802    4.9497    4.7106 C.3       1 RES1    0.0000
     31 H12        6.6116    4.6588    3.9276 H         1 RES1    0.0000
     32 H13        6.2946    4.3481    5.4668 H         1 RES1    0.0000
     33 C13        4.7400    7.1290    3.5665 C.3       1 RES1    0.0000
     34 H14        4.5594    7.6780    2.7626 H         1 RES1    0.0000
     35 H15        4.1793    7.4712    4.3069 H         1 RES1    0.0000
     36 C14        4.3892    5.6849    3.2865 C.3       1 RES1    0.0000
     37 H16        3.4232    5.6169    3.0790 H         1 RES1    0.0000
     38 H17        4.8942    5.3720    2.4948 H         1 RES1    0.0000
@<TRIPOS>BOND
     1    1    8 2
     2    2   30 1
     3    3    7 2
     4    4    7 2
     5    5    8 1
     6    6   21 1
     7    7   18 1
     8    8    9 1
     9    9   10 1
    10   11    9 1
    11   12    9 1
    12   13   12 1
    13   14   12 1
    14   15   12 1
    15   16   15 ar
    16   17   16 1
    17   18   16 ar
    18   19   18 ar
    19   20   19 1
    20   21   19 ar
    21   22    5 1
    22   23    5 1
    23   24   23 1
    24   25   23 1
    25   26   23 1
    26   27    6 1
    27   28   27 1
    28   29   27 1
    29   30   27 1
    30   31   30 1
    31   32   30 1
    32   33    6 1
    33   34   33 1
    34   35   33 1
    35   36    2 1
    36   37   36 1
    37   38   36 1
    38   15   22 ar
    39   21   22 ar
    40   33   36 1
@<TRIPOS>SUBSTRUCTURE
     1 RES1 1

@<TRIPOS>CRYSIN
   9.8000   17.6190    8.0060  90.0000 104.3390  90.0000  14 1

