# MOL2 file generated by ConQuest
# Please check atom types

@<TRIPOS>MOLECULE
WEPMAG
    42    43     1
SMALL
NO_CHARGES
****
Generated from CSD

@<TRIPOS>ATOM
      1 O1         6.0068    0.9435    8.1574 O.2       1 RES1    0.0000
      2 O2         5.2644    3.1818    3.9654 O.3       1 RES1    0.0000
      3 O3         0.8845    3.4586    1.9162 O.3       1 RES1    0.0000
      4 O4        -0.0997    1.9110    3.7434 O.3       1 RES1    0.0000
      5 O5         2.4503   -3.8219   12.1249 O.2       1 RES1    0.0000
      6 O6         2.9211   -2.2445   13.5036 O.2       1 RES1    0.0000
      7 N1         2.9115   -2.7226   12.3830 N.pl3     1 RES1    0.0000
      8 C1         3.4703   -1.4182    8.9527 C.ar      1 RES1    0.0000
      9 H1         3.1792   -1.5856    8.0852 H         1 RES1    0.0000
     10 C2         3.0279   -2.2180    9.9992 C.ar      1 RES1    0.0000
     11 H2         2.4668   -2.9426    9.8405 H         1 RES1    0.0000
     12 C3         3.4404   -1.9108   11.2776 C.ar      1 RES1    0.0000
     13 C4         4.2951   -0.8658   11.5597 C.ar      1 RES1    0.0000
     14 H3         4.5445   -0.6751   12.4356 H         1 RES1    0.0000
     15 C5         4.7717   -0.1092   10.5026 C.ar      1 RES1    0.0000
     16 H4         5.3789    0.5770   10.6636 H         1 RES1    0.0000
     17 C6         4.3491   -0.3672    9.1997 C.ar      1 RES1    0.0000
     18 C7         4.8741    0.4919    8.0825 C.2       1 RES1    0.0000
     19 C8         3.9533    0.7887    6.9813 C.2       1 RES1    0.0000
     20 H5         3.1176    0.3816    6.9685 H         1 RES1    0.0000
     21 C9         4.2831    1.6312    5.9915 C.2       1 RES1    0.0000
     22 H6         5.1540    1.9582    5.9934 H         1 RES1    0.0000
     23 C10        3.4204    2.0829    4.9204 C.ar      1 RES1    0.0000
     24 C11        3.9343    2.9014    3.9032 C.ar      1 RES1    0.0000
     25 C12        3.1022    3.3949    2.8943 C.ar      1 RES1    0.0000
     26 H7         3.4502    3.9552    2.2386 H         1 RES1    0.0000
     27 C13        1.7613    3.0518    2.8691 C.ar      1 RES1    0.0000
     28 C14        1.2274    2.2125    3.8716 C.ar      1 RES1    0.0000
     29 C15        2.0522    1.7566    4.8751 C.ar      1 RES1    0.0000
     30 H8         1.6943    1.2168    5.5425 H         1 RES1    0.0000
     31 C16        5.8785    3.8500    2.8783 C.3       1 RES1    0.0000
     32 H9         6.8238    3.9129    3.0334 H         1 RES1    0.0000
     33 H10        5.5091    4.7317    2.7943 H         1 RES1    0.0000
     34 H11        5.7188    3.3580    2.0698 H         1 RES1    0.0000
     35 C17        1.3794    4.2877    0.8679 C.3       1 RES1    0.0000
     36 H12        0.6578    4.5269    0.2810 H         1 RES1    0.0000
     37 H13        2.0504    3.8113    0.3733 H         1 RES1    0.0000
     38 H14        1.7638    5.0829    1.2436 H         1 RES1    0.0000
     39 C18       -0.6692    1.0722    4.7393 C.3       1 RES1    0.0000
     40 H15       -1.5976    0.9274    4.5433 H         1 RES1    0.0000
     41 H16       -0.5857    1.4938    5.5981 H         1 RES1    0.0000
     42 H17       -0.2091    0.2302    4.7498 H         1 RES1    0.0000
@<TRIPOS>BOND
     1    1   18 2
     2    2   24 1
     3    3   27 1
     4    4   28 1
     5    5    7 2
     6    6    7 2
     7    7   12 1
     8    8    9 1
     9   10    8 ar
    10   11   10 1
    11   12   10 ar
    12   13   12 ar
    13   14   13 1
    14   15   13 ar
    15   16   15 1
    16   17    8 ar
    17   18   17 1
    18   19   18 1
    19   20   19 1
    20   21   19 2
    21   22   21 1
    22   23   21 1
    23   24   23 ar
    24   25   24 ar
    25   26   25 1
    26   27   25 ar
    27   28   27 ar
    28   29   23 ar
    29   30   29 1
    30   31    2 1
    31   32   31 1
    32   33   31 1
    33   34   31 1
    34   35    3 1
    35   36   35 1
    36   37   35 1
    37   38   35 1
    38   39    4 1
    39   40   39 1
    40   41   39 1
    41   42   39 1
    42   15   17 ar
    43   28   29 ar
@<TRIPOS>SUBSTRUCTURE
     1 RES1 1

@<TRIPOS>CRYSIN
   8.5874    9.1624   10.9048  95.5080 104.0620  97.3570   2 1

