# MOL2 file generated by ConQuest
# Please check atom types

@<TRIPOS>MOLECULE
WEPXOF
    64    66     1
SMALL
NO_CHARGES
****
Generated from CSD

@<TRIPOS>ATOM
      1 C1         3.9462    2.4256    2.4362 C.ar      1 RES1    0.0000
      2 H1         3.2275    2.4500    1.8470 H         1 RES1    0.0000
      3 C2         0.8164   -0.8407    6.0981 C.3       1 RES1    0.0000
      4 H2         1.3433   -1.6410    5.8938 H         1 RES1    0.0000
      5 N1         2.0276    0.3302    4.2687 N.am      1 RES1    0.0000
      6 N2         5.3778    3.3420    0.6551 N.pl3     1 RES1    0.0000
      7 N3         7.2343    2.3709    5.0696 N.pl3     1 RES1    0.0000
      8 C3         5.2099    2.8200    2.0248 C.ar      1 RES1    0.0000
      9 C4         6.0855    2.4000    4.1460 C.ar      1 RES1    0.0000
     10 C5         0.6710    0.0068    4.8271 C.3       1 RES1    0.0000
     11 H3         0.2741    0.8590    5.1056 H         1 RES1    0.0000
     12 C6         4.8444    2.0299    4.6175 C.ar      1 RES1    0.0000
     13 H4         4.7285    1.8071    5.5123 H         1 RES1    0.0000
     14 C7         2.7546   -0.7874    3.5795 C.3       1 RES1    0.0000
     15 H5         2.3162   -1.6119    3.8754 H         1 RES1    0.0000
     16 C8         6.2983    2.7971    2.8417 C.ar      1 RES1    0.0000
     17 H6         7.1444    3.0361    2.5360 H         1 RES1    0.0000
     18 C9        -0.2106   -0.5375    3.7252 C.ar      1 RES1    0.0000
     19 O1         1.7255    2.5364    4.7182 O.2       1 RES1    0.0000
     20 C10        4.2134   -0.9069    4.0372 C.ar      1 RES1    0.0000
     21 C11        2.4037    1.6247    4.2688 C.2       1 RES1    0.0000
     22 C12        3.7736    1.9935    3.7410 C.ar      1 RES1    0.0000
     23 C13        2.5725   -0.7442    2.0700 C.3       1 RES1    0.0000
     24 H7         1.6361   -0.7145    1.8621 H         1 RES1    0.0000
     25 H8         2.9632   -1.5289    1.6772 H         1 RES1    0.0000
     26 H9         3.0038    0.0378    1.7175 H         1 RES1    0.0000
     27 O2         8.3412    2.5175    4.5977 O.2       1 RES1    0.0000
     28 O3        -0.5289   -2.5168    7.0297 O.3       1 RES1    0.0000
     29 O4         7.0067    2.1886    6.2438 O.2       1 RES1    0.0000
     30 C14       -0.5400   -1.2601    6.6242 C.2       1 RES1    0.0000
     31 C15        5.2868   -0.7320    3.1711 C.ar      1 RES1    0.0000
     32 H10        5.1295   -0.5753    2.2671 H         1 RES1    0.0000
     33 O5         4.4004    3.4683   -0.0378 O.2       1 RES1    0.0000
     34 C16       -0.4523   -1.8841    3.5247 C.ar      1 RES1    0.0000
     35 H11       -0.1272   -2.5107    4.1292 H         1 RES1    0.0000
     36 O6         6.5052    3.6337    0.3008 O.2       1 RES1    0.0000
     37 O7        -1.4823   -0.5240    6.7161 O.2       1 RES1    0.0000
     38 C17        4.4885   -1.2027    5.3624 C.ar      1 RES1    0.0000
     39 H12        3.7867   -1.3681    5.9476 H         1 RES1    0.0000
     40 C18        1.5171   -0.0459    7.2073 C.3       1 RES1    0.0000
     41 H13        2.3363    0.3289    6.8500 H         1 RES1    0.0000
     42 H14        0.9454    0.6942    7.4651 H         1 RES1    0.0000
     43 C19       -1.6822   -1.4019    1.5355 C.ar      1 RES1    0.0000
     44 H15       -2.1629   -1.6950    0.7949 H         1 RES1    0.0000
     45 C20       -0.7576    0.3660    2.8328 C.ar      1 RES1    0.0000
     46 H16       -0.6368    1.2770    2.9746 H         1 RES1    0.0000
     47 C21        6.5897   -0.7887    3.6418 C.ar      1 RES1    0.0000
     48 H17        7.3005   -0.6665    3.0536 H         1 RES1    0.0000
     49 C22        5.7899   -1.2567    5.8309 C.ar      1 RES1    0.0000
     50 H18        5.9581   -1.4505    6.7257 H         1 RES1    0.0000
     51 C23        6.8367   -1.0210    4.9611 C.ar      1 RES1    0.0000
     52 H19        7.7115   -1.0217    5.2770 H         1 RES1    0.0000
     53 C24       -1.7385   -3.0131    7.6675 C.3       1 RES1    0.0000
     54 H20       -1.7806   -2.6890    8.5693 H         1 RES1    0.0000
     55 H21       -1.7268   -3.9734    7.6735 H         1 RES1    0.0000
     56 H22       -2.5069   -2.7059    7.1811 H         1 RES1    0.0000
     57 C25       -1.1796   -2.2967    2.4224 C.ar      1 RES1    0.0000
     58 H23       -1.3265   -3.2049    2.2873 H         1 RES1    0.0000
     59 C26        1.8498   -0.8461    8.4355 C.3       1 RES1    0.0000
     60 H24        1.0450   -1.2162    8.8045 H         1 RES1    0.0000
     61 H25        2.2685   -0.2762    9.0852 H         1 RES1    0.0000
     62 H26        2.4504   -1.5572    8.2012 H         1 RES1    0.0000
     63 C27       -1.4747   -0.0588    1.7411 C.ar      1 RES1    0.0000
     64 H27       -1.8199    0.5625    1.1428 H         1 RES1    0.0000
@<TRIPOS>BOND
     1    1    2 1
     2    3    4 1
     3    5   10 1
     4    6    8 1
     5    7    9 1
     6    8    1 ar
     7    9   12 ar
     8   10    3 1
     9   11   10 1
    10   12   13 1
    11   14    5 1
    12   15   14 1
    13   16    8 ar
    14   17   16 1
    15   18   10 1
    16   19   21 2
    17   20   14 1
    18   21    5 1
    19   22    1 ar
    20   23   14 1
    21   24   23 1
    22   25   23 1
    23   26   23 1
    24   27    7 2
    25   28   30 1
    26   29    7 2
    27   30    3 1
    28   31   20 ar
    29   32   31 1
    30   33    6 2
    31   34   18 ar
    32   35   34 1
    33   36    6 2
    34   37   30 2
    35   38   20 ar
    36   39   38 1
    37   40    3 1
    38   41   40 1
    39   42   40 1
    40   43   44 1
    41   45   18 ar
    42   46   45 1
    43   47   31 ar
    44   48   47 1
    45   49   38 ar
    46   50   49 1
    47   51   47 ar
    48   52   51 1
    49   53   28 1
    50   54   53 1
    51   55   53 1
    52   56   53 1
    53   57   34 ar
    54   58   57 1
    55   59   40 1
    56   60   59 1
    57   61   59 1
    58   62   59 1
    59   63   43 ar
    60   64   63 1
    61    9   16 ar
    62   12   22 ar
    63   21   22 1
    64   43   57 ar
    65   45   63 ar
    66   49   51 ar
@<TRIPOS>SUBSTRUCTURE
     1 RES1 1

@<TRIPOS>CRYSIN
  11.3650    6.7529   17.6330  90.0000 107.6200  90.0000   4 1

