# MOL2 file generated by ConQuest
# Please check atom types

@<TRIPOS>MOLECULE
WERVEU01
    20    20     1
SMALL
NO_CHARGES
****
Generated from CSD

@<TRIPOS>ATOM
      1 O1         1.7867    2.3746    3.2575 O.3       1 RES1    0.0000
      2 C1         2.5113    2.2252    2.1254 C.2       1 RES1    0.0000
      3 C2         2.3803    1.0106    1.5834 C.2       1 RES1    0.0000
      4 H1         2.7864    0.6957    0.8078 H         1 RES1    0.0000
      5 C3         1.5026    0.3072    2.4257 C.2       1 RES1    0.0000
      6 H2         1.2114   -0.5694    2.3194 H         1 RES1    0.0000
      7 C4         1.1634    1.1648    3.4278 C.2       1 RES1    0.0000
      8 N1         3.2959    3.3416    1.7418 N.pl3     1 RES1    0.0000
      9 O2         3.9553    3.2154    0.7143 O.2       1 RES1    0.0000
     10 O3         3.3002    4.3431    2.4380 O.2       1 RES1    0.0000
     11 C5         0.3121    1.0772    4.5892 C.2       1 RES1    0.0000
     12 H3         0.1532    1.8227    5.1214 H         1 RES1    0.0000
     13 N2        -0.2187   -0.0526    4.8682 N.2       1 RES1    0.0000
     14 N3        -1.0174   -0.0828    5.9687 N.am      1 RES1    0.0000
     15 H4        -1.2612    0.6662    6.3859 H         1 RES1    0.0000
     16 C6        -1.5829   -1.2462    6.3765 C.2       1 RES1    0.0000
     17 O4        -2.2626   -1.2529    7.4077 O.2       1 RES1    0.0000
     18 N4        -1.3575   -2.3262    5.6416 N.am      1 RES1    0.0000
     19 H5        -0.9474   -2.2932    4.8844 H         1 RES1    0.0000
     20 H6        -1.7193   -3.0787    5.9104 H         1 RES1    0.0000
@<TRIPOS>BOND
     1    1    2 1
     2    2    3 2
     3    3    4 1
     4    5    3 1
     5    6    5 1
     6    7    1 1
     7    8    2 1
     8    9    8 2
     9   10    8 2
    10   11    7 1
    11   12   11 1
    12   13   11 2
    13   14   13 1
    14   15   14 1
    15   16   14 1
    16   17   16 2
    17   18   16 1
    18   19   18 1
    19   20   18 1
    20    5    7 2
@<TRIPOS>SUBSTRUCTURE
     1 RES1 1

@<TRIPOS>CRYSIN
   4.1964    7.0129   14.4528  90.0000  90.9240  90.0000   4 1

