# MOL2 file generated by ConQuest
# Please check atom types

@<TRIPOS>MOLECULE
WERVEU
    20    20     1
SMALL
NO_CHARGES
****
Generated from CSD

@<TRIPOS>ATOM
      1 O1         3.5663   -1.6048    7.3361 O.3       1 RES1    0.0000
      2 C1         3.8759   -0.2789    7.2990 C.2       1 RES1    0.0000
      3 C2         2.9975    0.6285    8.0108 C.2       1 RES1    0.0000
      4 N1         1.9716    0.1613    8.6084 N.2       1 RES1    0.0000
      5 N2         1.1806    1.0318    9.2751 N.am      1 RES1    0.0000
      6 C3         0.0350    0.5419    9.8747 C.2       1 RES1    0.0000
      7 O2        -0.2895   -0.6386    9.7253 O.2       1 RES1    0.0000
      8 N3        -0.6639    1.4157   10.5685 N.am      1 RES1    0.0000
      9 C4         4.9938   -0.0907    6.5631 C.2       1 RES1    0.0000
     10 C5         5.4173   -1.3426    6.1309 C.2       1 RES1    0.0000
     11 C6         4.5396   -2.2190    6.6122 C.2       1 RES1    0.0000
     12 N4         4.4397   -3.6313    6.5189 N.pl3     1 RES1    0.0000
     13 O3         3.4953   -4.2086    7.0563 O.2       1 RES1    0.0000
     14 O4         5.3475   -4.2002    5.9104 O.2       1 RES1    0.0000
     15 H1         3.2391    1.5376    8.0108 H         1 RES1    0.0000
     16 H2         1.3867    1.8989    9.4846 H         1 RES1    0.0000
     17 H3        -0.3385    2.2517   10.7179 H         1 RES1    0.0000
     18 H4        -1.3823    1.1511   11.0688 H         1 RES1    0.0000
     19 H5         5.2723    0.7730    6.4267 H         1 RES1    0.0000
     20 H6         6.1268   -1.6468    5.5745 H         1 RES1    0.0000
@<TRIPOS>BOND
     1    1    2 1
     2    2    3 1
     3    3    4 2
     4    4    5 1
     5    5    6 1
     6    6    7 2
     7    8    6 1
     8    9    2 2
     9   10    9 1
    10   11    1 1
    11   12   11 1
    12   13   12 2
    13   14   12 2
    14   15    3 1
    15   16    5 1
    16   17    8 1
    17   18    8 1
    18   19    9 1
    19   20   10 1
    20   10   11 2
@<TRIPOS>SUBSTRUCTURE
     1 RES1 1

@<TRIPOS>CRYSIN
   9.9430    8.4020   10.2200  90.0000 101.1800  90.0000  14 2

