# MOL2 file generated by ConQuest
# Please check atom types

@<TRIPOS>MOLECULE
WERVEU02
    20    20     1
SMALL
NO_CHARGES
****
Generated from CSD

@<TRIPOS>ATOM
      1 O1         2.3012    1.2749    4.0477 O.3       1 RES1    0.0000
      2 C1         1.0858    1.0375    4.5761 C.2       1 RES1    0.0000
      3 C2         0.4183    2.1676    4.8720 C.2       1 RES1    0.0000
      4 H1        -0.4339    2.2404    5.2376 H         1 RES1    0.0000
      5 C3         1.2864    3.2174    4.5084 C.2       1 RES1    0.0000
      6 H2         1.1203    4.1287    4.5930 H         1 RES1    0.0000
      7 C4         2.4165    2.6417    4.0090 C.2       1 RES1    0.0000
      8 N1         0.7255   -0.3236    4.7224 N.pl3     1 RES1    0.0000
      9 O2        -0.3438   -0.5524    5.2783 O.2       1 RES1    0.0000
     10 O3         1.4789   -1.1879    4.2997 O.2       1 RES1    0.0000
     11 C5         3.6394    3.1226    3.4280 C.2       1 RES1    0.0000
     12 H3         4.2828    2.5221    3.1284 H         1 RES1    0.0000
     13 N2         3.8367    4.3865    3.3256 N.2       1 RES1    0.0000
     14 N3         5.0055    4.7533    2.7448 N.am      1 RES1    0.0000
     15 H4         5.6152    4.1733    2.4362 H         1 RES1    0.0000
     16 C6         5.3480    6.0743    2.6525 C.2       1 RES1    0.0000
     17 O4         6.4475    6.3662    2.1871 O.2       1 RES1    0.0000
     18 N4         4.4543    6.9561    3.0882 N.am      1 RES1    0.0000
     19 H5         3.6459    6.7025    3.4243 H         1 RES1    0.0000
     20 H6         4.6685    7.7730    3.0334 H         1 RES1    0.0000
@<TRIPOS>BOND
     1    1    2 1
     2    2    3 2
     3    3    4 1
     4    5    3 1
     5    6    5 1
     6    7    1 1
     7    8    2 1
     8    9    8 2
     9   10    8 2
    10   11    7 1
    11   12   11 1
    12   13   11 2
    13   14   13 1
    14   15   14 1
    15   16   14 1
    16   17   16 2
    17   18   16 1
    18   19   18 1
    19   20   18 1
    20    5    7 2
@<TRIPOS>SUBSTRUCTURE
     1 RES1 1

@<TRIPOS>CRYSIN
  13.5703    7.8254    7.9677  90.0000 102.2600  90.0000  14 1

