# MOL2 file generated by ConQuest
# Please check atom types

@<TRIPOS>MOLECULE
WERYEX
    22    23     1
SMALL
NO_CHARGES
****
Generated from CSD

@<TRIPOS>ATOM
      1 N1         0.6596    1.5510    2.6876 N.3       1 RES1    0.0000
      2 H1         0.6106    2.4821    2.6033 H         1 RES1    0.0000
      3 C1         1.6721    0.8283    2.1910 C.2       1 RES1    0.0000
      4 N2         2.7249    1.1563    1.4349 N.2       1 RES1    0.0000
      5 N3         2.8818    2.4543    1.1352 N.pl3     1 RES1    0.0000
      6 O1         3.8050    2.6739    0.3131 O.2       1 RES1    0.0000
      7 O2         2.1934    3.3688    1.5944 O.2       1 RES1    0.0000
      8 N4         1.5079   -0.4725    2.4638 N.3       1 RES1    0.0000
      9 H2         2.1545   -1.1368    2.4372 H         1 RES1    0.0000
     10 C2        -0.3384    0.6977    3.3083 C.3       1 RES1    0.0000
     11 H3        -0.6236    1.0618    4.1520 H         1 RES1    0.0000
     12 C2N        0.3384   -0.6977    3.3083 C.3       1 RES1    0.0000
     13 N4N       -1.5079    0.4725    2.4638 N.3       1 RES1    0.0000
     14 N1N       -0.6596   -1.5510    2.6876 N.pl3     1 RES1    0.0000
     15 H3N        0.6236   -1.0618    4.1520 H         1 RES1    0.0000
     16 C1N       -1.6721   -0.8283    2.1910 C.2       1 RES1    0.0000
     17 H2N       -2.1545    1.1368    2.4372 H         1 RES1    0.0000
     18 H1N       -0.6106   -2.4821    2.6033 H         1 RES1    0.0000
     19 N2N       -2.7249   -1.1563    1.4349 N.2       1 RES1    0.0000
     20 N3N       -2.8818   -2.4543    1.1352 N.pl3     1 RES1    0.0000
     21 O1N       -3.8050   -2.6739    0.3131 O.2       1 RES1    0.0000
     22 O2N       -2.1934   -3.3688    1.5944 O.2       1 RES1    0.0000
@<TRIPOS>BOND
     1    1    2 1
     2    3    1 1
     3    4    3 2
     4    5    4 1
     5    6    5 2
     6    7    5 2
     7    8    3 1
     8    9    8 1
     9   10    1 1
    10   11   10 1
    11   12    8 1
    12   13   10 1
    13   14   12 1
    14   15   12 1
    15   16   13 1
    16   17   13 1
    17   18   14 1
    18   19   16 2
    19   20   19 1
    20   21   20 2
    21   22   20 2
    22   10   12 1
    23   14   16 1
@<TRIPOS>SUBSTRUCTURE
     1 RES1 1

@<TRIPOS>CRYSIN
  14.4020   27.7950    4.1520  90.0000  90.0000  90.0000  43 1

