# MOL2 file generated by ConQuest
# Please check atom types

@<TRIPOS>MOLECULE
WESMOZ
    37    38     1
SMALL
NO_CHARGES
****
Generated from CSD

@<TRIPOS>ATOM
      1 C1         3.2754    2.4214    7.7456 C.ar      1 RES1    0.0000
      2 C2         2.0956    3.1927    7.6693 C.ar      1 RES1    0.0000
      3 C3         2.0277    4.4465    7.0694 C.ar      1 RES1    0.0000
      4 H1         1.2081    4.9264    7.0484 H         1 RES1    0.0000
      5 C4         3.1739    4.9866    6.5018 C.ar      1 RES1    0.0000
      6 C5         4.3873    4.2785    6.5813 C.ar      1 RES1    0.0000
      7 H2         5.1829    4.6553    6.2240 H         1 RES1    0.0000
      8 C6         4.4187    3.0408    7.1771 C.ar      1 RES1    0.0000
      9 H3         5.2469    2.5766    7.2101 H         1 RES1    0.0000
     10 C7         3.3897    1.1103    8.3799 C.2       1 RES1    0.0000
     11 H4         2.5996    0.7249    8.7399 H         1 RES1    0.0000
     12 C8         4.5277    0.4119    8.4907 C.2       1 RES1    0.0000
     13 H5         5.3082    0.8089    8.1223 H         1 RES1    0.0000
     14 C9         4.6926   -0.8906    9.1162 C.ar      1 RES1    0.0000
     15 C10        3.6335   -1.6249    9.6809 C.ar      1 RES1    0.0000
     16 H6         2.7543   -1.2664    9.6486 H         1 RES1    0.0000
     17 C11        3.8360   -2.8486   10.2789 C.ar      1 RES1    0.0000
     18 H7         3.0995   -3.3035   10.6701 H         1 RES1    0.0000
     19 C12        5.1218   -3.4424   10.3221 C.ar      1 RES1    0.0000
     20 C13        6.1907   -2.7065    9.7525 C.ar      1 RES1    0.0000
     21 H8         7.0699   -3.0660    9.7692 H         1 RES1    0.0000
     22 C14        5.9687   -1.4757    9.1752 C.ar      1 RES1    0.0000
     23 H9         6.7054   -1.0052    8.8033 H         1 RES1    0.0000
     24 C15        4.2718   -5.3337   11.6274 C.3       1 RES1    0.0000
     25 H10        4.0378   -4.7659   12.3910 H         1 RES1    0.0000
     26 H11        4.5918   -6.2014   11.9514 H         1 RES1    0.0000
     27 H12        3.4811   -5.4663   11.0642 H         1 RES1    0.0000
     28 C16        6.6556   -5.2436   10.9499 C.3       1 RES1    0.0000
     29 H13        7.0962   -5.1905   10.0761 H         1 RES1    0.0000
     30 H14        6.6037   -6.1804   11.2332 H         1 RES1    0.0000
     31 H15        7.1717   -4.7318   11.6074 H         1 RES1    0.0000
     32 C17        3.1286    6.2655    5.8418 C.1       1 RES1    0.0000
     33 N1         0.8230    2.7439    8.2554 N.pl3     1 RES1    0.0000
     34 N2         3.1105    7.2791    5.3018 N.1       1 RES1    0.0000
     35 N3         5.3162   -4.6928   10.8510 N.3       1 RES1    0.0000
     36 O1         0.6040    1.5411    8.4069 O.2       1 RES1    0.0000
     37 O2        -0.0056    3.6030    8.5447 O.2       1 RES1    0.0000
@<TRIPOS>BOND
     1    1    2 ar
     2    2    3 ar
     3    3    4 1
     4    5    3 ar
     5    6    5 ar
     6    7    6 1
     7    8    1 ar
     8    9    8 1
     9   10    1 1
    10   11   10 1
    11   12   10 2
    12   13   12 1
    13   14   12 1
    14   15   14 ar
    15   16   15 1
    16   17   15 ar
    17   18   17 1
    18   19   17 ar
    19   20   19 ar
    20   21   20 1
    21   22   14 ar
    22   23   22 1
    23   24   25 1
    24   26   24 1
    25   27   24 1
    26   28   29 1
    27   30   28 1
    28   31   28 1
    29   32    5 1
    30   33    2 1
    31   34   32 3
    32   35   19 1
    33   36   33 2
    34   37   33 2
    35    6    8 ar
    36   20   22 ar
    37   24   35 1
    38   28   35 1
@<TRIPOS>SUBSTRUCTURE
     1 RES1 1

@<TRIPOS>CRYSIN
   7.3280    8.5800   12.2110 101.9100  95.3800 101.9200   2 1

