# MOL2 file generated by ConQuest
# Please check atom types

@<TRIPOS>MOLECULE
WETJAI
   114   112     3
SMALL
NO_CHARGES
****
Generated from CSD

@<TRIPOS>ATOM
      1 O1         9.9352   14.9349    6.1407 O.2       1 RES1    0.0000
      2 O2         9.5117   13.3324    4.7369 O.2       1 RES1    0.0000
      3 O3        10.5103    8.8727    5.7601 O.2       1 RES1    0.0000
      4 O4        11.3235    8.2271    7.6631 O.2       1 RES1    0.0000
      5 N1         9.9144   13.7453    5.8210 N.pl3     1 RES1    0.0000
      6 N2        10.9109    9.1206    6.8986 N.pl3     1 RES1    0.0000
      7 N3        11.6913    9.9679    9.5892 N.pl3     1 RES1    0.0000
      8 H1        11.8186    9.1227    9.3799 H         1 RES1    0.0000
      9 N4        11.8768   10.4398   10.9073 N.2       1 RES1    0.0000
     10 C1        10.4129   12.7695    6.7849 C.ar      1 RES1    0.0000
     11 C2        10.4717   11.4390    6.4257 C.ar      1 RES1    0.0000
     12 H2        10.2067   11.1724    5.5541 H         1 RES1    0.0000
     13 C3        10.9161   10.4924    7.3303 C.ar      1 RES1    0.0000
     14 C4        11.3084   10.8778    8.6599 C.ar      1 RES1    0.0000
     15 C5        11.2492   12.2569    8.9515 C.ar      1 RES1    0.0000
     16 H3        11.5091   12.5488    9.8165 H         1 RES1    0.0000
     17 C6        10.8338   13.1863    8.0470 C.ar      1 RES1    0.0000
     18 H4        10.8323   14.1094    8.2727 H         1 RES1    0.0000
     19 C7        12.2191    9.4986   11.7541 C.2       1 RES1    0.0000
     20 C8        12.4301    8.0418   11.4394 C.3       1 RES1    0.0000
     21 H5        11.5633    7.6099   11.2944 H         1 RES1    0.0000
     22 H6        12.8895    7.6085   12.1891 H         1 RES1    0.0000
     23 H7        12.9772    7.9582   10.6305 H         1 RES1    0.0000
     24 C9        12.4767   10.0020   13.1563 C.3       1 RES1    0.0000
     25 H8        12.1618   10.9507   13.1942 H         1 RES1    0.0000
     26 C10       13.9760   10.0075   13.4561 C.3       1 RES1    0.0000
     27 H9        14.4408   10.5443   12.7658 H         1 RES1    0.0000
     28 H10       14.3190    9.0802   13.4001 H         1 RES1    0.0000
     29 C11       14.3113   10.5790   14.8385 C.3       1 RES1    0.0000
     30 H11       15.2805   10.4809   15.0148 H         1 RES1    0.0000
     31 H12       14.0895   11.5441   14.8632 H         1 RES1    0.0000
     32 C12       13.5246    9.8487   15.9012 C.3       1 RES1    0.0000
     33 H13       13.6834   10.2840   16.7761 H         1 RES1    0.0000
     34 H14       13.8567    8.9180   15.9638 H         1 RES1    0.0000
     35 C13       12.0085    9.8214   15.6244 C.3       1 RES1    0.0000
     36 H15       11.5567    9.2818   16.3197 H         1 RES1    0.0000
     37 H16       11.6499   10.7424   15.6689 H         1 RES1    0.0000
     38 C14       11.7086    9.2216   14.2371 C.3       1 RES1    0.0000
     39 H17       12.0685    8.2887   14.2371 H         1 RES1    0.0000
     40 C15       10.1848    9.1205   13.9883 C.2       1 RES1    0.0000
     41 C16        9.6164    7.9329   13.8499 C.2       1 RES1    0.0000
     42 H18       10.1796    7.1684   13.8351 H         1 RES1    0.0000
     43 C17        8.1494    7.7225   13.7165 C.3       1 RES1    0.0000
     44 H19        7.8089    7.3117   14.5502 H         1 RES1    0.0000
     45 H20        7.9846    7.0846   12.9767 H         1 RES1    0.0000
     46 C18        7.3822    8.9786   13.4495 C.3       1 RES1    0.0000
     47 H21        7.4065    9.1680   12.4774 H         1 RES1    0.0000
     48 H22        6.4359    8.8367   13.7033 H         1 RES1    0.0000
     49 C19        7.9044   10.1627   14.1827 C.3       1 RES1    0.0000
     50 H23        7.7274   10.0528   15.1499 H         1 RES1    0.0000
     51 H24        7.4265   10.9747   13.8763 H         1 RES1    0.0000
     52 C20        9.3964   10.3475   13.9636 C.3       1 RES1    0.0000
     53 H25        9.5313   10.7887   13.0871 H         1 RES1    0.0000
     54 H26        9.7429   10.9574   14.6605 H         1 RES1    0.0000
     55 C21        3.7484    5.7224   14.2058 C.3       2 RES2    0.0000
     56 H27        3.5961    6.3339   14.9686 H         2 RES2    0.0000
     57 H28        3.7712    6.2938   13.3985 H         2 RES2    0.0000
     58 O5         3.5230    9.3974    6.9925 O.2       2 RES2    0.0000
     59 O6         3.1763    7.9637    5.3943 O.2       2 RES2    0.0000
     60 O7         4.1856    3.4243    5.9364 O.2       2 RES2    0.0000
     61 O8         5.0585    2.5905    7.7257 O.2       2 RES2    0.0000
     62 N5         3.6007    8.2601    6.5279 N.pl3     2 RES2    0.0000
     63 N6         4.6394    3.5618    7.0716 N.pl3     2 RES2    0.0000
     64 N7         5.6746    4.1519    9.7325 N.pl3     2 RES2    0.0000
     65 H29        5.5790    3.3111    9.4903 H         2 RES2    0.0000
     66 N8         6.3428    4.4724   10.9221 N.2       2 RES2    0.0000
     67 C22        4.1476    7.1901    7.3467 C.ar      2 RES2    0.0000
     68 C23        4.1763    5.9149    6.8706 C.ar      2 RES2    0.0000
     69 H30        3.8538    5.7261    5.9990 H         2 RES2    0.0000
     70 C24        4.6737    4.9051    7.6549 C.ar      2 RES2    0.0000
     71 C25        5.1722    5.1527    8.9499 C.ar      2 RES2    0.0000
     72 C26        5.1439    6.4669    9.4343 C.ar      2 RES2    0.0000
     73 H31        5.4832    6.6595   10.3009 H         2 RES2    0.0000
     74 C27        4.6083    7.5134    8.6352 C.ar      2 RES2    0.0000
     75 H32        4.5632    8.4041    8.9614 H         2 RES2    0.0000
     76 C28        6.6344    3.4189   11.6174 C.2       2 RES2    0.0000
     77 C29        6.2445    2.0244   11.2747 C.3       2 RES2    0.0000
     78 H33        5.2834    1.9916   11.0868 H         2 RES2    0.0000
     79 H34        6.4496    1.4339   12.0293 H         2 RES2    0.0000
     80 H35        6.7425    1.7308   10.4855 H         2 RES2    0.0000
     81 C30        7.4498    3.6410   12.8943 C.3       2 RES2    0.0000
     82 H36        7.6171    4.6220   12.9816 H         2 RES2    0.0000
     83 C31        8.7865    2.9487   12.8169 C.3       2 RES2    0.0000
     84 H37        9.2751    3.2672   12.0178 H         2 RES2    0.0000
     85 H38        8.6459    1.9734   12.7213 H         2 RES2    0.0000
     86 C32        9.6315    3.2178   14.0625 C.3       2 RES2    0.0000
     87 H39       10.4767    2.7051   14.0081 H         2 RES2    0.0000
     88 H40        9.8561    4.1805   14.1102 H         2 RES2    0.0000
     89 C33        8.8741    2.8124   15.3064 C.3       2 RES2    0.0000
     90 H41        9.4080    3.0513   16.1055 H         2 RES2    0.0000
     91 H42        8.7501    1.8302   15.3064 H         2 RES2    0.0000
     92 C34        7.5090    3.4900   15.3937 C.3       2 RES2    0.0000
     93 H43        7.6318    4.4689   15.4745 H         2 RES2    0.0000
     94 H44        7.0351    3.1729   16.2027 H         2 RES2    0.0000
     95 C35        6.6568    3.1807   14.1465 C.3       2 RES2    0.0000
     96 H45        6.5658    2.1870   14.0905 H         2 RES2    0.0000
     97 C36        5.2541    3.7564   14.2256 C.2       2 RES2    0.0000
     98 C37        4.2013    2.9829   14.1168 C.2       2 RES2    0.0000
     99 H46        4.3450    2.0494   14.0097 H         2 RES2    0.0000
    100 C38        2.7759    3.4767   14.1514 C.3       2 RES2    0.0000
    101 H47        2.3404    3.1497   14.9785 H         2 RES2    0.0000
    102 H48        2.2849    3.0976   13.3803 H         2 RES2    0.0000
    103 C39        2.6760    5.0334   14.1036 C.3       2 RES2    0.0000
    104 H49        2.2405    5.2800   13.2502 H         2 RES2    0.0000
    105 H50        2.0676    5.3171   14.8319 H         2 RES2    0.0000
    106 C40        5.1221    5.2231   14.3706 C.3       2 RES2    0.0000
    107 H51        5.4505    5.4854   15.2685 H         2 RES2    0.0000
    108 H52        5.7029    5.6631   13.7000 H         2 RES2    0.0000
    109 C41        2.6801    4.6803   14.7182 Du        3 SUP3    0.0000
    110 C42        3.5982    5.5856   14.8286 Du        3 SUP3    0.0000
    111 H53        1.9242    5.1229   14.2635 Du        3 SUP3    0.0000
    112 H54        2.3823    4.5074   15.6458 Du        3 SUP3    0.0000
    113 H55        3.6230    5.8803   15.7677 Du        3 SUP3    0.0000
    114 H56        3.3029    6.3694   14.2865 Du        3 SUP3    0.0000
@<TRIPOS>BOND
     1    1    5 2
     2    2    5 2
     3    3    6 2
     4    4    6 2
     5    5   10 1
     6    6   13 1
     7    7    8 1
     8    9    7 1
     9   10   11 ar
    10   11   12 1
    11   13   11 ar
    12   14    7 1
    13   15   14 ar
    14   16   15 1
    15   17   10 ar
    16   18   17 1
    17   19    9 2
    18   20   19 1
    19   21   20 1
    20   22   20 1
    21   23   20 1
    22   24   19 1
    23   25   24 1
    24   26   24 1
    25   27   26 1
    26   28   26 1
    27   29   26 1
    28   30   29 1
    29   31   29 1
    30   32   29 1
    31   33   32 1
    32   34   32 1
    33   35   32 1
    34   36   35 1
    35   37   35 1
    36   38   24 1
    37   39   38 1
    38   40   38 1
    39   41   40 2
    40   42   41 1
    41   43   41 1
    42   44   43 1
    43   45   43 1
    44   46   43 1
    45   47   46 1
    46   48   46 1
    47   49   46 1
    48   50   49 1
    49   51   49 1
    50   52   40 1
    51   53   52 1
    52   54   52 1
    53   55   56 1
    54   57   55 1
    55   58   62 2
    56   59   62 2
    57   60   63 2
    58   61   63 2
    59   62   67 1
    60   63   70 1
    61   64   65 1
    62   66   64 1
    63   67   68 ar
    64   68   69 1
    65   70   68 ar
    66   71   64 1
    67   72   71 ar
    68   73   72 1
    69   74   67 ar
    70   75   74 1
    71   76   66 2
    72   77   76 1
    73   78   77 1
    74   79   77 1
    75   80   77 1
    76   81   76 1
    77   82   81 1
    78   83   81 1
    79   84   83 1
    80   85   83 1
    81   86   83 1
    82   87   86 1
    83   88   86 1
    84   89   86 1
    85   90   89 1
    86   91   89 1
    87   92   89 1
    88   93   92 1
    89   94   92 1
    90   95   81 1
    91   96   95 1
    92   97   95 1
    93   98   97 2
    94   99   98 1
    95  100   98 1
    96  101  100 1
    97  102  100 1
    98  103   55 1
    99  104  103 1
   100  105  103 1
   101  106   55 1
   102  107  106 1
   103  108  106 1
   104   13   14 ar
   105   15   17 ar
   106   35   38 1
   107   49   52 1
   108   70   71 ar
   109   72   74 ar
   110   92   95 1
   111   97  106 1
   112  100  103 1
@<TRIPOS>SUBSTRUCTURE
     1 RES1 1
     2 RES2 55
     3 SUP3 109

@<TRIPOS>CRYSIN
  10.5080   11.6860   16.6470  81.9890  90.1590  78.3880   2 1

