# MOL2 file generated by ConQuest
# Please check atom types

@<TRIPOS>MOLECULE
WEVCIK
    46    50     1
SMALL
NO_CHARGES
****
Generated from CSD

@<TRIPOS>ATOM
      1 O1         3.3387    7.5583    3.6218 O.3       1 RES1    0.0000
      2 O2         6.4713    6.9445    3.6963 O.3       1 RES1    0.0000
      3 C1         2.3439    4.6500    2.7263 C.3       1 RES1    0.0000
      4 H1         1.4570    4.5041    3.1166 H         1 RES1    0.0000
      5 O3         3.2488    4.4369    0.5497 O.3       1 RES1    0.0000
      6 O4         5.2131    8.7159    4.3409 O.3       1 RES1    0.0000
      7 N1         2.5752    5.7293    0.5504 N.3       1 RES1    0.0000
      8 C2         4.5273    5.6032    3.2161 C.3       1 RES1    0.0000
      9 H2         5.1189    5.1311    2.5937 H         1 RES1    0.0000
     10 C3         2.4385    6.0265    1.9901 C.3       1 RES1    0.0000
     11 H3         1.6474    6.5781    2.1660 H         1 RES1    0.0000
     12 C4         4.3925    7.5892    4.5499 C.3       1 RES1    0.0000
     13 H4         4.0525    7.5679    5.4679 H         1 RES1    0.0000
     14 C5         3.7021    6.6883    2.5263 C.3       1 RES1    0.0000
     15 H5         4.2062    7.1552    1.8284 H         1 RES1    0.0000
     16 C6         6.5667    8.2858    4.1826 C.3       1 RES1    0.0000
     17 C7        -0.7598    7.0053   -0.2779 C.ar      1 RES1    0.0000
     18 H6        -1.2700    6.2976    0.0433 H         1 RES1    0.0000
     19 C8         0.6166    6.8486   -0.4275 C.ar      1 RES1    0.0000
     20 C9         3.4401    4.6871    3.7965 C.3       1 RES1    0.0000
     21 H7         3.7912    3.7974    3.9598 H         1 RES1    0.0000
     22 H8         3.0961    5.0462    4.6298 H         1 RES1    0.0000
     23 C10        7.2939    8.3216    5.5079 C.3       1 RES1    0.0000
     24 H9         7.3551    9.2293    5.8159 H         1 RES1    0.0000
     25 H10        8.1767    7.9617    5.3986 H         1 RES1    0.0000
     26 H11        6.8122    7.7971    6.1518 H         1 RES1    0.0000
     27 C11        5.2935    6.3699    4.2650 C.3       1 RES1    0.0000
     28 H12        5.4782    5.8377    5.0662 H         1 RES1    0.0000
     29 C12        7.2327    9.1323    3.1297 C.3       1 RES1    0.0000
     30 H13        7.2953   10.0384    3.4404 H         1 RES1    0.0000
     31 H14        6.7135    9.1052    2.3218 H         1 RES1    0.0000
     32 H15        8.1134    8.7924    2.9556 H         1 RES1    0.0000
     33 C13        1.3513    7.9115   -0.9346 C.ar      1 RES1    0.0000
     34 H16        2.2689    7.8201   -1.0562 H         1 RES1    0.0000
     35 C14        1.2658    5.5287   -0.0985 C.3       1 RES1    0.0000
     36 H17        0.6875    5.0232    0.4935 H         1 RES1    0.0000
     37 H18        1.3854    5.0151   -0.9125 H         1 RES1    0.0000
     38 C15        2.6428    3.6615    1.6045 C.3       1 RES1    0.0000
     39 H19        3.2497    2.9708    1.9115 H         1 RES1    0.0000
     40 H20        1.8254    3.2418    1.2934 H         1 RES1    0.0000
     41 C16       -0.6339    9.2566   -1.0899 C.ar      1 RES1    0.0000
     42 H21       -1.0475   10.0627   -1.3003 H         1 RES1    0.0000
     43 C17        0.7327    9.1076   -1.2624 C.ar      1 RES1    0.0000
     44 H22        1.2373    9.8132   -1.5998 H         1 RES1    0.0000
     45 C18       -1.3763    8.1982   -0.6018 C.ar      1 RES1    0.0000
     46 H23       -2.2946    8.2894   -0.4900 H         1 RES1    0.0000
@<TRIPOS>BOND
     1    1   12 1
     2    2   16 1
     3    3    4 1
     4    5    7 1
     5    6   12 1
     6    7   10 1
     7    8    9 1
     8   10    3 1
     9   11   10 1
    10   12   13 1
    11   14    1 1
    12   15   14 1
    13   16    6 1
    14   17   18 1
    15   19   17 ar
    16   20    3 1
    17   21   20 1
    18   22   20 1
    19   23   16 1
    20   24   23 1
    21   25   23 1
    22   26   23 1
    23   27    2 1
    24   28   27 1
    25   29   16 1
    26   30   29 1
    27   31   29 1
    28   32   29 1
    29   33   19 ar
    30   34   33 1
    31   35    7 1
    32   36   35 1
    33   37   35 1
    34   38    3 1
    35   39   38 1
    36   40   38 1
    37   41   42 1
    38   43   33 ar
    39   44   43 1
    40   45   17 ar
    41   46   45 1
    42    5   38 1
    43    8   14 1
    44    8   20 1
    45    8   27 1
    46   10   14 1
    47   12   27 1
    48   19   35 1
    49   41   43 ar
    50   41   45 ar
@<TRIPOS>SUBSTRUCTURE
     1 RES1 1

@<TRIPOS>CRYSIN
   6.9512   13.4852   17.3143  90.0000  90.0000  90.0000  19 1

