# MOL2 file generated by ConQuest
# Please check atom types

@<TRIPOS>MOLECULE
WEVSIZ
    53    55     1
SMALL
NO_CHARGES
****
Generated from CSD

@<TRIPOS>ATOM
      1 C1         2.5280    0.1331    9.7718 C.3       1 RES1    0.0000
      2 C2         3.0818    1.3377    9.0042 C.3       1 RES1    0.0000
      3 C3         2.8696    2.6121    9.8038 C.3       1 RES1    0.0000
      4 C4         1.3832    2.9183   10.0457 C.3       1 RES1    0.0000
      5 C5         0.6184    1.6417   10.3233 C.2       1 RES1    0.0000
      6 C6         1.1217    0.4174   10.2655 C.2       1 RES1    0.0000
      7 C7         0.3660   -0.9053   10.4360 C.3       1 RES1    0.0000
      8 C8         1.3133   -1.9351    9.7555 C.3       1 RES1    0.0000
      9 C9         2.2976   -1.1258    8.9250 C.3       1 RES1    0.0000
     10 C10        3.5143   -0.2090   10.8892 C.2       1 RES1    0.0000
     11 O1         4.5383   -0.8112   10.7104 O.2       1 RES1    0.0000
     12 O2         3.1663    0.2763   12.0772 O.3       1 RES1    0.0000
     13 C11        4.0836    0.0077   13.1665 C.3       1 RES1    0.0000
     14 C12        1.2421    3.8577   11.2412 C.3       1 RES1    0.0000
     15 C13        0.7846    3.6017    8.8026 C.3       1 RES1    0.0000
     16 C14       -0.9864   -0.8534    9.7255 C.3       1 RES1    0.0000
     17 C15        0.1817   -1.3150   11.9234 C.3       1 RES1    0.0000
     18 C16       -0.6417   -0.3922   12.7808 C.ar      1 RES1    0.0000
     19 C17       -0.0412    0.6779   13.4484 C.ar      1 RES1    0.0000
     20 C18       -0.8055    1.4882   14.2628 C.ar      1 RES1    0.0000
     21 C19       -2.1604    1.2945   14.4490 C.ar      1 RES1    0.0000
     22 C20       -2.7585    0.2464   13.7869 C.ar      1 RES1    0.0000
     23 C21       -2.0114   -0.5888   12.9651 C.ar      1 RES1    0.0000
     24 N1        -0.1373    2.5847   14.9870 N.pl3     1 RES1    0.0000
     25 O3         1.0597    2.7656   14.7907 O.2       1 RES1    0.0000
     26 O4        -0.8080    3.2588   15.7637 O.2       1 RES1    0.0000
     27 H1         4.0488    1.2082    8.8356 H         1 RES1    0.0000
     28 H2         2.6240    1.4134    8.1297 H         1 RES1    0.0000
     29 H3         3.2811    3.3706    9.3186 H         1 RES1    0.0000
     30 H4         3.3282    2.5267   10.6769 H         1 RES1    0.0000
     31 H5        -0.2984    1.7252   10.5583 H         1 RES1    0.0000
     32 H6         1.7926   -2.4682   10.4381 H         1 RES1    0.0000
     33 H7         0.7971   -2.5507    9.1773 H         1 RES1    0.0000
     34 H8         1.9134   -0.8956    8.0422 H         1 RES1    0.0000
     35 H9         3.1427   -1.6234    8.7897 H         1 RES1    0.0000
     36 H10        3.7610    0.4459   13.9818 H         1 RES1    0.0000
     37 H11        4.9709    0.3558   12.9389 H         1 RES1    0.0000
     38 H12        4.1393   -0.9589   13.3159 H         1 RES1    0.0000
     39 H13        1.7900    4.6574   11.0948 H         1 RES1    0.0000
     40 H14        1.5421    3.4003   12.0541 H         1 RES1    0.0000
     41 H15        0.3022    4.1195   11.3426 H         1 RES1    0.0000
     42 H16        1.2487    4.4493    8.6396 H         1 RES1    0.0000
     43 H17       -0.1690    3.7743    8.9513 H         1 RES1    0.0000
     44 H18        0.8925    3.0158    8.0239 H         1 RES1    0.0000
     45 H19       -1.4318   -1.7222    9.8072 H         1 RES1    0.0000
     46 H20       -0.8497   -0.6444    8.7780 H         1 RES1    0.0000
     47 H21       -1.5447   -0.1601   10.1356 H         1 RES1    0.0000
     48 H22       -0.2364   -2.2120   11.9462 H         1 RES1    0.0000
     49 H23        1.0791   -1.3976   12.3334 H         1 RES1    0.0000
     50 H24        0.8876    0.8467   13.3422 H         1 RES1    0.0000
     51 H25       -2.6637    1.8660   15.0167 H         1 RES1    0.0000
     52 H26       -3.6900    0.0930   13.8926 H         1 RES1    0.0000
     53 H27       -2.4422   -1.3080   12.5190 H         1 RES1    0.0000
@<TRIPOS>BOND
     1    1    2 1
     2    2    3 1
     3    3    4 1
     4    4    5 1
     5    5    6 2
     6    6    1 1
     7    7    6 1
     8    8    7 1
     9    9    1 1
    10   10    1 1
    11   11   10 2
    12   12   10 1
    13   13   12 1
    14   14    4 1
    15   15    4 1
    16   16    7 1
    17   17    7 1
    18   18   17 1
    19   19   18 ar
    20   20   19 ar
    21   21   20 ar
    22   22   21 ar
    23   23   18 ar
    24   24   20 1
    25   25   24 2
    26   26   24 2
    27   27    2 1
    28   28    2 1
    29   29    3 1
    30   30    3 1
    31   31    5 1
    32   32    8 1
    33   33    8 1
    34   34    9 1
    35   35    9 1
    36   36   13 1
    37   37   13 1
    38   38   13 1
    39   39   14 1
    40   40   14 1
    41   41   14 1
    42   42   15 1
    43   43   15 1
    44   44   15 1
    45   45   16 1
    46   46   16 1
    47   47   16 1
    48   48   17 1
    49   49   17 1
    50   50   19 1
    51   51   21 1
    52   52   22 1
    53   53   23 1
    54    8    9 1
    55   22   23 ar
@<TRIPOS>SUBSTRUCTURE
     1 RES1 1

@<TRIPOS>CRYSIN
  13.1282    9.5891   15.2037  90.0000  90.6950  90.0000  14 2

