# MOL2 file generated by ConQuest
# Please check atom types

@<TRIPOS>MOLECULE
WEWQAS
    26    28     1
SMALL
NO_CHARGES
****
Generated from CSD

@<TRIPOS>ATOM
      1 N1         2.3257    0.2906   10.8230 N.pl3     1 RES1    0.0000
      2 O1         2.3956   -0.9550   11.0670 O.2       1 RES1    0.0000
      3 C1         2.6496    1.3119   11.7559 C.ar      1 RES1    0.0000
      4 C2         3.0945    1.2271   13.0707 C.ar      1 RES1    0.0000
      5 H1         3.2659    0.3854   13.4175 H         1 RES1    0.0000
      6 C3         3.3468    2.4303   13.6892 C.ar      1 RES1    0.0000
      7 H2         3.6583    2.4589   14.5685 H         1 RES1    0.0000
      8 C4         3.1800    3.6359   13.0495 C.ar      1 RES1    0.0000
      9 H3         3.4364    4.5169   13.4756 H         1 RES1    0.0000
     10 C5         2.7417    3.7114   11.7398 C.ar      1 RES1    0.0000
     11 H4         2.6321    4.5169   11.2116 H         1 RES1    0.0000
     12 C6         2.4830    2.5105   11.1262 C.ar      1 RES1    0.0000
     13 N2         2.0209    2.2114    9.8224 N.pl3     1 RES1    0.0000
     14 O2         1.6949    3.0948    8.9478 O.2       1 RES1    0.0000
     15 C7         1.9530    0.8633    9.6561 C.2       1 RES1    0.0000
     16 C8         1.5651    0.1603    8.4708 C.2       1 RES1    0.0000
     17 C9         1.3827    0.6876    7.1796 C.2       1 RES1    0.0000
     18 H5         1.5480    1.6187    6.8641 H         1 RES1    0.0000
     19 N3         1.0398   -0.2482    6.3195 N.2       1 RES1    0.0000
     20 N4         0.9916   -1.3867    7.0466 N.pl3     1 RES1    0.0000
     21 C10        0.6079   -2.6400    6.4150 C.3       1 RES1    0.0000
     22 H6         0.6640   -3.3144    7.0907 H         1 RES1    0.0000
     23 H7         1.2419   -2.9290    5.6549 H         1 RES1    0.0000
     24 H8        -0.0667   -2.5051    5.8735 H         1 RES1    0.0000
     25 C11        1.3050   -1.1778    8.3276 C.2       1 RES1    0.0000
     26 H9         1.3669   -1.8808    8.8755 H         1 RES1    0.0000
@<TRIPOS>BOND
     1    1    2 1
     2    3    1 1
     3    4    3 ar
     4    5    4 1
     5    6    4 ar
     6    7    6 1
     7    8    6 ar
     8    9    8 1
     9   10    8 ar
    10   11   10 1
    11   12    3 ar
    12   13   12 1
    13   14   13 1
    14   15    1 2
    15   16   15 1
    16   17   16 1
    17   18   17 1
    18   19   17 2
    19   20   19 1
    20   21   20 1
    21   22   21 1
    22   23   21 1
    23   24   21 1
    24   25   16 2
    25   26   25 1
    26   10   12 ar
    27   13   15 1
    28   20   25 1
@<TRIPOS>SUBSTRUCTURE
     1 RES1 1

@<TRIPOS>CRYSIN
  13.5140    7.7080   20.9300  90.0000 106.6450  90.0000  15 1

