# MOL2 file generated by ConQuest
# Please check atom types

@<TRIPOS>MOLECULE
WEWQEV
    65    65     1
SMALL
NO_CHARGES
****
Generated from CSD

@<TRIPOS>ATOM
      1 O1         3.7954    2.9918    7.1275 O.2       1 RES1    0.0000
      2 O2         2.2434    6.1327    7.8067 O.2       1 RES1    0.0000
      3 O3         1.5458    7.4849    9.5137 O.3       1 RES1    0.0000
      4 O4         3.0354    3.4732   11.2204 O.3       1 RES1    0.0000
      5 O5         4.5689    1.9449   11.8543 O.2       1 RES1    0.0000
      6 O6         0.0946    5.5332   14.4612 O.2       1 RES1    0.0000
      7 O7        -0.5435    4.2867   16.1140 O.2       1 RES1    0.0000
      8 O8         2.5724    0.9773   17.7758 O.2       1 RES1    0.0000
      9 O9         4.2037    0.3143   16.5132 O.2       1 RES1    0.0000
     10 N1         3.0691    5.9359    9.9196 N.am      1 RES1    0.0000
     11 N2         0.2062    4.5577   15.1819 N.pl3     1 RES1    0.0000
     12 N3         3.2163    1.0041   16.7290 N.pl3     1 RES1    0.0000
     13 C1         1.5080    3.2529    6.5216 C.3       1 RES1    0.0000
     14 H1         1.7721    2.8643    5.6615 H         1 RES1    0.0000
     15 H2         1.2882    4.1999    6.3973 H         1 RES1    0.0000
     16 H3         0.7232    2.7789    6.8676 H         1 RES1    0.0000
     17 C2         2.6428    3.1251    7.4986 C.2       1 RES1    0.0000
     18 C3         2.2924    3.1416    8.9788 C.3       1 RES1    0.0000
     19 H4         1.5729    3.8194    9.1291 H         1 RES1    0.0000
     20 C4         1.7488    1.7516    9.3546 C.3       1 RES1    0.0000
     21 H5         2.4552    1.0827    9.2394 H         1 RES1    0.0000
     22 H6         0.9909    1.5286    8.7736 H         1 RES1    0.0000
     23 H7         1.4537    1.7584   10.2880 H         1 RES1    0.0000
     24 C5         3.4987    3.5116    9.8339 C.3       1 RES1    0.0000
     25 H8         4.2252    2.8379    9.7029 H         1 RES1    0.0000
     26 C6         4.0494    4.9222    9.5881 C.3       1 RES1    0.0000
     27 H9         4.2558    5.0043    8.6138 H         1 RES1    0.0000
     28 C7         2.2828    6.4854    8.9687 C.2       1 RES1    0.0000
     29 C8         0.4691    8.1125    8.7364 C.3       1 RES1    0.0000
     30 C9        -0.5311    7.0579    8.3021 C.3       1 RES1    0.0000
     31 H10       -0.7495    6.4812    9.0638 H         1 RES1    0.0000
     32 H11       -0.1434    6.5160    7.5832 H         1 RES1    0.0000
     33 H12       -1.3462    7.4943    7.9770 H         1 RES1    0.0000
     34 C10       -0.1460    9.0597    9.7551 C.3       1 RES1    0.0000
     35 H13        0.5282    9.7092   10.0449 H         1 RES1    0.0000
     36 H14       -0.4607    8.5475   10.5287 H         1 RES1    0.0000
     37 H15       -0.9013    9.5321    9.3474 H         1 RES1    0.0000
     38 C11        1.0490    8.8773    7.5490 C.3       1 RES1    0.0000
     39 H16        1.3610    8.2417    6.8721 H         1 RES1    0.0000
     40 H17        1.8016    9.4277    7.8510 H         1 RES1    0.0000
     41 H18        0.3574    9.4530    7.1624 H         1 RES1    0.0000
     42 C12        5.3510    5.1536   10.3624 C.3       1 RES1    0.0000
     43 H19        5.1656    5.0443   11.3298 H         1 RES1    0.0000
     44 H20        6.0005    4.4529   10.1012 H         1 RES1    0.0000
     45 C13        5.9958    6.5179   10.1437 C.3       1 RES1    0.0000
     46 H21        5.3901    7.2128   10.5310 H         1 RES1    0.0000
     47 C14        6.1965    6.8368    8.6707 C.3       1 RES1    0.0000
     48 H22        5.3269    6.8555    8.2200 H         1 RES1    0.0000
     49 H23        6.7616    6.1491    8.2605 H         1 RES1    0.0000
     50 H24        6.6299    7.7115    8.5823 H         1 RES1    0.0000
     51 C15        7.3243    6.5834   10.8843 C.3       1 RES1    0.0000
     52 H25        7.9350    5.9088   10.5197 H         1 RES1    0.0000
     53 H26        7.1759    6.4095   11.8384 H         1 RES1    0.0000
     54 H27        7.7178    7.4743   10.7718 H         1 RES1    0.0000
     55 C16        3.6303    2.6619   12.0915 C.2       1 RES1    0.0000
     56 C17        2.9625    2.7480   13.4326 C.ar      1 RES1    0.0000
     57 C18        1.9301    3.6509   13.6770 C.ar      1 RES1    0.0000
     58 H28        1.6488    4.2632   13.0085 H         1 RES1    0.0000
     59 C19        1.3270    3.6307   14.9198 C.ar      1 RES1    0.0000
     60 C20        1.7077    2.7757   15.9306 C.ar      1 RES1    0.0000
     61 H29        1.2682    2.7757   16.7731 H         1 RES1    0.0000
     62 C21        2.7597    1.9167   15.6626 C.ar      1 RES1    0.0000
     63 C22        3.3961    1.8787   14.4297 C.ar      1 RES1    0.0000
     64 H30        4.1114    1.2735   14.2708 H         1 RES1    0.0000
     65 H31        3.0161    6.1998   10.7335 H         1 RES1    0.0000
@<TRIPOS>BOND
     1    1   17 2
     2    2   28 2
     3    3   28 1
     4    4   24 1
     5    5   55 2
     6    6   11 2
     7    7   11 2
     8    8   12 2
     9    9   12 2
    10   10   26 1
    11   11   59 1
    12   12   62 1
    13   13   14 1
    14   15   13 1
    15   16   13 1
    16   17   13 1
    17   18   17 1
    18   19   18 1
    19   20   18 1
    20   21   20 1
    21   22   20 1
    22   23   20 1
    23   24   18 1
    24   25   24 1
    25   26   24 1
    26   27   26 1
    27   28   10 1
    28   29    3 1
    29   30   29 1
    30   31   30 1
    31   32   30 1
    32   33   30 1
    33   34   29 1
    34   35   34 1
    35   36   34 1
    36   37   34 1
    37   38   29 1
    38   39   38 1
    39   40   38 1
    40   41   38 1
    41   42   26 1
    42   43   42 1
    43   44   42 1
    44   45   42 1
    45   46   45 1
    46   47   45 1
    47   48   47 1
    48   49   47 1
    49   50   47 1
    50   51   45 1
    51   52   51 1
    52   53   51 1
    53   54   51 1
    54   55    4 1
    55   56   55 1
    56   57   56 ar
    57   58   57 1
    58   59   57 ar
    59   60   59 ar
    60   61   60 1
    61   62   60 ar
    62   63   56 ar
    63   64   63 1
    64   65   10 1
    65   62   63 ar
@<TRIPOS>SUBSTRUCTURE
     1 RES1 1

@<TRIPOS>CRYSIN
  10.5420   10.5420   22.5021  90.0000  90.0000  90.0000  78 1

