# MOL2 file generated by ConQuest
# Please check atom types

@<TRIPOS>MOLECULE
WEWSOG10
    20    22     1
SMALL
NO_CHARGES
****
Generated from CSD

@<TRIPOS>ATOM
      1 O1         3.2531    2.2393   -0.7197 O.3       1 RES1    0.0000
      2 O2         3.7887    4.5035    1.6059 O.3       1 RES1    0.0000
      3 O3         1.4846    4.5933    1.1569 O.3       1 RES1    0.0000
      4 O4         7.0035    0.8385    0.4081 O.2       1 RES1    0.0000
      5 O5         5.9830    0.6291    2.3944 O.3       1 RES1    0.0000
      6 O6         6.3654    3.6713    2.3197 O.2       1 RES1    0.0000
      7 O7         5.4275    3.1928    4.3054 O.3       1 RES1    0.0000
      8 O8         0.8982    3.1308    2.8706 O.3       1 RES1    0.0000
      9 N1         4.5273    1.7019   -0.5331 N.2       1 RES1    0.0000
     10 C1         4.7855    1.6589    0.7168 C.2       1 RES1    0.0000
     11 C2         3.6876    2.1409    1.6249 C.3       1 RES1    0.0000
     12 C3         2.7069    2.6607    0.5580 C.3       1 RES1    0.0000
     13 C4         3.9878    3.3868    2.4862 C.3       1 RES1    0.0000
     14 C5         2.7586    4.1924    0.6848 C.3       1 RES1    0.0000
     15 C6         1.2308    2.3297    0.6599 C.3       1 RES1    0.0000
     16 C7         0.7011    3.4529    1.5295 C.3       1 RES1    0.0000
     17 C8         6.0647    1.0067    1.1190 C.2       1 RES1    0.0000
     18 C9         7.1392   -0.0602    2.9263 C.3       1 RES1    0.0000
     19 C10        5.4048    3.4544    3.0033 C.2       1 RES1    0.0000
     20 C11        6.7468    3.0788    4.9043 C.3       1 RES1    0.0000
@<TRIPOS>BOND
     1    1    9 1
     2    2   13 1
     3    3   14 1
     4    4   17 2
     5    5   17 1
     6    6   19 2
     7    7   19 1
     8    8   16 1
     9    9   10 2
    10   10   11 1
    11   11   12 1
    12   12    1 1
    13   13   11 1
    14   14    2 1
    15   15   12 1
    16   16    3 1
    17   17   10 1
    18   18    5 1
    19   19   13 1
    20   20    7 1
    21   12   14 1
    22   15   16 1
@<TRIPOS>SUBSTRUCTURE
     1 RES1 1

@<TRIPOS>CRYSIN
   8.8700   12.1590    6.0696 102.0800  90.5900  71.1100   2 1

