# MOL2 file generated by ConQuest
# Please check atom types

@<TRIPOS>MOLECULE
WEXDIM
    17    18     1
SMALL
NO_CHARGES
****
Generated from CSD

@<TRIPOS>ATOM
      1 O1         2.9203    0.1926    9.4035 O.3       1 RES1    0.0000
      2 C1         2.6159    0.3749    8.0200 C.3       1 RES1    0.0000
      3 C2         1.4887    1.4144    7.9567 C.3       1 RES1    0.0000
      4 C3         1.7552    2.7443   10.2168 C.3       1 RES1    0.0000
      5 N1         1.9188    2.0604   11.5232 N.pl3     1 RES1    0.0000
      6 C4         1.7667    0.5675   11.4753 C.3       1 RES1    0.0000
      7 N2         1.5815    0.3104   10.0387 N.3       1 RES1    0.0000
      8 C5         1.1168    1.5655    9.4411 C.3       1 RES1    0.0000
      9 C6         2.2087   -0.9120    7.4413 C.1       1 RES1    0.0000
     10 N3         1.9036   -1.9315    6.9995 N.1       1 RES1    0.0000
     11 C7         0.7608    3.9038   10.2459 C.3       1 RES1    0.0000
     12 C8         3.1192    3.2355    9.7168 C.3       1 RES1    0.0000
     13 N4         2.1788    2.7169   12.6533 N.pl3     1 RES1    0.0000
     14 O2         2.3475    3.9327   12.6053 O.2       1 RES1    0.0000
     15 O3         2.2234    2.0701   13.6909 O.2       1 RES1    0.0000
     16 C9         0.4595    0.1697   12.1447 C.3       1 RES1    0.0000
     17 C10        2.9617   -0.1912   12.0334 C.3       1 RES1    0.0000
@<TRIPOS>BOND
     1    1    2 1
     2    2    3 1
     3    3    8 1
     4    4    5 1
     5    5    6 1
     6    6    7 1
     7    7    1 1
     8    8    4 1
     9    9    2 1
    10   10    9 3
    11   11    4 1
    12   12    4 1
    13   13    5 1
    14   14   13 2
    15   15   13 2
    16   16    6 1
    17   17    6 1
    18    7    8 1
@<TRIPOS>SUBSTRUCTURE
     1 RES1 1

@<TRIPOS>CRYSIN
   9.3810    7.4090   17.1330  90.0000  92.0400  90.0000  14 1

