# MOL2 file generated by ConQuest
# Please check atom types

@<TRIPOS>MOLECULE
WEXFAG
    29    27     2
SMALL
NO_CHARGES
****
Generated from CSD

@<TRIPOS>ATOM
      1 O1         4.5046    1.4823    3.8720 O.2       1 RES1    0.0000
      2 O2         6.3098    0.5047    3.2694 O.2       1 RES1    0.0000
      3 O3         3.3631   -0.4012    1.9825 O.2       1 RES1    0.0000
      4 O4         2.6735    1.2773    0.8564 O.2       1 RES1    0.0000
      5 O5         9.0723    4.7920    4.1345 O.2       1 RES1    0.0000
      6 O6         8.0698    6.4625    3.2857 O.2       1 RES1    0.0000
      7 O7         8.8799    2.3185    2.2349 O.2       1 RES1    0.0000
      8 O8        10.3475    3.7917    1.7157 O.2       1 RES1    0.0000
      9 O9         6.3698    3.8082    3.4358 O.2       1 RES1    0.0000
     10 N1         5.2643    1.0646    3.0467 N.pl3     1 RES1    0.0000
     11 N2         3.5010    0.6936    1.4749 N.pl3     1 RES1    0.0000
     12 N3         8.4738    5.3326    3.2608 N.pl3     1 RES1    0.0000
     13 N4         9.2240    3.4494    1.9828 N.pl3     1 RES1    0.0000
     14 N5         6.1292    3.4170    1.2460 N.am      1 RES1    0.0000
     15 C1         5.7998    0.5752    0.6441 C.3       1 RES1    0.0000
     16 C2         4.9086    1.3116    1.5830 C.3       1 RES1    0.0000
     17 C3         4.8180    2.8210    1.3343 C.3       1 RES1    0.0000
     18 C4         6.7900    3.8754    2.2936 C.2       1 RES1    0.0000
     19 C5         8.1506    4.5212    2.0033 C.3       1 RES1    0.0000
     20 C6         8.2476    5.3756    0.7800 C.3       1 RES1    0.0000
     21 H1         5.6678    4.7859    8.1039 Du        2 SUP2    0.0000
     22 H2         6.7900    0.9548    0.5986 H         1 RES1    0.0000
     23 H3         6.1428    0.1748    1.2193 H         1 RES1    0.0000
     24 H4         4.3407    3.1899    2.0187 H         1 RES1    0.0000
     25 H5         4.2360    2.9217    0.5492 H         1 RES1    0.0000
     26 H6         6.5977    3.3521    0.5356 H         1 RES1    0.0000
     27 H7         8.8198    5.5962    0.5048 H         1 RES1    0.0000
     28 H8         7.7026    4.5602    0.5322 H         1 RES1    0.0000
     29 H9         7.4706    6.1072    0.8228 H         1 RES1    0.0000
@<TRIPOS>BOND
     1    1   10 2
     2    2   10 2
     3    3   11 2
     4    4   11 2
     5    5   12 2
     6    6   12 2
     7    7   13 2
     8    8   13 2
     9    9   18 2
    10   10   16 1
    11   11   16 1
    12   12   19 1
    13   13   19 1
    14   14   17 1
    15   15   16 1
    16   16   17 1
    17   17   24 1
    18   18   14 1
    19   19   18 1
    20   20   19 1
    21   22   15 1
    22   23   15 1
    23   25   17 1
    24   26   14 1
    25   27   20 1
    26   28   20 1
    27   29   20 1
@<TRIPOS>SUBSTRUCTURE
     1 RES1 1
     2 SUP2 21

@<TRIPOS>CRYSIN
  16.9690   14.0970   10.0820  90.0000  90.0000  90.0000  61 1

