# MOL2 file generated by ConQuest
# Please check atom types

@<TRIPOS>MOLECULE
WEXTUR
    92    95     1
SMALL
NO_CHARGES
****
Generated from CSD

@<TRIPOS>ATOM
      1 O1         6.0128    6.2488    6.1138 O.3       1 RES1    0.0000
      2 O2         5.5209    4.6158    4.6194 O.2       1 RES1    0.0000
      3 O3         3.3508    9.4080    5.7069 O.3       1 RES1    0.0000
      4 O4         2.8492    3.3011    6.9177 O.3       1 RES1    0.0000
      5 N1         4.0301    5.2519    6.2472 N.am      1 RES1    0.0000
      6 N2         3.4768    9.9081    4.3457 N.3       1 RES1    0.0000
      7 N3         3.2061    1.9451    6.4957 N.3       1 RES1    0.0000
      8 C1         7.3041    6.4160    5.4934 C.3       1 RES1    0.0000
      9 H1         7.8701    5.6439    5.7040 H         1 RES1    0.0000
     10 H2         7.7254    7.2338    5.8322 H         1 RES1    0.0000
     11 H3         7.1929    6.4832    4.5220 H         1 RES1    0.0000
     12 C2         5.2217    5.3028    5.5694 C.2       1 RES1    0.0000
     13 C3         3.7456    6.1573    7.3356 C.ar      1 RES1    0.0000
     14 C4         3.8795    5.7003    8.6399 C.ar      1 RES1    0.0000
     15 H4         4.1865    4.8157    8.8018 H         1 RES1    0.0000
     16 C5         3.5671    6.5308    9.7086 C.ar      1 RES1    0.0000
     17 H5         3.6591    6.2203   10.6021 H         1 RES1    0.0000
     18 C6         3.1196    7.8185    9.4560 C.ar      1 RES1    0.0000
     19 H6         2.8977    8.3914   10.1809 H         1 RES1    0.0000
     20 C7         2.9927    8.2778    8.1542 C.ar      1 RES1    0.0000
     21 H7         2.6812    9.1626    7.9974 H         1 RES1    0.0000
     22 C8         3.3144    7.4621    7.0723 C.ar      1 RES1    0.0000
     23 C9         3.1926    7.9836    5.6642 C.3       1 RES1    0.0000
     24 H8         3.8905    7.5806    5.0898 H         1 RES1    0.0000
     25 H9         2.3058    7.7500    5.2898 H         1 RES1    0.0000
     26 C10        2.2932   10.7752    4.0819 C.3       1 RES1    0.0000
     27 C11        2.4749   11.3342    2.6641 C.3       1 RES1    0.0000
     28 H10        2.3814   10.5942    2.0145 H         1 RES1    0.0000
     29 H11        1.7538   11.9877    2.4822 H         1 RES1    0.0000
     30 C12        3.8186   12.0134    2.4447 C.3       1 RES1    0.0000
     31 H12        3.9043   12.2807    1.4961 H         1 RES1    0.0000
     32 H13        3.8728   12.8302    3.0006 H         1 RES1    0.0000
     33 C13        4.9533   11.0716    2.8123 C.3       1 RES1    0.0000
     34 H14        5.8125   11.5554    2.7245 H         1 RES1    0.0000
     35 H15        4.9647   10.3170    2.1709 H         1 RES1    0.0000
     36 C14        4.8378   10.5137    4.2361 C.3       1 RES1    0.0000
     37 C15        3.0247    4.2529    5.8636 C.3       1 RES1    0.0000
     38 H16        3.3360    3.7753    5.0419 H         1 RES1    0.0000
     39 C16        1.7131    4.9533    5.5608 C.ar      1 RES1    0.0000
     40 C17        0.8356    5.3454    6.5696 C.ar      1 RES1    0.0000
     41 H17        1.0121    5.1039    7.4719 H         1 RES1    0.0000
     42 C18       -0.2962    6.0876    6.2590 C.ar      1 RES1    0.0000
     43 H18       -0.8842    6.3644    6.9521 H         1 RES1    0.0000
     44 C19       -0.5746    6.4268    4.9444 C.ar      1 RES1    0.0000
     45 H19       -1.3428    6.9472    4.7376 H         1 RES1    0.0000
     46 C20        0.2715    6.0048    3.9352 C.ar      1 RES1    0.0000
     47 H20        0.0713    6.2140    3.0302 H         1 RES1    0.0000
     48 C21        1.4134    5.2743    4.2420 C.ar      1 RES1    0.0000
     49 H21        1.9941    4.9914    3.5444 H         1 RES1    0.0000
     50 C22        4.3326    1.4973    7.3757 C.3       1 RES1    0.0000
     51 C23        4.6228    0.0328    7.0090 C.3       1 RES1    0.0000
     52 H22        4.9695   -0.0048    6.0829 H         1 RES1    0.0000
     53 H23        5.3266   -0.3167    7.6100 H         1 RES1    0.0000
     54 C24        3.3967   -0.8562    7.1140 C.3       1 RES1    0.0000
     55 H24        3.6265   -1.7799    6.8436 H         1 RES1    0.0000
     56 H25        3.0750   -0.8773    8.0495 H         1 RES1    0.0000
     57 C25        2.3097   -0.3082    6.2080 C.3       1 RES1    0.0000
     58 H26        1.5005   -0.8710    6.2999 H         1 RES1    0.0000
     59 H27        2.6136   -0.3706    5.2687 H         1 RES1    0.0000
     60 C26        1.9374    1.1508    6.5157 C.3       1 RES1    0.0000
     61 C27        5.5570    2.3298    6.9951 C.3       1 RES1    0.0000
     62 H28        5.6717    2.3152    6.0223 H         1 RES1    0.0000
     63 H29        6.3539    1.9541    7.4240 H         1 RES1    0.0000
     64 H30        5.4292    3.2543    7.2958 H         1 RES1    0.0000
     65 C28        4.0971    1.6420    8.8870 C.3       1 RES1    0.0000
     66 H31        3.6666    2.5036    9.0694 H         1 RES1    0.0000
     67 H32        4.9561    1.5994    9.3568 H         1 RES1    0.0000
     68 H33        3.5175    0.9153    9.1990 H         1 RES1    0.0000
     69 C29        1.1234    1.2466    7.8135 C.3       1 RES1    0.0000
     70 H34        1.5756    0.7427    8.5214 H         1 RES1    0.0000
     71 H35        0.2299    0.8726    7.6663 H         1 RES1    0.0000
     72 H36        1.0452    2.1853    8.0819 H         1 RES1    0.0000
     73 C30        1.0617    1.6602    5.3722 C.3       1 RES1    0.0000
     74 H37        0.7062    2.5448    5.6011 H         1 RES1    0.0000
     75 H38        0.3202    1.0372    5.2264 H         1 RES1    0.0000
     76 H39        1.5978    1.7261    4.5544 H         1 RES1    0.0000
     77 C31        1.0652    9.8695    4.0845 C.3       1 RES1    0.0000
     78 H40        1.2153    9.1135    3.4796 H         1 RES1    0.0000
     79 H41        0.2838   10.3788    3.7839 H         1 RES1    0.0000
     80 H42        0.9071    9.5347    4.9925 H         1 RES1    0.0000
     81 C32        2.0487   11.9073    5.0988 C.3       1 RES1    0.0000
     82 H43        2.1753   11.5633    6.0082 H         1 RES1    0.0000
     83 H44        1.1335   12.2427    5.0010 H         1 RES1    0.0000
     84 H45        2.6829   12.6370    4.9348 H         1 RES1    0.0000
     85 C33        5.1847   11.5916    5.2775 C.3       1 RES1    0.0000
     86 H46        4.7365   12.4311    5.0404 H         1 RES1    0.0000
     87 H47        6.1542   11.7327    5.2912 H         1 RES1    0.0000
     88 H48        4.8845   11.2988    6.1632 H         1 RES1    0.0000
     89 C34        5.8491    9.3784    4.3862 C.3       1 RES1    0.0000
     90 H49        5.8350    9.0486    5.3095 H         1 RES1    0.0000
     91 H50        6.7460    9.7089    4.1713 H         1 RES1    0.0000
     92 H51        5.6142    8.6495    3.7754 H         1 RES1    0.0000
@<TRIPOS>BOND
     1    1    8 1
     2    2   12 2
     3    3    6 1
     4    4    7 1
     5    5   12 1
     6    6   26 1
     7    7   50 1
     8    8    9 1
     9   10    8 1
    10   11    8 1
    11   12    1 1
    12   13    5 1
    13   14   13 ar
    14   15   14 1
    15   16   14 ar
    16   17   16 1
    17   18   16 ar
    18   19   18 1
    19   20   18 ar
    20   21   20 1
    21   22   13 ar
    22   23    3 1
    23   24   23 1
    24   25   23 1
    25   26   27 1
    26   27   28 1
    27   29   27 1
    28   30   27 1
    29   31   30 1
    30   32   30 1
    31   33   30 1
    32   34   33 1
    33   35   33 1
    34   36    6 1
    35   37    4 1
    36   38   37 1
    37   39   37 1
    38   40   39 ar
    39   41   40 1
    40   42   40 ar
    41   43   42 1
    42   44   42 ar
    43   45   44 1
    44   46   44 ar
    45   47   46 1
    46   48   39 ar
    47   49   48 1
    48   50   51 1
    49   51   52 1
    50   53   51 1
    51   54   51 1
    52   55   54 1
    53   56   54 1
    54   57   54 1
    55   58   57 1
    56   59   57 1
    57   60    7 1
    58   61   50 1
    59   62   61 1
    60   63   61 1
    61   64   61 1
    62   65   50 1
    63   66   65 1
    64   67   65 1
    65   68   65 1
    66   69   60 1
    67   70   69 1
    68   71   69 1
    69   72   69 1
    70   73   60 1
    71   74   73 1
    72   75   73 1
    73   76   73 1
    74   77   26 1
    75   78   77 1
    76   79   77 1
    77   80   77 1
    78   81   26 1
    79   82   81 1
    80   83   81 1
    81   84   81 1
    82   85   36 1
    83   86   85 1
    84   87   85 1
    85   88   85 1
    86   89   36 1
    87   90   89 1
    88   91   89 1
    89   92   89 1
    90    5   37 1
    91   20   22 ar
    92   22   23 1
    93   33   36 1
    94   46   48 ar
    95   57   60 1
@<TRIPOS>SUBSTRUCTURE
     1 RES1 1

@<TRIPOS>CRYSIN
  14.4518   15.8358   14.1208  90.0000  93.9460  90.0000  14 1

