# MOL2 file generated by ConQuest
# Please check atom types

@<TRIPOS>MOLECULE
WEYKUG
    27    31     1
SMALL
NO_CHARGES
****
Generated from CSD

@<TRIPOS>ATOM
      1 N1         1.0523    3.9299    9.6020 N.3       1 RES1    0.0000
      2 C1         1.4522    2.4936    9.6721 C.3       1 RES1    0.0000
      3 N2         2.6299    2.4271   10.5589 N.2       1 RES1    0.0000
      4 C2         2.8659    3.5768   11.0653 C.2       1 RES1    0.0000
      5 C3         1.9031    4.6379   10.5203 C.3       1 RES1    0.0000
      6 C4         2.0803    4.8153    9.0482 C.3       1 RES1    0.0000
      7 C5         1.5728    6.0538    8.3963 C.ar      1 RES1    0.0000
      8 C6         0.3997    6.6786    8.7696 C.ar      1 RES1    0.0000
      9 C7        -0.0305    7.8635    8.1895 C.ar      1 RES1    0.0000
     10 C8         0.7621    8.4107    7.2098 C.ar      1 RES1    0.0000
     11 C9         1.9107    7.8192    6.7962 C.ar      1 RES1    0.0000
     12 C10        2.3174    6.6269    7.3675 C.ar      1 RES1    0.0000
     13 N3         0.3392    9.6935    6.6105 N.pl3     1 RES1    0.0000
     14 O1         1.1267   10.2351    5.8429 O.2       1 RES1    0.0000
     15 O2        -0.7437   10.1557    6.9014 O.2       1 RES1    0.0000
     16 C11        3.9263    3.8560   12.0362 C.ar      1 RES1    0.0000
     17 C12        4.7813    2.8448   12.4376 C.ar      1 RES1    0.0000
     18 C13        5.8275    3.0704   13.3068 C.ar      1 RES1    0.0000
     19 C14        6.0119    4.3310   13.8378 C.ar      1 RES1    0.0000
     20 C15        5.1539    5.3348   13.4628 C.ar      1 RES1    0.0000
     21 C16        4.1238    5.1166   12.5620 C.ar      1 RES1    0.0000
     22 C17        1.7701    1.9280    8.2964 C.ar      1 RES1    0.0000
     23 C18        2.9086    1.2237    8.0300 C.ar      1 RES1    0.0000
     24 C19        3.1231    0.6618    6.7822 C.ar      1 RES1    0.0000
     25 C20        2.2127    0.8059    5.8026 C.ar      1 RES1    0.0000
     26 C21        1.0802    1.5121    6.0479 C.ar      1 RES1    0.0000
     27 C22        0.8492    2.0722    7.2887 C.ar      1 RES1    0.0000
@<TRIPOS>BOND
     1    1    2 1
     2    2    3 1
     3    3    4 2
     4    4    5 1
     5    5    1 1
     6    6    1 1
     7    7    6 1
     8    8    7 ar
     9    9    8 ar
    10   10    9 ar
    11   11   10 ar
    12   12    7 ar
    13   13   10 1
    14   14   13 2
    15   15   13 2
    16   16    4 1
    17   17   16 ar
    18   18   17 ar
    19   19   18 ar
    20   20   19 ar
    21   21   16 ar
    22   22    2 1
    23   23   22 ar
    24   24   23 ar
    25   25   24 ar
    26   26   25 ar
    27   27   22 ar
    28    5    6 1
    29   11   12 ar
    30   20   21 ar
    31   26   27 ar
@<TRIPOS>SUBSTRUCTURE
     1 RES1 1

@<TRIPOS>CRYSIN
   5.5580   18.4850   17.8010  90.0000 100.1010  90.0000 231 1

