# MOL2 file generated by ConQuest
# Please check atom types

@<TRIPOS>MOLECULE
WEYLIY
    31    33     1
SMALL
NO_CHARGES
****
Generated from CSD

@<TRIPOS>ATOM
      1 N1        -2.4866    5.7967    8.9431 N.3       1 RES1    0.0000
      2 N2        -3.3622    4.8403    8.6287 N.2       1 RES1    0.0000
      3 N3        -2.6637    3.8470    8.1279 N.2       1 RES1    0.0000
      4 C1        -1.3472    4.1721    8.1146 C.2       1 RES1    0.0000
      5 C2        -1.2362    5.4234    8.6457 C.2       1 RES1    0.0000
      6 H1        -0.4564    5.9136    8.7741 H         1 RES1    0.0000
      7 C3        -2.9723    7.0249    9.5720 C.3       1 RES1    0.0000
      8 H2        -3.7510    7.3490    9.0927 H         1 RES1    0.0000
      9 H3        -2.2845    7.7072    9.5263 H         1 RES1    0.0000
     10 C4        -3.3328    6.7731   10.9983 C.2       1 RES1    0.0000
     11 N4        -4.5815    6.8219   11.3560 N.2       1 RES1    0.0000
     12 O1        -4.5795    6.5212   12.7340 O.3       1 RES1    0.0000
     13 C5        -3.3075    6.2905   13.1284 C.2       1 RES1    0.0000
     14 C6        -2.4922    6.4382   12.0726 C.2       1 RES1    0.0000
     15 H4        -1.5675    6.3401   12.0561 H         1 RES1    0.0000
     16 C7        -3.1082    5.9336   14.5335 C.ar      1 RES1    0.0000
     17 C8        -4.1045    6.0832   15.4697 C.ar      1 RES1    0.0000
     18 H5        -4.9273    6.4356   15.2180 H         1 RES1    0.0000
     19 C9        -3.8877    5.7121   16.7847 C.ar      1 RES1    0.0000
     20 H6        -4.5630    5.8281   17.4131 H         1 RES1    0.0000
     21 C10       -2.6936    5.1772   17.1688 C.ar      1 RES1    0.0000
     22 H7        -2.5644    4.8936   18.0450 H         1 RES1    0.0000
     23 C11       -1.6955    5.0653   16.2538 C.ar      1 RES1    0.0000
     24 H8        -0.8700    4.7257   16.5154 H         1 RES1    0.0000
     25 C12       -1.8889    5.4482   14.9411 C.ar      1 RES1    0.0000
     26 H9        -1.1910    5.3767   14.3303 H         1 RES1    0.0000
     27 C13       -0.3200    3.2500    7.5585 C.3       1 RES1    0.0000
     28 H10        0.5613    3.6298    7.6984 H         1 RES1    0.0000
     29 H11       -0.3596    2.4036    8.0310 H         1 RES1    0.0000
     30 O2        -0.5189    3.0225    6.1707 O.3       1 RES1    0.0000
     31 H12       -0.6782    2.2283    6.0440 H         1 RES1    0.0000
@<TRIPOS>BOND
     1    1    2 1
     2    2    3 2
     3    3    4 1
     4    4    5 2
     5    5    1 1
     6    6    5 1
     7    7    1 1
     8    8    7 1
     9    9    7 1
    10   10    7 1
    11   11   10 2
    12   12   11 1
    13   13   12 1
    14   14   10 1
    15   15   14 1
    16   16   13 1
    17   17   16 ar
    18   18   17 1
    19   19   17 ar
    20   20   19 1
    21   21   19 ar
    22   22   21 1
    23   23   21 ar
    24   24   23 1
    25   25   16 ar
    26   26   25 1
    27   27    4 1
    28   28   27 1
    29   29   27 1
    30   30   27 1
    31   31   30 1
    32   13   14 2
    33   23   25 ar
@<TRIPOS>SUBSTRUCTURE
     1 RES1 1

@<TRIPOS>CRYSIN
   5.9094    7.8176   14.5953 100.2381  94.2600 110.7872   2 1

