# MOL2 file generated by ConQuest
# Please check atom types

@<TRIPOS>MOLECULE
WEZQIE
    39    39     1
SMALL
USER_CHARGES
****
Generated from CSD

@<TRIPOS>ATOM
      1 N1        13.8158    8.7519   11.0188 N.pl3     1 RES1    1.0000
      2 O1        12.6550   13.0534    9.3995 O.3       1 RES1    0.0000
      3 O2        13.8220    7.6121   11.6718 O.2       1 RES1   -1.0000
      4 O3        16.0690   11.7236   10.8810 O.3       1 RES1    0.0000
      5 C1        12.6331    9.6470   11.1463 C.3       1 RES1    0.0000
      6 C2        14.3654   10.4909    9.6047 C.3       1 RES1    0.0000
      7 H1        14.0611   10.3538    8.6841 H         1 RES1    0.0000
      8 C3        13.1659   10.9285   10.4645 C.3       1 RES1    0.0000
      9 H2        13.5395   11.4785   11.1840 H         1 RES1    0.0000
     10 C4        15.9335    8.3536    9.8927 C.3       1 RES1    0.0000
     11 H3        16.0205    7.6503   10.5552 H         1 RES1    0.0000
     12 H4        16.7170    8.9228    9.9622 H         1 RES1    0.0000
     13 C5        14.7259    9.1585   10.2005 C.2       1 RES1    0.0000
     14 C6        12.3319    9.8653   12.6344 C.3       1 RES1    0.0000
     15 H5        11.6150   10.5137   12.7086 H         1 RES1    0.0000
     16 H6        12.0066    9.0297   13.0051 H         1 RES1    0.0000
     17 C7        12.1175   11.7956    9.7813 C.3       1 RES1    0.0000
     18 H7        11.7843   11.3367    8.9947 H         1 RES1    0.0000
     19 H8        11.3717   11.9351   10.3866 H         1 RES1    0.0000
     20 C8        15.5306   11.4787    9.5961 C.3       1 RES1    0.0000
     21 H9        16.2317   11.1325    9.0228 H         1 RES1    0.0000
     22 H10       15.2275   12.3184    9.2178 H         1 RES1    0.0000
     23 C9        11.4415    8.9478   10.4679 C.3       1 RES1    0.0000
     24 H11       11.1535    8.2175   11.0373 H         1 RES1    0.0000
     25 H12       10.7074    9.5800   10.4163 H         1 RES1    0.0000
     26 C10       11.6861    8.3972    9.0844 C.3       1 RES1    0.0000
     27 H13       11.9982    9.1006    8.5109 H         1 RES1    0.0000
     28 H14       10.8682    8.0372    8.7341 H         1 RES1    0.0000
     29 H15       12.3479    7.7032    9.1289 H         1 RES1    0.0000
     30 C11       13.5004   10.3442   13.4850 C.3       1 RES1    0.0000
     31 H16       14.2262    9.7206   13.4124 H         1 RES1    0.0000
     32 H17       13.2234   10.4079   14.4018 H         1 RES1    0.0000
     33 H18       13.7884   11.2070   13.1768 H         1 RES1    0.0000
     34 C12       15.9008    7.7308    8.5220 C.3       1 RES1    0.0000
     35 H19       15.1338    7.1589    8.4485 H         1 RES1    0.0000
     36 H20       16.6988    7.2166    8.3845 H         1 RES1    0.0000
     37 H21       15.8485    8.4229    7.8586 H         1 RES1    0.0000
     38 H22       15.6191   12.3280   11.2246 H         1 RES1    0.0000
     39 H23       13.0052   13.3373   10.0995 H         1 RES1    0.0000
@<TRIPOS>BOND
     1    1    3 1
     2    2   17 1
     3    4   20 1
     4    5    1 1
     5    6    7 1
     6    8    5 1
     7    9    8 1
     8   10   11 1
     9   12   10 1
    10   13    1 2
    11   14    5 1
    12   15   14 1
    13   16   14 1
    14   17    8 1
    15   18   17 1
    16   19   17 1
    17   20    6 1
    18   21   20 1
    19   22   20 1
    20   23    5 1
    21   24   23 1
    22   25   23 1
    23   26   23 1
    24   27   26 1
    25   28   26 1
    26   29   26 1
    27   30   14 1
    28   31   30 1
    29   32   30 1
    30   33   30 1
    31   34   10 1
    32   35   34 1
    33   36   34 1
    34   37   34 1
    35   38    4 1
    36   39    2 1
    37    6    8 1
    38    6   13 1
    39   10   13 1
@<TRIPOS>SUBSTRUCTURE
     1 RES1 1

@<TRIPOS>CRYSIN
  13.9856   12.0156   15.6049  90.0000  90.0000  90.0000  61 1

