# MOL2 file generated by ConQuest
# Please check atom types

@<TRIPOS>MOLECULE
WIBCIT
    32    31     1
SMALL
USER_CHARGES
****
Generated from CSD

@<TRIPOS>ATOM
      1 O1         3.9048    4.0955    3.9925 O.2       1 RES1   -1.0000
      2 O2         5.4023    4.9741    1.2838 O.3       1 RES1    0.0000
      3 O3         4.3489    6.4161   -0.0631 O.2       1 RES1    0.0000
      4 N1         4.1004    2.2330    2.7271 N.2       1 RES1    0.0000
      5 N2         3.6717    3.3907    2.9807 N.pl3     1 RES1    1.0000
      6 C1         4.3657    5.6187    0.9182 C.2       1 RES1    0.0000
      7 C2         3.1138    5.4411    1.7084 C.3       1 RES1    0.0000
      8 C3         2.6936    3.9892    1.9713 C.3       1 RES1    0.0000
      9 C4         2.6656    3.1837    0.6927 C.3       1 RES1    0.0000
     10 C5         1.3370    3.9714    2.6743 C.3       1 RES1    0.0000
     11 C6         5.0135    1.6150    3.7227 C.3       1 RES1    0.0000
     12 C7         5.3088    0.2446    3.1294 C.3       1 RES1    0.0000
     13 C8         4.3461    1.4381    5.0731 C.3       1 RES1    0.0000
     14 C9         6.3132    2.4181    3.8042 C.3       1 RES1    0.0000
     15 H1         6.4779    5.3253    0.6341 H         1 RES1    0.0000
     16 H2         3.2230    5.8739    2.5595 H         1 RES1    0.0000
     17 H3         2.4328    5.8340    1.1822 H         1 RES1    0.0000
     18 H4         3.5569    3.1338    0.2468 H         1 RES1    0.0000
     19 H5         2.0224    3.6068    0.0976 H         1 RES1    0.0000
     20 H6         1.3818    4.5281    3.4777 H         1 RES1    0.0000
     21 H7         0.6836    4.2838    2.0487 H         1 RES1    0.0000
     22 H8         2.3795    2.2673    0.8206 H         1 RES1    0.0000
     23 H9         1.0919    3.0337    2.9727 H         1 RES1    0.0000
     24 H10        5.6836    0.3519    2.2611 H         1 RES1    0.0000
     25 H11        5.9477   -0.2382    3.7245 H         1 RES1    0.0000
     26 H12        4.5322   -0.2585    3.0243 H         1 RES1    0.0000
     27 H13        3.5079    0.9935    5.0501 H         1 RES1    0.0000
     28 H14        4.1975    2.2725    5.5322 H         1 RES1    0.0000
     29 H15        4.9514    0.8786    5.6125 H         1 RES1    0.0000
     30 H16        6.6318    2.5542    2.8981 H         1 RES1    0.0000
     31 H17        6.9445    1.9144    4.2926 H         1 RES1    0.0000
     32 H18        6.1584    3.2866    4.2869 H         1 RES1    0.0000
@<TRIPOS>BOND
     1    1    5 1
     2    2    6 1
     3    3    6 2
     4    4    5 2
     5    5    8 1
     6    6    7 1
     7    7    8 1
     8    8    9 1
     9    9   18 1
    10   10    8 1
    11   11    4 1
    12   12   11 1
    13   13   11 1
    14   14   11 1
    15   15    2 1
    16   16    7 1
    17   17    7 1
    18   19    9 1
    19   20   10 1
    20   21   10 1
    21   22    9 1
    22   23   10 1
    23   24   12 1
    24   25   12 1
    25   26   12 1
    26   27   13 1
    27   28   13 1
    28   29   13 1
    29   30   14 1
    30   31   14 1
    31   32   14 1
@<TRIPOS>SUBSTRUCTURE
     1 RES1 1

@<TRIPOS>CRYSIN
   8.2260   12.5260    6.0420  93.9270 108.1560  72.3090   2 1

