# MOL2 file generated by ConQuest
# Please check atom types

@<TRIPOS>MOLECULE
WICCIU
    88    94     2
SMALL
NO_CHARGES
****
Generated from CSD

@<TRIPOS>ATOM
      1 N1         5.0024   -2.6602    9.2341 N.pl3     1 RES1    0.0000
      2 O1         5.6048   -2.1627    8.2958 O.2       1 RES1    0.0000
      3 O2         4.0098   -2.1864    9.7433 O.2       1 RES1    0.0000
      4 C1         5.5207   -3.9318    9.7834 C.ar      1 RES1    0.0000
      5 C2         5.5001   -5.0691    8.9738 C.ar      1 RES1    0.0000
      6 C3         5.9915   -6.2379    9.5288 C.ar      1 RES1    0.0000
      7 C4         6.4652   -6.2919   10.8332 C.ar      1 RES1    0.0000
      8 C5         6.4603   -5.1270   11.5970 C.ar      1 RES1    0.0000
      9 C6         5.9972   -3.9357   11.0821 C.ar      1 RES1    0.0000
     10 C7         4.9991   -5.0296    7.5664 C.ar      1 RES1    0.0000
     11 C8         5.8469   -5.3271    6.5222 C.ar      1 RES1    0.0000
     12 C9         5.3775   -5.2876    5.2235 C.ar      1 RES1    0.0000
     13 C10        4.0737   -4.9677    4.9661 C.ar      1 RES1    0.0000
     14 C11        3.2260   -4.6781    5.9959 C.ar      1 RES1    0.0000
     15 C12        3.6864   -4.7110    7.3089 C.ar      1 RES1    0.0000
     16 C13        6.9991   -7.5595   11.3853 C.ar      1 RES1    0.0000
     17 C14        6.4035   -8.7797   11.1250 C.ar      1 RES1    0.0000
     18 C15        6.9086   -9.9539   11.6542 C.ar      1 RES1    0.0000
     19 C16        8.0040   -9.9117   12.4809 C.ar      1 RES1    0.0000
     20 C17        8.6033   -8.7113   12.7498 C.ar      1 RES1    0.0000
     21 C18        8.1213   -7.5371   12.2063 C.ar      1 RES1    0.0000
     22 C19        6.1139   -2.6839   11.8916 C.ar      1 RES1    0.0000
     23 C20        5.3744   -2.5062   13.0473 C.ar      1 RES1    0.0000
     24 C21        5.5475   -1.3597   13.8054 C.ar      1 RES1    0.0000
     25 C22        6.4664   -0.4067   13.4278 C.ar      1 RES1    0.0000
     26 C23        7.2027   -0.5713   12.2807 C.ar      1 RES1    0.0000
     27 C24        7.0303   -1.7244   11.5169 C.ar      1 RES1    0.0000
     28 N2         4.1215    3.1723    1.7822 N.pl3     2 RES2    0.0000
     29 O3         5.2751    2.7827    1.8852 O.2       2 RES2    0.0000
     30 O4         3.5840    3.4487    0.7295 O.2       2 RES2    0.0000
     31 C25        3.3265    3.3342    3.0180 C.ar      2 RES2    0.0000
     32 C26        3.0321    2.2193    3.7903 C.ar      2 RES2    0.0000
     33 C27        2.2462    2.4273    4.9203 C.ar      2 RES2    0.0000
     34 C28        1.7914    3.6988    5.2807 C.ar      2 RES2    0.0000
     35 C29        2.1465    4.7848    4.4826 C.ar      2 RES2    0.0000
     36 C30        2.9208    4.6307    3.3355 C.ar      2 RES2    0.0000
     37 C31        3.4405    0.8187    3.4471 C.ar      2 RES2    0.0000
     38 C32        3.9349    0.0132    4.4654 C.ar      2 RES2    0.0000
     39 C33        4.2760   -1.3189    4.2080 C.ar      2 RES2    0.0000
     40 C34        4.0970   -1.8270    2.9293 C.ar      2 RES2    0.0000
     41 C35        3.5888   -1.0320    1.9166 C.ar      2 RES2    0.0000
     42 C36        3.2635    0.2870    2.1827 C.ar      2 RES2    0.0000
     43 C37        0.9344    3.8844    6.4736 C.ar      2 RES2    0.0000
     44 C38        0.0427    2.8919    6.8855 C.ar      2 RES2    0.0000
     45 C39       -0.7656    3.0762    8.0040 C.ar      2 RES2    0.0000
     46 C40       -0.6788    4.2451    8.7221 C.ar      2 RES2    0.0000
     47 C41        0.1986    5.2481    8.3473 C.ar      2 RES2    0.0000
     48 C42        1.0037    5.0546    7.2231 C.ar      2 RES2    0.0000
     49 C43        3.2308    5.8246    2.5031 C.ar      2 RES2    0.0000
     50 C44        4.5299    6.1734    2.1684 C.ar      2 RES2    0.0000
     51 C45        4.7756    7.3463    1.4360 C.ar      2 RES2    0.0000
     52 C46        3.7221    8.1400    1.0527 C.ar      2 RES2    0.0000
     53 C47        2.4285    7.7951    1.3903 C.ar      2 RES2    0.0000
     54 C48        2.1747    6.6342    2.1169 C.ar      2 RES2    0.0000
     55 H1         6.0096   -7.1330    8.9252 H         1 RES1    0.0000
     56 H2         6.8260   -5.1559   12.6125 H         1 RES1    0.0000
     57 H3         6.8777   -5.5877    6.7139 H         1 RES1    0.0000
     58 H4         6.0448   -5.5192    4.4054 H         1 RES1    0.0000
     59 H5         3.7140   -4.9361    3.9505 H         1 RES1    0.0000
     60 H6         2.1948   -4.4320    5.7928 H         1 RES1    0.0000
     61 H7         3.0139   -4.4807    8.1213 H         1 RES1    0.0000
     62 H8         5.5296   -8.8218   10.4928 H         1 RES1    0.0000
     63 H9         6.4430  -10.8990   11.4168 H         1 RES1    0.0000
     64 H10        8.3886  -10.8200   12.9215 H         1 RES1    0.0000
     65 H11        9.4696   -8.6797   13.3935 H         1 RES1    0.0000
     66 H12        8.6181   -6.6012   12.4151 H         1 RES1    0.0000
     67 H13        4.6618   -3.2552   13.3620 H         1 RES1    0.0000
     68 H14        4.9613   -1.2149   14.7008 H         1 RES1    0.0000
     69 H15        6.6031    0.4778   14.0343 H         1 RES1    0.0000
     70 H16        7.9121    0.1816   11.9746 H         1 RES1    0.0000
     71 H17        7.6202   -1.8665   10.6244 H         1 RES1    0.0000
     72 H18        1.9829    1.5809    5.5382 H         2 RES2    0.0000
     73 H19        1.8152    5.7733    4.7629 H         2 RES2    0.0000
     74 H20        4.0612    0.4146    5.4609 H         2 RES2    0.0000
     75 H21        4.6743   -1.9429    4.9947 H         2 RES2    0.0000
     76 H22        4.3537   -2.8564    2.7233 H         2 RES2    0.0000
     77 H23        3.4501   -1.4348    0.9240 H         2 RES2    0.0000
     78 H24        2.8680    0.9082    1.3903 H         2 RES2    0.0000
     79 H25       -0.0253    1.9679    6.3306 H         2 RES2    0.0000
     80 H26       -1.4576    2.3048    8.3073 H         2 RES2    0.0000
     81 H27       -1.3064    4.3859    9.5917 H         2 RES2    0.0000
     82 H28        0.2639    6.1642    8.9137 H         2 RES2    0.0000
     83 H29        1.6954    5.8299    6.9284 H         2 RES2    0.0000
     84 H30        5.3562    5.5495    2.4744 H         2 RES2    0.0000
     85 H31        5.7862    7.6201    1.1729 H         2 RES2    0.0000
     86 H32        3.9060    9.0403    0.4863 H         2 RES2    0.0000
     87 H33        1.6060    8.4283    1.0928 H         2 RES2    0.0000
     88 H34        1.1609    6.3669    2.3743 H         2 RES2    0.0000
@<TRIPOS>BOND
     1    1    2 2
     2    3    1 2
     3    4    1 1
     4    5    4 ar
     5    6    5 ar
     6    7    6 ar
     7    8    7 ar
     8    9    4 ar
     9   10    5 1
    10   11   10 ar
    11   12   11 ar
    12   13   12 ar
    13   14   13 ar
    14   15   10 ar
    15   16    7 1
    16   17   16 ar
    17   18   17 ar
    18   19   18 ar
    19   20   19 ar
    20   21   16 ar
    21   22    9 1
    22   23   22 ar
    23   24   23 ar
    24   25   24 ar
    25   26   25 ar
    26   27   22 ar
    27   28   29 2
    28   30   28 2
    29   31   28 1
    30   32   31 ar
    31   33   32 ar
    32   34   33 ar
    33   35   34 ar
    34   36   31 ar
    35   37   32 1
    36   38   37 ar
    37   39   38 ar
    38   40   39 ar
    39   41   40 ar
    40   42   37 ar
    41   43   34 1
    42   44   43 ar
    43   45   44 ar
    44   46   45 ar
    45   47   46 ar
    46   48   43 ar
    47   49   36 1
    48   50   49 ar
    49   51   50 ar
    50   52   51 ar
    51   53   52 ar
    52   54   49 ar
    53   55    6 1
    54   56    8 1
    55   57   11 1
    56   58   12 1
    57   59   13 1
    58   60   14 1
    59   61   15 1
    60   62   17 1
    61   63   18 1
    62   64   19 1
    63   65   20 1
    64   66   21 1
    65   67   23 1
    66   68   24 1
    67   69   25 1
    68   70   26 1
    69   71   27 1
    70   72   33 1
    71   73   35 1
    72   74   38 1
    73   75   39 1
    74   76   40 1
    75   77   41 1
    76   78   42 1
    77   79   44 1
    78   80   45 1
    79   81   46 1
    80   82   47 1
    81   83   48 1
    82   84   50 1
    83   85   51 1
    84   86   52 1
    85   87   53 1
    86   88   54 1
    87    8    9 ar
    88   14   15 ar
    89   20   21 ar
    90   26   27 ar
    91   35   36 ar
    92   41   42 ar
    93   47   48 ar
    94   53   54 ar
@<TRIPOS>SUBSTRUCTURE
     1 RES1 1
     2 RES2 28

@<TRIPOS>CRYSIN
  10.0110   13.1630   28.8960  90.0000  98.1200  90.0000  14 2

