# MOL2 file generated by ConQuest
# Please check atom types

@<TRIPOS>MOLECULE
WICHOH
   100   108     2
SMALL
NO_CHARGES
****
Generated from CSD

@<TRIPOS>ATOM
      1 N1         3.8159   15.3564    0.2104 N.pl3     1 RES1    0.0000
      2 H1         3.7761   16.2116    0.4792 H         1 RES1    0.0000
      3 C1         4.7535   14.5427    0.9794 C.3       1 RES1    0.0000
      4 H2         5.3222   14.0970    0.3179 H         1 RES1    0.0000
      5 N2         4.1499   13.5142    1.7122 N.3       1 RES1    0.0000
      6 H3         4.7098   13.6044    2.4778 H         1 RES1    0.0000
      7 C2         3.9579   12.2079    1.0332 C.3       1 RES1    0.0000
      8 H4         4.8358   11.8723    0.7550 H         1 RES1    0.0000
      9 C3         3.0199   12.1989   -0.1975 C.2       1 RES1    0.0000
     10 C4         2.7202   13.4078   -0.8941 C.2       1 RES1    0.0000
     11 N3         1.8232   13.4150   -1.9962 N.pl3     1 RES1    0.0000
     12 C5         1.2254   12.3667   -2.6671 C.2       1 RES1    0.0000
     13 H5         1.3974   11.4844   -2.4310 H         1 RES1    0.0000
     14 C6         0.3800   12.6662   -3.6781 C.2       1 RES1    0.0000
     15 H6        -0.0605   11.9787   -4.1234 H         1 RES1    0.0000
     16 C7         0.1581   13.9761   -4.0626 C.2       1 RES1    0.0000
     17 H7        -0.4168   14.1529   -4.7709 H         1 RES1    0.0000
     18 C8         0.7673   15.0064   -3.4210 C.2       1 RES1    0.0000
     19 H8         0.6270   15.8833   -3.6968 H         1 RES1    0.0000
     20 C9         1.6162   14.7249   -2.3282 C.2       1 RES1    0.0000
     21 N4         2.2676   15.5621   -1.5229 N.2       1 RES1    0.0000
     22 C10        2.9728   14.7880   -0.6942 C.2       1 RES1    0.0000
     23 C11        5.6688   15.4015    1.7812 C.ar      1 RES1    0.0000
     24 C12        6.0223   15.0767    3.0750 C.ar      1 RES1    0.0000
     25 H9         5.6390   14.3370    3.4852 H         1 RES1    0.0000
     26 C13        6.9384   15.8399    3.7622 C.ar      1 RES1    0.0000
     27 H10        7.1470   15.6487    4.6482 H         1 RES1    0.0000
     28 C14        7.5319   16.8792    3.1206 C.ar      1 RES1    0.0000
     29 C15        7.2172   17.2293    1.8490 C.ar      1 RES1    0.0000
     30 H11        7.6327   17.9492    1.4317 H         1 RES1    0.0000
     31 C16        6.2609   16.4787    1.1945 C.ar      1 RES1    0.0000
     32 H12        6.0135   16.7150    0.3296 H         1 RES1    0.0000
     33 N5         8.5485   17.7074    3.8511 N.pl3     1 RES1    0.0000
     34 O1         8.6117   17.5378    5.0455 O.2       1 RES1    0.0000
     35 O2         9.2706   18.4327    3.2117 O.2       1 RES1    0.0000
     36 C17        3.3886   11.2534    2.0851 C.3       1 RES1    0.0000
     37 H13        3.0435   10.4613    1.6421 H         1 RES1    0.0000
     38 H14        2.6480   11.6846    2.5385 H         1 RES1    0.0000
     39 C18        4.4341   10.8294    3.1241 C.ar      1 RES1    0.0000
     40 C19        5.1585    9.6855    2.9616 C.ar      1 RES1    0.0000
     41 H15        5.0606    9.1821    2.1856 H         1 RES1    0.0000
     42 C20        6.0455    9.2687    3.9516 C.ar      1 RES1    0.0000
     43 H16        6.5158    8.4712    3.8557 H         1 RES1    0.0000
     44 C21        6.2190   10.0518    5.0783 C.ar      1 RES1    0.0000
     45 H17        6.8180    9.7901    5.7398 H         1 RES1    0.0000
     46 C22        5.5427   11.1578    5.2127 C.ar      1 RES1    0.0000
     47 H18        5.6800   11.6810    5.9700 H         1 RES1    0.0000
     48 C23        4.6451   11.5728    4.2823 C.ar      1 RES1    0.0000
     49 H19        4.1676   12.3595    4.4191 H         1 RES1    0.0000
     50 O3         2.5521   11.1073   -0.5575 O.2       1 RES1    0.0000
     51 N6         7.9958    9.4058    0.6603 N.pl3     2 RES2    0.0000
     52 H20        7.7403    8.6336    0.9701 H         2 RES2    0.0000
     53 C24        8.6792   10.1564    1.6994 C.3       2 RES2    0.0000
     54 H21        8.0254   10.3964    2.3889 H         2 RES2    0.0000
     55 N7         9.3012   11.3653    1.2249 N.3       2 RES2    0.0000
     56 H22        9.7161   11.6125    1.8817 H         2 RES2    0.0000
     57 C25        8.4634   12.5435    1.0577 C.3       2 RES2    0.0000
     58 H23        7.8015   12.5218    1.7800 H         2 RES2    0.0000
     59 C26        7.6884   12.5435   -0.2384 C.2       2 RES2    0.0000
     60 C27        7.1909   11.3075   -0.7410 C.2       2 RES2    0.0000
     61 N8         6.3331   11.2588   -1.8677 N.pl3     2 RES2    0.0000
     62 C28        5.8361   12.2241   -2.6718 C.2       2 RES2    0.0000
     63 H24        6.0818   13.1100   -2.5280 H         2 RES2    0.0000
     64 C29        4.9909   11.9264   -3.6769 C.2       2 RES2    0.0000
     65 H25        4.6411   12.5994   -4.2145 H         2 RES2    0.0000
     66 C30        4.6493   10.5967   -3.8990 C.2       2 RES2    0.0000
     67 H26        4.0848   10.3874   -4.6072 H         2 RES2    0.0000
     68 C31        5.1155    9.6043   -3.1136 C.2       2 RES2    0.0000
     69 H27        4.8747    8.7202   -3.2725 H         2 RES2    0.0000
     70 C32        5.9660    9.9327   -2.0617 C.2       2 RES2    0.0000
     71 N9         6.5199    9.1316   -1.1197 N.2       2 RES2    0.0000
     72 C33        7.2701    9.9670   -0.3308 C.2       2 RES2    0.0000
     73 C34        9.7391    9.2561    2.3305 C.ar      2 RES2    0.0000
     74 C35       10.0495    9.4617    3.6711 C.ar      2 RES2    0.0000
     75 H28        9.5842   10.0969    4.1655 H         2 RES2    0.0000
     76 C36       11.0582    8.7148    4.2660 C.ar      2 RES2    0.0000
     77 H29       11.2822    8.8555    5.1577 H         2 RES2    0.0000
     78 C37       11.7176    7.7693    3.5332 C.ar      2 RES2    0.0000
     79 C38       11.4245    7.5366    2.2195 C.ar      2 RES2    0.0000
     80 H30       11.8883    6.8906    1.7368 H         2 RES2    0.0000
     81 C39       10.4262    8.2745    1.6257 C.ar      2 RES2    0.0000
     82 H31       10.2077    8.1139    0.7351 H         2 RES2    0.0000
     83 N10       12.7756    6.9628    4.2075 N.pl3     2 RES2    0.0000
     84 O4        12.8530    7.0494    5.4312 O.2       2 RES2    0.0000
     85 O5        13.4869    6.2826    3.5355 O.2       2 RES2    0.0000
     86 C40        9.2388   13.8191    1.2237 C.3       2 RES2    0.0000
     87 H32        8.6422   14.5571    1.0238 H         2 RES2    0.0000
     88 H33        9.9421   13.8300    0.5552 H         2 RES2    0.0000
     89 C41        9.8767   14.0862    2.5759 C.ar      2 RES2    0.0000
     90 C42       10.6536   15.2499    2.7022 C.ar      2 RES2    0.0000
     91 H34       10.7545   15.8273    1.9787 H         2 RES2    0.0000
     92 C43       11.2866   15.5404    3.9457 C.ar      2 RES2    0.0000
     93 H35       11.8147   16.3019    4.0170 H         2 RES2    0.0000
     94 C44       11.1408   14.7502    5.0058 C.ar      2 RES2    0.0000
     95 H36       11.5461   14.9631    5.8157 H         2 RES2    0.0000
     96 C45       10.3898   13.6279    4.8854 C.ar      2 RES2    0.0000
     97 H37       10.3037   13.0631    5.6182 H         2 RES2    0.0000
     98 C46        9.7278   13.2869    3.6676 C.ar      2 RES2    0.0000
     99 H38        9.1994   12.5236    3.6196 H         2 RES2    0.0000
    100 O6         7.4654   13.6026   -0.8041 O.2       2 RES2    0.0000
@<TRIPOS>BOND
     1    1    2 1
     2    3    1 1
     3    4    3 1
     4    5    3 1
     5    6    5 1
     6    7    5 1
     7    8    7 1
     8    9    7 1
     9   10    9 1
    10   11   10 1
    11   12   11 1
    12   13   12 1
    13   14   12 2
    14   15   14 1
    15   16   14 1
    16   17   16 1
    17   18   16 2
    18   19   18 1
    19   20   11 1
    20   21   20 2
    21   22    1 1
    22   23    3 1
    23   24   23 ar
    24   25   24 1
    25   26   24 ar
    26   27   26 1
    27   28   26 ar
    28   29   28 ar
    29   30   29 1
    30   31   23 ar
    31   32   31 1
    32   33   28 1
    33   34   33 2
    34   35   33 2
    35   36    7 1
    36   37   36 1
    37   38   36 1
    38   39   36 1
    39   40   39 ar
    40   41   40 1
    41   42   40 ar
    42   43   42 1
    43   44   42 ar
    44   45   44 1
    45   46   44 ar
    46   47   46 1
    47   48   39 ar
    48   49   48 1
    49   50    9 2
    50   51   52 1
    51   53   51 1
    52   54   53 1
    53   55   53 1
    54   56   55 1
    55   57   55 1
    56   58   57 1
    57   59   57 1
    58   60   59 1
    59   61   60 1
    60   62   61 1
    61   63   62 1
    62   64   62 2
    63   65   64 1
    64   66   64 1
    65   67   66 1
    66   68   66 2
    67   69   68 1
    68   70   61 1
    69   71   70 2
    70   72   51 1
    71   73   53 1
    72   74   73 ar
    73   75   74 1
    74   76   74 ar
    75   77   76 1
    76   78   76 ar
    77   79   78 ar
    78   80   79 1
    79   81   73 ar
    80   82   81 1
    81   83   78 1
    82   84   83 2
    83   85   83 2
    84   86   57 1
    85   87   86 1
    86   88   86 1
    87   89   86 1
    88   90   89 ar
    89   91   90 1
    90   92   90 ar
    91   93   92 1
    92   94   92 ar
    93   95   94 1
    94   96   94 ar
    95   97   96 1
    96   98   89 ar
    97   99   98 1
    98  100   59 2
    99   10   22 2
   100   18   20 1
   101   21   22 1
   102   29   31 ar
   103   46   48 ar
   104   60   72 2
   105   68   70 1
   106   71   72 1
   107   79   81 ar
   108   96   98 ar
@<TRIPOS>SUBSTRUCTURE
     1 RES1 1
     2 RES2 51

@<TRIPOS>CRYSIN
   9.4780   18.0430   11.7865  90.0000  97.4280  90.0000   4 1

