# MOL2 file generated by ConQuest
# Please check atom types

@<TRIPOS>MOLECULE
WICJAV
    52    56     1
SMALL
NO_CHARGES
****
Generated from CSD

@<TRIPOS>ATOM
      1 O1         5.0793   14.2048    3.5010 O.3       1 RES1    0.0000
      2 O2         3.9077   12.1053    4.2838 O.3       1 RES1    0.0000
      3 O3         2.2175   10.7617    4.9576 O.2       1 RES1    0.0000
      4 O4         5.2027   15.7527    5.0892 O.2       1 RES1    0.0000
      5 O5         7.9030    9.7827    9.2996 O.2       1 RES1    0.0000
      6 O6         6.3999    8.3966    9.9012 O.2       1 RES1    0.0000
      7 N1         6.8073    9.2730    9.1770 N.pl3     1 RES1    0.0000
      8 C1         4.2909   10.7220    6.1316 C.ar      1 RES1    0.0000
      9 C2         3.3370   11.1886    5.0803 C.2       1 RES1    0.0000
     10 C3         5.9226    9.7979    8.1090 C.ar      1 RES1    0.0000
     11 C4         4.1042   13.7528    2.5114 C.3       1 RES1    0.0000
     12 C5         3.1615   12.6298    3.1424 C.3       1 RES1    0.0000
     13 C6         4.5560   15.2072    4.2308 C.2       1 RES1    0.0000
     14 C7         3.1650   15.4270    3.8182 C.3       1 RES1    0.0000
     15 C8         4.6675    9.2584    8.0005 C.ar      1 RES1    0.0000
     16 C9         3.1218   14.9385    2.3492 C.3       1 RES1    0.0000
     17 C10        4.9807   13.2089    1.4192 C.2       1 RES1    0.0000
     18 C11        2.2008   14.4602    4.5591 C.3       1 RES1    0.0000
     19 C12        6.4104   10.7733    7.2647 C.ar      1 RES1    0.0000
     20 C13        1.7444   14.2609    2.2534 C.3       1 RES1    0.0000
     21 C14        3.4376   16.0116    1.2979 C.3       1 RES1    0.0000
     22 C15        1.9072   13.4136    3.4976 C.3       1 RES1    0.0000
     23 C16        4.7960   14.8220   -0.5416 C.3       1 RES1    0.0000
     24 C17        3.4889   15.4645   -0.1265 C.3       1 RES1    0.0000
     25 C18        2.9010   11.4830    2.1691 C.3       1 RES1    0.0000
     26 C19        5.5535   11.2349    6.2619 C.ar      1 RES1    0.0000
     27 C20        5.2659   13.6457    0.2082 C.2       1 RES1    0.0000
     28 C21        2.4337   17.1623    1.3745 C.3       1 RES1    0.0000
     29 C22        3.8552    9.7419    7.0194 C.ar      1 RES1    0.0000
     30 H1         2.8936   16.3650    3.9076 H         1 RES1    0.0000
     31 H2         4.3806    8.5862    8.5753 H         1 RES1    0.0000
     32 H3         5.4036   12.4109    1.6402 H         1 RES1    0.0000
     33 H4         2.6275   14.0649    5.3358 H         1 RES1    0.0000
     34 H5         1.3913   14.9158    4.8388 H         1 RES1    0.0000
     35 H6         7.2728   11.1099    7.3579 H         1 RES1    0.0000
     36 H7         1.0122   14.8936    2.3262 H         1 RES1    0.0000
     37 H8         1.6461   13.7279    1.4486 H         1 RES1    0.0000
     38 H9         4.3229   16.3770    1.5048 H         1 RES1    0.0000
     39 H10        1.1312   12.8506    3.6994 H         1 RES1    0.0000
     40 H11        4.7165   14.5666   -1.4729 H         1 RES1    0.0000
     41 H12        5.4877   15.5008   -0.4893 H         1 RES1    0.0000
     42 H13        2.7817   14.8077   -0.2261 H         1 RES1    0.0000
     43 H14        3.2988   16.1909   -0.7396 H         1 RES1    0.0000
     44 H15        3.7271   11.0320    1.9787 H         1 RES1    0.0000
     45 H16        2.5313   11.8324    1.3553 H         1 RES1    0.0000
     46 H17        2.2825   10.8645    2.5625 H         1 RES1    0.0000
     47 H18        5.8442   11.8975    5.6781 H         1 RES1    0.0000
     48 H19        5.8719   13.1149   -0.2555 H         1 RES1    0.0000
     49 H20        2.4125   17.5085    2.2700 H         1 RES1    0.0000
     50 H21        1.5606   16.8426    1.1343 H         1 RES1    0.0000
     51 H22        2.6977   17.8587    0.7690 H         1 RES1    0.0000
     52 H23        2.9901    9.4103    6.9415 H         1 RES1    0.0000
@<TRIPOS>BOND
     1    1   11 1
     2    2    9 1
     3    3    9 2
     4    4   13 2
     5    5    7 2
     6    6    7 2
     7    7   10 1
     8    8    9 1
     9   10   15 ar
    10   11   12 1
    11   12    2 1
    12   13    1 1
    13   14   13 1
    14   15   29 ar
    15   16   11 1
    16   17   11 1
    17   18   14 1
    18   19   10 ar
    19   20   16 1
    20   21   16 1
    21   22   12 1
    22   23   24 1
    23   24   21 1
    24   25   12 1
    25   26    8 ar
    26   27   17 2
    27   28   21 1
    28   29    8 ar
    29   30   14 1
    30   31   15 1
    31   32   17 1
    32   33   18 1
    33   34   18 1
    34   35   19 1
    35   36   20 1
    36   37   20 1
    37   38   21 1
    38   39   22 1
    39   40   23 1
    40   41   23 1
    41   42   24 1
    42   43   24 1
    43   44   25 1
    44   45   25 1
    45   46   25 1
    46   47   26 1
    47   48   27 1
    48   49   28 1
    49   50   28 1
    50   51   28 1
    51   52   29 1
    52   14   16 1
    53   18   22 1
    54   19   26 ar
    55   20   22 1
    56   23   27 1
@<TRIPOS>SUBSTRUCTURE
     1 RES1 1

@<TRIPOS>CRYSIN
   6.5030   12.1809   13.9183  66.7200  82.5800  76.5200   2 1

