# MOL2 file generated by ConQuest
# Please check atom types

@<TRIPOS>MOLECULE
WIDJAX
    42    45     1
SMALL
NO_CHARGES
****
Generated from CSD

@<TRIPOS>ATOM
      1 O1        -5.3585   -7.4135  -13.0893 O.3       1 RES1    0.0000
      2 O2        -3.2277   -9.3055  -14.6073 O.2       1 RES1    0.0000
      3 O3         0.3008   -2.8145  -10.9998 O.3       1 RES1    0.0000
      4 N1        -3.2877   -8.1465  -14.9683 N.pl3     1 RES1    0.0000
      5 O4        -3.5094   -7.7947  -16.1107 O.2       1 RES1    0.0000
      6 C1         0.2274   -4.8711  -12.1050 C.ar      1 RES1    0.0000
      7 H1         1.1135   -4.7031  -12.4045 H         1 RES1    0.0000
      8 C2        -0.4247   -6.0264  -12.4878 C.ar      1 RES1    0.0000
      9 H2         0.0196   -6.6470  -13.0539 H         1 RES1    0.0000
     10 C3        -0.4157   -3.9502  -11.2768 C.ar      1 RES1    0.0000
     11 C4        -1.6972   -4.2270  -10.7971 C.ar      1 RES1    0.0000
     12 H3        -2.1309   -3.6206  -10.2085 H         1 RES1    0.0000
     13 C5        -4.8276   -8.1317  -12.0407 C.ar      1 RES1    0.0000
     14 C6        -1.7339   -6.3012  -12.0559 C.ar      1 RES1    0.0000
     15 C7        -2.3347   -5.4046  -11.1904 C.ar      1 RES1    0.0000
     16 H4        -3.2029   -5.5950  -10.8544 H         1 RES1    0.0000
     17 C8        -1.6679   -9.1045  -10.2940 C.ar      1 RES1    0.0000
     18 H5        -1.0125   -8.6259  -10.7881 H         1 RES1    0.0000
     19 C9        -5.7748   -8.8853  -11.3023 C.ar      1 RES1    0.0000
     20 H6        -6.6943   -8.8548  -11.5387 H         1 RES1    0.0000
     21 C10       -3.0398   -8.9883  -10.6536 C.ar      1 RES1    0.0000
     22 C11       -3.9936   -9.7230   -9.8908 C.ar      1 RES1    0.0000
     23 C12       -3.4768   -8.1836  -11.7585 C.ar      1 RES1    0.0000
     24 C13       -5.3631   -9.6509  -10.2542 C.ar      1 RES1    0.0000
     25 H7        -6.0047  -10.1459   -9.7581 H         1 RES1    0.0000
     26 C14       -1.2758   -9.9023   -9.2393 C.ar      1 RES1    0.0000
     27 H8        -0.3546   -9.9632   -9.0162 H         1 RES1    0.0000
     28 C15       -3.5534  -10.5304   -8.8108 C.ar      1 RES1    0.0000
     29 H9        -4.1909  -11.0141   -8.2988 H         1 RES1    0.0000
     30 C16       -4.4852   -6.4463  -13.6897 C.3       1 RES1    0.0000
     31 H10       -4.3980   -5.6649  -13.0888 H         1 RES1    0.0000
     32 H11       -4.8773   -6.1351  -14.5429 H         1 RES1    0.0000
     33 C17       -2.4586   -7.5068  -12.6534 C.3       1 RES1    0.0000
     34 H12       -1.7673   -8.1873  -12.8950 H         1 RES1    0.0000
     35 C18       -0.3571   -1.7849  -10.2553 C.3       1 RES1    0.0000
     36 H13        0.2568   -1.0317  -10.1265 H         1 RES1    0.0000
     37 H14       -0.6310   -2.1367   -9.3828 H         1 RES1    0.0000
     38 H15       -1.1478   -1.4805  -10.7479 H         1 RES1    0.0000
     39 C19       -2.2173  -10.6260   -8.4904 C.ar      1 RES1    0.0000
     40 H16       -1.9353  -11.1765   -7.7698 H         1 RES1    0.0000
     41 C20       -3.1173   -7.0343  -13.9506 C.3       1 RES1    0.0000
     42 H17       -2.5418   -6.3234  -14.3544 H         1 RES1    0.0000
@<TRIPOS>BOND
     1    1   13 1
     2    2    4 2
     3    3   10 1
     4    4    5 2
     5    6    7 1
     6    8    6 ar
     7    9    8 1
     8   10    6 ar
     9   11   10 ar
    10   12   11 1
    11   13   19 ar
    12   14    8 ar
    13   15   11 ar
    14   16   15 1
    15   17   18 1
    16   19   20 1
    17   21   17 ar
    18   22   21 ar
    19   23   13 ar
    20   24   19 ar
    21   25   24 1
    22   26   17 ar
    23   27   26 1
    24   28   22 ar
    25   29   28 1
    26   30    1 1
    27   31   30 1
    28   32   30 1
    29   33   14 1
    30   34   33 1
    31   35    3 1
    32   36   35 1
    33   37   35 1
    34   38   35 1
    35   39   26 ar
    36   40   39 1
    37   41    4 1
    38   42   41 1
    39   14   15 ar
    40   21   23 ar
    41   22   24 ar
    42   23   33 1
    43   28   39 ar
    44   30   41 1
    45   33   41 1
@<TRIPOS>SUBSTRUCTURE
     1 RES1 1

@<TRIPOS>CRYSIN
   8.1519   11.2757   17.4564  90.0000  90.0000  90.0000  19 1

