# MOL2 file generated by ConQuest
# Please check atom types

@<TRIPOS>MOLECULE
WIFDUL
    48    50     1
SMALL
NO_CHARGES
****
Generated from CSD

@<TRIPOS>ATOM
      1 O1         3.3789   -0.7371   -0.2453 O.3       1 RES1    0.0000
      2 N1        -1.4105    6.5235    2.8815 N.ar      1 RES1    0.0000
      3 N2         0.1533    4.8008    2.6424 N.3       1 RES1    0.0000
      4 N3         0.4889    1.9955    2.0438 N.3       1 RES1    0.0000
      5 N4         2.6097   -1.7964    0.2525 N.2       1 RES1    0.0000
      6 C1         1.5717   -6.3416    2.5255 C.3       1 RES1    0.0000
      7 C2         0.9533   -4.9432    2.4453 C.ar      1 RES1    0.0000
      8 C3        -0.3402   -4.7150    2.9520 C.ar      1 RES1    0.0000
      9 C4        -0.8833   -3.4419    2.9716 C.ar      1 RES1    0.0000
     10 C5        -0.1626   -2.3798    2.4283 C.ar      1 RES1    0.0000
     11 C6         1.0999   -2.5891    1.8743 C.ar      1 RES1    0.0000
     12 C7         1.6370   -3.9034    1.8484 C.ar      1 RES1    0.0000
     13 C8         1.9261   -1.4773    1.2846 C.2       1 RES1    0.0000
     14 C9         1.8613   -0.1012    1.9314 C.3       1 RES1    0.0000
     15 C10        0.9175    0.8613    1.1731 C.3       1 RES1    0.0000
     16 C11        1.6397    2.8482    2.4256 C.3       1 RES1    0.0000
     17 C12        1.1822    4.0150    3.2963 C.3       1 RES1    0.0000
     18 C13       -0.9835    3.9892    2.1357 C.3       1 RES1    0.0000
     19 C14       -0.4811    2.8294    1.2820 C.3       1 RES1    0.0000
     20 C15       -0.1988    6.0516    3.2606 C.ar      1 RES1    0.0000
     21 C16        0.6834    6.6951    4.0992 C.ar      1 RES1    0.0000
     22 C17        0.2958    7.9562    4.6166 C.ar      1 RES1    0.0000
     23 C18       -0.9752    8.4572    4.2473 C.ar      1 RES1    0.0000
     24 C19       -1.7270    7.7571    3.4417 C.ar      1 RES1    0.0000
     25 H1         0.9960   -6.9318    3.0010 H         1 RES1    0.0000
     26 H2         1.7261   -6.6813    1.6549 H         1 RES1    0.0000
     27 H3         2.4108   -6.2953    2.9921 H         1 RES1    0.0000
     28 H4        -0.8470   -5.4442    3.2919 H         1 RES1    0.0000
     29 H5        -1.7517   -3.2909    3.3445 H         1 RES1    0.0000
     30 H6        -0.5313   -1.5048    2.4461 H         1 RES1    0.0000
     31 H7         2.4678   -4.0647    1.4158 H         1 RES1    0.0000
     32 H8         1.5487   -0.2025    2.8182 H         1 RES1    0.0000
     33 H9         2.7358    0.2642    1.9359 H         1 RES1    0.0000
     34 H10        0.1491    0.3981    0.8805 H         1 RES1    0.0000
     35 H11        1.3766    1.2285    0.4220 H         1 RES1    0.0000
     36 H12        2.2749    2.3318    2.9029 H         1 RES1    0.0000
     37 H13        2.0462    3.1965    1.6352 H         1 RES1    0.0000
     38 H14        1.9273    4.5795    3.4846 H         1 RES1    0.0000
     39 H15        0.8387    3.6735    4.1180 H         1 RES1    0.0000
     40 H16       -1.4789    3.6495    2.8726 H         1 RES1    0.0000
     41 H17       -1.5470    4.5452    1.6085 H         1 RES1    0.0000
     42 H18       -0.0549    3.1725    0.5085 H         1 RES1    0.0000
     43 H19       -1.2222    2.2906    1.0241 H         1 RES1    0.0000
     44 H20        1.5197    6.3073    4.3187 H         1 RES1    0.0000
     45 H21        0.8779    8.4435    5.1929 H         1 RES1    0.0000
     46 H22       -1.2689    9.2928    4.5774 H         1 RES1    0.0000
     47 H23       -2.5911    8.1192    3.2223 H         1 RES1    0.0000
     48 H24        3.9316   -0.8751   -1.0268 H         1 RES1    0.0000
@<TRIPOS>BOND
     1    1    5 1
     2    2   20 ar
     3    3   17 1
     4    4   15 1
     5    5   13 2
     6    6    7 1
     7    7    8 ar
     8    8    9 ar
     9    9   10 ar
    10   10   11 ar
    11   11   12 ar
    12   12    7 ar
    13   13   11 1
    14   14   13 1
    15   15   14 1
    16   16    4 1
    17   17   16 1
    18   18    3 1
    19   19    4 1
    20   20    3 1
    21   21   20 ar
    22   22   21 ar
    23   23   22 ar
    24   24    2 ar
    25   25    6 1
    26   26    6 1
    27   27    6 1
    28   28    8 1
    29   29    9 1
    30   30   10 1
    31   31   12 1
    32   32   14 1
    33   33   14 1
    34   34   15 1
    35   35   15 1
    36   36   16 1
    37   37   16 1
    38   38   17 1
    39   39   17 1
    40   40   18 1
    41   41   18 1
    42   42   19 1
    43   43   19 1
    44   44   21 1
    45   45   22 1
    46   46   23 1
    47   47   24 1
    48   48    1 1
    49   18   19 1
    50   23   24 ar
@<TRIPOS>SUBSTRUCTURE
     1 RES1 1

