# MOL2 file generated by ConQuest
# Please check atom types

@<TRIPOS>MOLECULE
WIFHID
   132   134     2
SMALL
NO_CHARGES
****
Generated from CSD

@<TRIPOS>ATOM
      1 O1         4.6189   28.3223    2.9625 O.2       1 RES1    0.0000
      2 O2         2.9801   26.9591    3.3383 O.2       1 RES1    0.0000
      3 O3         0.2882   27.0526    4.7686 O.3       1 RES1    0.0000
      4 O4         2.0922   27.3797    6.1114 O.2       1 RES1    0.0000
      5 O5        -0.4858   29.2025    6.5296 O.2       1 RES1    0.0000
      6 O6        -1.4358   30.9044    5.3713 O.3       1 RES1    0.0000
      7 O7         3.9057   28.8091    8.1569 O.3       2 RES2    0.0000
      8 O8         3.0199   30.5539    7.0880 O.2       2 RES2    0.0000
      9 O9         2.1468   32.6220    8.9845 O.3       2 RES2    0.0000
     10 O10        0.4780   32.3182    7.4687 O.2       2 RES2    0.0000
     11 O11       -0.5847   32.6571   10.1899 O.2       2 RES2    0.0000
     12 O12       -2.1584   31.2472   10.6647 O.2       2 RES2    0.0000
     13 N1         3.4785   28.0652    3.2855 N.pl3     1 RES1    0.0000
     14 N2        -1.0141   31.5120   10.2649 N.pl3     2 RES2    0.0000
     15 C1         1.5192   29.0077    4.5110 C.ar      1 RES1    0.0000
     16 C2         2.5920   29.2180    3.6565 C.ar      1 RES1    0.0000
     17 C3         2.8946   30.4176    3.0461 C.ar      1 RES1    0.0000
     18 C4         2.0645   31.4964    3.2508 C.ar      1 RES1    0.0000
     19 C5         0.9518   31.3329    4.0573 C.ar      1 RES1    0.0000
     20 C6         0.6875   30.1372    4.6696 C.ar      1 RES1    0.0000
     21 C7         1.3450   27.7225    5.2396 C.2       1 RES1    0.0000
     22 C8        -0.4546   30.0242    5.6318 C.2       1 RES1    0.0000
     23 C9         0.0212   25.7557    5.3819 C.3       1 RES1    0.0000
     24 C10       -0.7577   25.9776    6.6661 C.3       1 RES1    0.0000
     25 C11       -0.8241   24.7469    7.5456 C.3       1 RES1    0.0000
     26 C12        0.3327   24.3068    8.2281 C.3       1 RES1    0.0000
     27 C13        0.3254   22.9086    8.7759 C.3       1 RES1    0.0000
     28 C14        0.8688   21.8726    7.8340 C.3       1 RES1    0.0000
     29 C15        2.3542   21.8960    7.6802 C.3       1 RES1    0.0000
     30 C16        2.9117   20.7743    6.7862 C.3       1 RES1    0.0000
     31 C17        2.5108   20.8912    5.3156 C.3       1 RES1    0.0000
     32 C18        3.1309   21.9934    4.5562 C.3       1 RES1    0.0000
     33 C19        2.5366   22.0206    3.0951 C.3       1 RES1    0.0000
     34 C20        1.1892   22.7100    3.0375 C.3       1 RES1    0.0000
     35 C21        1.2440   24.2133    2.9442 C.3       1 RES1    0.0000
     36 C22       -0.1144   24.9144    2.9894 C.3       1 RES1    0.0000
     37 C23       -0.7309   24.9456    4.3755 C.3       1 RES1    0.0000
     38 C24       -2.0670   25.0546    8.5924 C.3       1 RES1    0.0000
     39 C25        0.9430   30.6162    9.0595 C.ar      2 RES2    0.0000
     40 C26        1.7863   29.5257    8.8519 C.ar      2 RES2    0.0000
     41 C27        1.5141   28.2872    9.4180 C.ar      2 RES2    0.0000
     42 C28        0.4041   28.0964   10.1995 C.ar      2 RES2    0.0000
     43 C29       -0.4297   29.1518   10.4389 C.ar      2 RES2    0.0000
     44 C30       -0.1474   30.3748    9.8977 C.ar      2 RES2    0.0000
     45 C31        1.1472   31.9443    8.4097 C.2       2 RES2    0.0000
     46 C32        2.9596   29.6776    7.9579 C.2       2 RES2    0.0000
     47 C33        2.4110   33.9735    8.5289 C.3       2 RES2    0.0000
     48 C34        2.6818   34.7952    9.7766 C.3       2 RES2    0.0000
     49 C35        2.7121   36.2791    9.5526 C.3       2 RES2    0.0000
     50 C36        1.3372   36.8711    9.2729 C.3       2 RES2    0.0000
     51 C37        1.3013   38.2888    8.7087 C.3       2 RES2    0.0000
     52 C38       -0.1177   38.8418    8.4203 C.3       2 RES2    0.0000
     53 C39       -0.8114   38.1603    7.2284 C.3       2 RES2    0.0000
     54 C40       -0.2633   38.5731    5.8827 C.3       2 RES2    0.0000
     55 C41       -0.8000   37.7903    4.6619 C.3       2 RES2    0.0000
     56 C42       -0.1944   36.4388    4.5177 C.3       2 RES2    0.0000
     57 C43        1.1957   36.4388    3.9362 C.3       2 RES2    0.0000
     58 C44        1.9815   35.1730    4.2063 C.3       2 RES2    0.0000
     59 C45        2.5076   35.1614    5.6462 C.3       2 RES2    0.0000
     60 C46        3.1614   33.8956    6.0711 C.3       2 RES2    0.0000
     61 C47        3.5872   33.9423    7.5485 C.3       2 RES2    0.0000
     62 C48        3.4097   36.9802   10.7080 C.3       2 RES2    0.0000
     63 H1         3.6749   30.5083    2.4936 H         1 RES1    0.0000
     64 H2         2.2560   32.3539    2.8609 H         1 RES1    0.0000
     65 H3         0.3469   32.0708    4.1627 H         1 RES1    0.0000
     66 H4        -2.1308   30.5851    5.9673 H         1 RES1    0.0000
     67 H5         0.8602   25.3233    5.5684 H         1 RES1    0.0000
     68 H6        -1.2517   24.1004    6.9785 H         1 RES1    0.0000
     69 H7         4.6879   28.6767    7.5975 H         2 RES2    0.0000
     70 H8         2.1240   27.5667    9.2393 H         2 RES2    0.0000
     71 H9         0.2042   27.2434   10.5936 H         2 RES2    0.0000
     72 H10       -1.2006   29.0038   10.9887 H         2 RES2    0.0000
     73 H11        1.6319   34.3045    8.0762 H         2 RES2    0.0000
     74 H12        3.2327   36.4583    8.7635 H         2 RES2    0.0000
     75 H13       -0.2736   26.6320    7.1784 H         1 RES1    0.0000
     76 H14       -1.6095   26.3321    6.4133 H         1 RES1    0.0000
     77 H15        1.0541   24.4003    7.6004 H         1 RES1    0.0000
     78 H16        0.4487   24.9339    8.9432 H         1 RES1    0.0000
     79 H17        0.8617   22.9125    9.5795 H         1 RES1    0.0000
     80 H18       -0.5840   22.6983    9.0018 H         1 RES1    0.0000
     81 H19        0.6097   21.0041    8.1569 H         1 RES1    0.0000
     82 H20        0.4735   22.0206    6.9708 H         1 RES1    0.0000
     83 H21        2.5999   22.7450    7.3024 H         1 RES1    0.0000
     84 H22        2.7354   21.8064    8.5549 H         1 RES1    0.0000
     85 H23        3.8709   20.7938    6.8151 H         1 RES1    0.0000
     86 H24        2.6032   19.9409    7.1515 H         1 RES1    0.0000
     87 H25        2.6864   20.0577    4.8734 H         1 RES1    0.0000
     88 H26        1.5658   21.0470    5.3348 H         1 RES1    0.0000
     89 H27        2.9638   22.8424    4.9791 H         1 RES1    0.0000
     90 H28        4.0801   21.8493    4.4985 H         1 RES1    0.0000
     91 H29        3.1499   22.4724    2.5184 H         1 RES1    0.0000
     92 H30        2.4509   21.1054    2.8164 H         1 RES1    0.0000
     93 H31        0.7410   22.3867    2.2493 H         1 RES1    0.0000
     94 H32        0.6954   22.4529    3.8160 H         1 RES1    0.0000
     95 H33        1.7599   24.5132    3.6997 H         1 RES1    0.0000
     96 H34        1.7029   24.4509    2.1329 H         1 RES1    0.0000
     97 H35       -0.0173   25.8141    2.6818 H         1 RES1    0.0000
     98 H36       -0.6857   24.4276    2.3934 H         1 RES1    0.0000
     99 H37       -0.8169   24.0420    4.7004 H         1 RES1    0.0000
    100 H38       -1.6054   25.3467    4.3351 H         1 RES1    0.0000
    101 H39       -2.8858   25.2766    8.1512 H         1 RES1    0.0000
    102 H40       -2.2047   24.2951    9.1604 H         1 RES1    0.0000
    103 H41       -1.7708   25.8024    9.1220 H         1 RES1    0.0000
    104 H42        2.0026   34.5927   10.4292 H         2 RES2    0.0000
    105 H43        3.5376   34.5187   10.1120 H         2 RES2    0.0000
    106 H44        0.9052   36.2730    8.6576 H         2 RES2    0.0000
    107 H45        0.8671   36.8595   10.1114 H         2 RES2    0.0000
    108 H46        1.7667   38.8514    9.3349 H         2 RES2    0.0000
    109 H47        1.7878   38.2645    7.8809 H         2 RES2    0.0000
    110 H48       -0.6319   38.7375    9.2219 H         2 RES2    0.0000
    111 H49       -0.0358   39.7731    8.2068 H         2 RES2    0.0000
    112 H50       -0.6837   37.2129    7.3252 H         2 RES2    0.0000
    113 H51       -1.7471   38.3618    7.2406 H         2 RES2    0.0000
    114 H52       -0.4421   39.5146    5.7983 H         2 RES2    0.0000
    115 H53        0.6846   38.4327    5.9354 H         2 RES2    0.0000
    116 H54       -1.7579   37.7337    4.7408 H         2 RES2    0.0000
    117 H55       -0.5781   38.2891    3.8703 H         2 RES2    0.0000
    118 H56       -0.1415   36.0476    5.3951 H         2 RES2    0.0000
    119 H57       -0.7477   35.8941    3.9566 H         2 RES2    0.0000
    120 H58        1.1290   36.5829    2.9885 H         2 RES2    0.0000
    121 H59        1.6663   37.1757    4.3374 H         2 RES2    0.0000
    122 H60        1.4042   34.4139    4.0848 H         2 RES2    0.0000
    123 H61        2.7348   35.0986    3.6169 H         2 RES2    0.0000
    124 H62        3.1414   35.8779    5.7311 H         2 RES2    0.0000
    125 H63        1.7530   35.3326    6.2143 H         2 RES2    0.0000
    126 H64        2.5368   33.1715    5.9894 H         2 RES2    0.0000
    127 H65        3.9270   33.7210    5.5163 H         2 RES2    0.0000
    128 H66        4.0676   34.7662    7.6667 H         2 RES2    0.0000
    129 H67        4.1622   33.2048    7.7726 H         2 RES2    0.0000
    130 H68        4.2839   36.6067   10.8267 H         2 RES2    0.0000
    131 H69        3.4783   37.9223   10.5475 H         2 RES2    0.0000
    132 H70        2.8833   36.8256   11.4965 H         2 RES2    0.0000
@<TRIPOS>BOND
     1    1   13 2
     2    2   13 2
     3    3   21 1
     4    4   21 2
     5    5   22 2
     6    6   22 1
     7    7   46 1
     8    8   46 2
     9    9   45 1
    10   10   45 2
    11   11   14 2
    12   12   14 2
    13   13   16 1
    14   14   44 1
    15   15   16 ar
    16   16   17 ar
    17   17   18 ar
    18   18   19 ar
    19   19   20 ar
    20   20   15 ar
    21   21   15 1
    22   22   20 1
    23   23    3 1
    24   24   23 1
    25   25   24 1
    26   26   25 1
    27   27   26 1
    28   28   27 1
    29   29   28 1
    30   30   29 1
    31   31   30 1
    32   32   31 1
    33   33   32 1
    34   34   33 1
    35   35   34 1
    36   36   35 1
    37   37   23 1
    38   38   25 1
    39   39   40 ar
    40   40   41 ar
    41   41   42 ar
    42   42   43 ar
    43   43   44 ar
    44   44   39 ar
    45   45   39 1
    46   46   40 1
    47   47    9 1
    48   48   47 1
    49   49   48 1
    50   50   49 1
    51   51   50 1
    52   52   51 1
    53   53   52 1
    54   54   53 1
    55   55   54 1
    56   56   55 1
    57   57   56 1
    58   58   57 1
    59   59   58 1
    60   60   59 1
    61   61   47 1
    62   62   49 1
    63   63   17 1
    64   64   18 1
    65   65   19 1
    66   66    6 1
    67   67   23 1
    68   68   25 1
    69   69    7 1
    70   70   41 1
    71   71   42 1
    72   72   43 1
    73   73   47 1
    74   74   49 1
    75   75   24 1
    76   76   24 1
    77   77   26 1
    78   78   26 1
    79   79   27 1
    80   80   27 1
    81   81   28 1
    82   82   28 1
    83   83   29 1
    84   84   29 1
    85   85   30 1
    86   86   30 1
    87   87   31 1
    88   88   31 1
    89   89   32 1
    90   90   32 1
    91   91   33 1
    92   92   33 1
    93   93   34 1
    94   94   34 1
    95   95   35 1
    96   96   35 1
    97   97   36 1
    98   98   36 1
    99   99   37 1
   100  100   37 1
   101  101   38 1
   102  102   38 1
   103  103   38 1
   104  104   48 1
   105  105   48 1
   106  106   50 1
   107  107   50 1
   108  108   51 1
   109  109   51 1
   110  110   52 1
   111  111   52 1
   112  112   53 1
   113  113   53 1
   114  114   54 1
   115  115   54 1
   116  116   55 1
   117  117   55 1
   118  118   56 1
   119  119   56 1
   120  120   57 1
   121  121   57 1
   122  122   58 1
   123  123   58 1
   124  124   59 1
   125  125   59 1
   126  126   60 1
   127  127   60 1
   128  128   61 1
   129  129   61 1
   130  130   62 1
   131  131   62 1
   132  132   62 1
   133   36   37 1
   134   60   61 1
@<TRIPOS>SUBSTRUCTURE
     1 RES1 1
     2 RES2 7

@<TRIPOS>CRYSIN
   6.4150   38.9470    9.6670  90.0000  96.1030  90.0000   4 1

