# MOL2 file generated by ConQuest
# Please check atom types

@<TRIPOS>MOLECULE
WIFMOQ
    59    64     1
SMALL
NO_CHARGES
****
Generated from CSD

@<TRIPOS>ATOM
      1 C1         1.4311   -3.2314    8.6003 C.ar      1 RES1    0.0000
      2 H1         1.2403   -2.4653    9.0912 H         1 RES1    0.0000
      3 C2         0.4530   -4.2249    8.4627 C.ar      1 RES1    0.0000
      4 H2        -0.3943   -4.0926    8.8244 H         1 RES1    0.0000
      5 C3         0.7308   -5.3671    7.8095 C.ar      1 RES1    0.0000
      6 H3         0.0879   -6.0356    7.7311 H         1 RES1    0.0000
      7 C4         1.9501   -5.5342    7.2705 C.ar      1 RES1    0.0000
      8 H4         2.1423   -6.3258    6.8222 H         1 RES1    0.0000
      9 C5         2.9460   -4.5407    7.3654 C.ar      1 RES1    0.0000
     10 H5         3.7829   -4.6846    6.9872 H         1 RES1    0.0000
     11 C6         2.6823   -3.3730    8.0117 C.ar      1 RES1    0.0000
     12 C7         3.7289   -2.2727    8.1024 C.3       1 RES1    0.0000
     13 H6         3.6506   -1.8478    8.9715 H         1 RES1    0.0000
     14 H7         4.6070   -2.6835    8.0598 H         1 RES1    0.0000
     15 C8         2.5104   -0.3598    7.1687 C.3       1 RES1    0.0000
     16 H8         2.4020   -0.0650    8.0873 H         1 RES1    0.0000
     17 H9         1.7115   -0.8496    6.9157 H         1 RES1    0.0000
     18 C9         2.6642    0.8612    6.2611 C.3       1 RES1    0.0000
     19 H10        1.8300    1.3719    6.2762 H         1 RES1    0.0000
     20 C10        2.8866    0.3227    4.8433 C.2       1 RES1    0.0000
     21 C11        4.0779   -0.5339    4.7677 C.3       1 RES1    0.0000
     22 H11        4.1705   -0.8728    3.8518 H         1 RES1    0.0000
     23 C12        3.8275   -1.7294    5.7248 C.3       1 RES1    0.0000
     24 H12        3.0305   -2.2100    5.4511 H         1 RES1    0.0000
     25 H13        4.5779   -2.3423    5.6904 H         1 RES1    0.0000
     26 C13        5.4019    0.2368    5.1665 C.3       1 RES1    0.0000
     27 C14        6.4828   -0.6825    5.5900 C.ar      1 RES1    0.0000
     28 C15        7.2703   -1.5437    4.8158 C.ar      1 RES1    0.0000
     29 H14        7.1619   -1.5739    3.8917 H         1 RES1    0.0000
     30 C16        8.1906   -2.3284    5.4223 C.ar      1 RES1    0.0000
     31 H15        8.7156   -2.8925    4.9024 H         1 RES1    0.0000
     32 C17        8.3708   -2.3121    6.7782 C.ar      1 RES1    0.0000
     33 H16        9.0025   -2.8693    7.1756 H         1 RES1    0.0000
     34 C18        7.5956   -1.4509    7.5551 C.ar      1 RES1    0.0000
     35 H17        7.6987   -1.4393    8.4792 H         1 RES1    0.0000
     36 C19        6.7135   -0.6477    6.9803 C.ar      1 RES1    0.0000
     37 C20        5.7669    0.3691    7.5152 C.2       1 RES1    0.0000
     38 C21        5.2072    1.1677    6.3945 C.3       1 RES1    0.0000
     39 H18        5.8167    1.9244    6.2652 H         1 RES1    0.0000
     40 C22        3.8149    1.7805    6.6929 C.3       1 RES1    0.0000
     41 H19        3.7515    1.8710    7.6665 H         1 RES1    0.0000
     42 C23        3.6165    3.1710    6.1140 C.ar      1 RES1    0.0000
     43 C24        4.0597    3.5378    4.8543 C.ar      1 RES1    0.0000
     44 H20        4.5306    2.9319    4.3290 H         1 RES1    0.0000
     45 C25        3.7975    4.8076    4.3854 C.ar      1 RES1    0.0000
     46 H21        4.0803    5.0444    3.5300 H         1 RES1    0.0000
     47 C26        3.1502    5.7083    5.1280 C.ar      1 RES1    0.0000
     48 C27        2.7416    5.4042    6.4275 C.ar      1 RES1    0.0000
     49 H22        2.3353    6.0426    6.9679 H         1 RES1    0.0000
     50 C28        2.9672    4.1158    6.8772 C.ar      1 RES1    0.0000
     51 H23        2.6705    3.8767    7.7256 H         1 RES1    0.0000
     52 N1         3.6616   -1.2327    7.0766 N.3       1 RES1    0.0000
     53 N2         2.9375    7.0803    4.5862 N.pl3     1 RES1    0.0000
     54 O1         2.1277    0.5525    3.9206 O.2       1 RES1    0.0000
     55 O2         5.7586    1.0572    4.0196 O.3       1 RES1    0.0000
     56 O3         5.6056    0.5936    8.7213 O.2       1 RES1    0.0000
     57 O4         2.2941    7.8278    5.2627 O.2       1 RES1    0.0000
     58 O5         3.5449    7.4029    3.5768 O.2       1 RES1    0.0000
     59 H24        6.6481    1.4393    4.0842 H         1 RES1    0.0000
@<TRIPOS>BOND
     1    1    2 1
     2    3    1 ar
     3    4    3 1
     4    5    3 ar
     5    6    5 1
     6    7    5 ar
     7    8    7 1
     8    9    7 ar
     9   10    9 1
    10   11    1 ar
    11   12   11 1
    12   13   12 1
    13   14   12 1
    14   15   16 1
    15   17   15 1
    16   18   15 1
    17   19   18 1
    18   20   18 1
    19   21   20 1
    20   22   21 1
    21   23   21 1
    22   24   23 1
    23   25   23 1
    24   26   21 1
    25   27   26 1
    26   28   27 ar
    27   29   28 1
    28   30   28 ar
    29   31   30 1
    30   32   30 ar
    31   33   32 1
    32   34   32 ar
    33   35   34 1
    34   36   27 ar
    35   37   36 1
    36   38   26 1
    37   39   38 1
    38   40   18 1
    39   41   40 1
    40   42   40 1
    41   43   42 ar
    42   44   43 1
    43   45   43 ar
    44   46   45 1
    45   47   45 ar
    46   48   47 ar
    47   49   48 1
    48   50   42 ar
    49   51   50 1
    50   52   12 1
    51   53   47 1
    52   54   20 2
    53   55   26 1
    54   56   37 2
    55   57   53 2
    56   58   53 2
    57   59   55 1
    58    9   11 ar
    59   15   52 1
    60   23   52 1
    61   34   36 ar
    62   37   38 1
    63   38   40 1
    64   48   50 ar
@<TRIPOS>SUBSTRUCTURE
     1 RES1 1

@<TRIPOS>CRYSIN
  17.4850   23.2140   13.7520  90.0000  90.4370  90.0000  15 1

