# MOL2 file generated by ConQuest
# Please check atom types

@<TRIPOS>MOLECULE
WIFQEI
    38    40     1
SMALL
NO_CHARGES
****
Generated from CSD

@<TRIPOS>ATOM
      1 O1         0.4692    2.2464    0.6902 O.2       1 RES1    0.0000
      2 O2        -0.8640    0.5983    1.1228 O.2       1 RES1    0.0000
      3 O3         6.3505    3.6416    1.7419 O.3       1 RES1    0.0000
      4 N1         1.4104    2.7923    7.0665 N.pl3     1 RES1    0.0000
      5 H1         1.8859    2.7312    7.8042 H         1 RES1    0.0000
      6 N2        -0.0487    1.4429    1.4623 N.pl3     1 RES1    0.0000
      7 C1         1.9050    2.6739    5.7895 C.2       1 RES1    0.0000
      8 H2         2.8148    2.5136    5.5672 H         1 RES1    0.0000
      9 C2         0.8880    2.8209    4.8870 C.2       1 RES1    0.0000
     10 C3        -0.3087    3.0394    5.6467 C.ar      1 RES1    0.0000
     11 C4        -1.6532    3.2666    5.3072 C.ar      1 RES1    0.0000
     12 H3        -1.9267    3.2837    4.3983 H         1 RES1    0.0000
     13 C5        -2.5667    3.4651    6.3181 C.ar      1 RES1    0.0000
     14 H4        -3.4784    3.6168    6.0986 H         1 RES1    0.0000
     15 C6        -2.1798    3.4479    7.6636 C.ar      1 RES1    0.0000
     16 H5        -2.8355    3.5863    8.3374 H         1 RES1    0.0000
     17 C7        -0.8672    3.2351    8.0324 C.ar      1 RES1    0.0000
     18 H6        -0.6027    3.2341    8.9443 H         1 RES1    0.0000
     19 C8         0.0529    3.0213    7.0090 C.ar      1 RES1    0.0000
     20 C9         0.9769    2.7694    3.3733 C.3       1 RES1    0.0000
     21 H7         0.4201    3.5204    3.0187 H         1 RES1    0.0000
     22 C10        0.3246    1.4668    2.9165 C.3       1 RES1    0.0000
     23 H8         0.9482    0.7186    3.0961 H         1 RES1    0.0000
     24 H9        -0.4911    1.3131    3.4563 H         1 RES1    0.0000
     25 C11        2.3933    2.9936    2.8912 C.ar      1 RES1    0.0000
     26 C12        3.3538    1.9802    2.8962 C.ar      1 RES1    0.0000
     27 H10        3.1079    1.1041    3.1700 H         1 RES1    0.0000
     28 C13        4.6561    2.2312    2.5106 C.ar      1 RES1    0.0000
     29 H11        5.2997    1.5317    2.5252 H         1 RES1    0.0000
     30 C14        5.0224    3.5023    2.1019 C.ar      1 RES1    0.0000
     31 C15        4.0975    4.5272    2.0974 C.ar      1 RES1    0.0000
     32 H12        4.3495    5.4032    1.8317 H         1 RES1    0.0000
     33 C16        2.7872    4.2543    2.4897 C.ar      1 RES1    0.0000
     34 H13        2.1468    4.9557    2.4801 H         1 RES1    0.0000
     35 C17        6.7587    4.9213    1.2642 C.3       1 RES1    0.0000
     36 H14        6.2046    5.1761    0.4971 H         1 RES1    0.0000
     37 H15        7.6988    4.8812    0.9888 H         1 RES1    0.0000
     38 H16        6.6553    5.5846    1.9776 H         1 RES1    0.0000
@<TRIPOS>BOND
     1    1    6 2
     2    2    6 2
     3    3   30 1
     4    4    5 1
     5    6   22 1
     6    7    4 1
     7    8    7 1
     8    9    7 2
     9   10    9 1
    10   11   10 ar
    11   12   11 1
    12   13   11 ar
    13   14   13 1
    14   15   13 ar
    15   16   15 1
    16   17   15 ar
    17   18   17 1
    18   19    4 1
    19   20    9 1
    20   21   20 1
    21   22   20 1
    22   23   22 1
    23   24   22 1
    24   25   20 1
    25   26   25 ar
    26   27   26 1
    27   28   26 ar
    28   29   28 1
    29   30   28 ar
    30   31   30 ar
    31   32   31 1
    32   33   25 ar
    33   34   33 1
    34   35    3 1
    35   36   35 1
    36   37   35 1
    37   38   35 1
    38   10   19 ar
    39   17   19 ar
    40   31   33 ar
@<TRIPOS>SUBSTRUCTURE
     1 RES1 1

@<TRIPOS>CRYSIN
   8.4935    9.5430   18.3260  90.0000 100.6360  90.0000 231 1

