# MOL2 file generated by ConQuest
# Please check atom types

@<TRIPOS>MOLECULE
WIFXIU
   168   172     4
SMALL
NO_CHARGES
****
Generated from CSD

@<TRIPOS>ATOM
      1 C1         0.5442   23.9672   24.9519 C.ar      1 RES1    0.0000
      2 H1         1.3667   23.5329   24.9495 H         1 RES1    0.0000
      3 C2         0.3503   25.0498   25.7750 C.ar      1 RES1    0.0000
      4 H2         1.0407   25.3466   26.3237 H         1 RES1    0.0000
      5 C3        -0.8626   25.7002   25.7889 C.ar      1 RES1    0.0000
      6 H3        -0.9938   26.4423   26.3354 H         1 RES1    0.0000
      7 C4        -1.8626   25.2484   24.9937 C.ar      1 RES1    0.0000
      8 H4        -2.6843   25.6850   25.0053 H         1 RES1    0.0000
      9 C5        -1.6871   24.1571   24.1729 C.ar      1 RES1    0.0000
     10 H5        -2.3922   23.8537   23.6474 H         1 RES1    0.0000
     11 C6        -0.4726   23.5176   24.1287 C.ar      1 RES1    0.0000
     12 C7        -0.2882   22.4045   23.2103 C.2       1 RES1    0.0000
     13 C8         1.2131   20.6977   22.4034 C.3       1 RES1    0.0000
     14 H6         0.4040   20.2132   22.1360 H         1 RES1    0.0000
     15 C9         1.9212   21.2324   21.2059 C.3       1 RES1    0.0000
     16 H7         2.6682   21.7759   21.5012 H         1 RES1    0.0000
     17 H8         1.3142   21.8065   20.7130 H         1 RES1    0.0000
     18 C10        2.4405   20.1542   20.2712 C.3       1 RES1    0.0000
     19 C11        1.3068   19.5234   19.4434 C.3       1 RES1    0.0000
     20 H9         1.6340   18.7355   19.0016 H         1 RES1    0.0000
     21 H10        0.9983   20.1542   18.7900 H         1 RES1    0.0000
     22 H11        0.5811   19.2834   20.0247 H         1 RES1    0.0000
     23 C12        3.4860   20.7501   19.3272 C.3       1 RES1    0.0000
     24 H12        4.2373   21.0622   19.8364 H         1 RES1    0.0000
     25 H13        3.0991   21.4834   18.8435 H         1 RES1    0.0000
     26 H14        3.7781   20.0778   18.7063 H         1 RES1    0.0000
     27 C13        2.6434   18.6089   22.3918 C.3       1 RES1    0.0000
     28 C14        1.5866   17.5416   22.1942 C.3       1 RES1    0.0000
     29 H15        0.7952   17.9411   21.8244 H         1 RES1    0.0000
     30 H16        1.3767   17.1400   23.0405 H         1 RES1    0.0000
     31 H17        1.9180   16.8716   21.5942 H         1 RES1    0.0000
     32 C15        3.8478   18.0153   23.1359 C.3       1 RES1    0.0000
     33 H18        4.1695   17.2448   22.6592 H         1 RES1    0.0000
     34 H19        3.5813   17.7555   24.0194 H         1 RES1    0.0000
     35 H20        4.5464   18.6700   23.1917 H         1 RES1    0.0000
     36 C16        2.1152   19.8137   23.1847 C.3       1 RES1    0.0000
     37 H21        1.6375   19.4907   23.9636 H         1 RES1    0.0000
     38 H22        2.8705   20.3376   23.4963 H         1 RES1    0.0000
     39 N1         3.1280   19.1000   21.0664 N.3       1 RES1    0.0000
     40 O1        -1.0969   22.0815   22.3662 O.2       1 RES1    0.0000
     41 O2         0.8787   21.8014   23.3079 O.3       1 RES1    0.0000
     42 O3         3.8615   18.2728   20.4084 O.2       1 RES1    0.0000
     43 C17        3.7627   24.2641   12.7840 C.ar      2 RES2    0.0000
     44 H23        4.6096   24.1353   12.4213 H         2 RES2    0.0000
     45 C18        3.4874   25.4099   13.5258 C.ar      2 RES2    0.0000
     46 H24        4.1533   26.0429   13.6653 H         2 RES2    0.0000
     47 C19        2.2415   25.6042   14.0489 C.ar      2 RES2    0.0000
     48 H25        2.0595   26.3747   14.5372 H         2 RES2    0.0000
     49 C20        1.2645   24.6766   13.8606 C.ar      2 RES2    0.0000
     50 H26        0.4163   24.8185   14.2140 H         2 RES2    0.0000
     51 C21        1.5268   23.5242   13.1444 C.ar      2 RES2    0.0000
     52 H27        0.8616   22.8847   13.0375 H         2 RES2    0.0000
     53 C22        2.7733   23.3212   12.5878 C.ar      2 RES2    0.0000
     54 C23        3.0154   22.0989   11.8028 C.2       2 RES2    0.0000
     55 C24        4.5632   20.8898   10.4309 C.3       2 RES2    0.0000
     56 H28        3.7694   20.4925   10.0170 H         2 RES2    0.0000
     57 C25        5.5051   21.4070    9.3869 C.3       2 RES2    0.0000
     58 H29        6.2481   21.8523    9.8240 H         2 RES2    0.0000
     59 H30        5.0434   22.0684    8.8474 H         2 RES2    0.0000
     60 C26        6.0514   20.3266    8.4731 C.3       2 RES2    0.0000
     61 C27        4.9822   19.8159    7.5058 C.3       2 RES2    0.0000
     62 H31        4.7452   20.5165    6.8919 H         2 RES2    0.0000
     63 H32        4.2044   19.5475    7.9987 H         2 RES2    0.0000
     64 H33        5.3255   19.0673    7.0152 H         2 RES2    0.0000
     65 C28        7.2494   20.8505    7.7127 C.3       2 RES2    0.0000
     66 H34        7.9513   21.0666    8.3312 H         2 RES2    0.0000
     67 H35        6.9982   21.6384    7.2244 H         2 RES2    0.0000
     68 H36        7.5583   20.1804    7.0989 H         2 RES2    0.0000
     69 C29        5.8442   18.6875   10.5402 C.3       2 RES2    0.0000
     70 C30        4.7479   17.6922   10.1542 C.3       2 RES2    0.0000
     71 H37        4.0228   18.1615    9.7380 H         2 RES2    0.0000
     72 H38        4.4290   17.2470   10.9424 H         2 RES2    0.0000
     73 H39        5.1051   17.0440    9.5427 H         2 RES2    0.0000
     74 C31        6.8914   17.9978   11.4028 C.3       2 RES2    0.0000
     75 H40        7.2744   17.2666   10.9145 H         2 RES2    0.0000
     76 H41        6.4793   17.6682   12.2027 H         2 RES2    0.0000
     77 H42        7.5807   18.6264   11.6307 H         2 RES2    0.0000
     78 C32        5.2753   19.8814   11.3052 C.3       2 RES2    0.0000
     79 H43        4.6533   19.5562   11.9748 H         2 RES2    0.0000
     80 H44        6.0002   20.3288   11.7702 H         2 RES2    0.0000
     81 N2         6.5328   19.1731    9.3060 N.3       2 RES2    0.0000
     82 O4         2.2565   21.1670   11.7516 O.2       2 RES2    0.0000
     83 O5         4.1973   22.0572   11.2389 O.3       2 RES2    0.0000
     84 O6         7.2696   18.3099    8.7007 O.2       2 RES2    0.0000
     85 C33        4.7822    0.3077   15.7603 C.ar      3 RES3    0.0000
     86 H45        3.9482    0.7181   15.7835 H         3 RES3    0.0000
     87 C34        5.0019   -0.7967   14.9488 C.ar      3 RES3    0.0000
     88 H46        4.3208   -1.1109   14.3977 H         3 RES3    0.0000
     89 C35        6.2222   -1.4296   14.9558 C.ar      3 RES3    0.0000
     90 H47        6.3530   -2.1935   14.4396 H         3 RES3    0.0000
     91 C36        7.2277   -0.9473   15.7068 C.ar      3 RES3    0.0000
     92 H48        8.0580   -1.3663   15.6952 H         3 RES3    0.0000
     93 C37        7.0323    0.1506   16.4881 C.ar      3 RES3    0.0000
     94 H49        7.7357    0.4780   16.9996 H         3 RES3    0.0000
     95 C38        5.8143    0.7857   16.5299 C.ar      3 RES3    0.0000
     96 C39        5.6410    1.9491   17.4461 C.2       3 RES3    0.0000
     97 C40        4.1473    3.5664   18.3157 C.3       3 RES3    0.0000
     98 H50        4.9644    4.0160   18.6156 H         3 RES3    0.0000
     99 C41        3.3669    3.0404   19.4899 C.3       3 RES3    0.0000
    100 H51        3.9263    2.4271   19.9898 H         3 RES3    0.0000
    101 H52        2.6015    2.5427   19.1621 H         3 RES3    0.0000
    102 C42        2.8751    4.1448   20.4270 C.3       3 RES3    0.0000
    103 C43        4.0153    4.7144   21.2594 C.3       3 RES3    0.0000
    104 H53        4.7456    4.9502   20.6828 H         3 RES3    0.0000
    105 H54        4.3088    4.0553   21.8942 H         3 RES3    0.0000
    106 H55        3.7118    5.4958   21.7268 H         3 RES3    0.0000
    107 C44        1.7913    3.5598   21.3315 C.3       3 RES3    0.0000
    108 H56        1.4575    4.2430   21.9175 H         3 RES3    0.0000
    109 H57        2.1619    2.8439   21.8547 H         3 RES3    0.0000
    110 H58        1.0728    3.2215   20.7920 H         3 RES3    0.0000
    111 C45        2.7849    5.6901   18.3180 C.3       3 RES3    0.0000
    112 C46        3.8918    6.7334   18.5645 C.3       3 RES3    0.0000
    113 H59        3.5682    7.4078   19.1667 H         3 RES3    0.0000
    114 H60        4.1390    7.1415   17.7321 H         3 RES3    0.0000
    115 H61        4.6584    6.3012   18.9505 H         3 RES3    0.0000
    116 C47        1.6410    6.3274   17.5437 C.3       3 RES3    0.0000
    117 H62        0.9142    5.7032   17.4763 H         3 RES3    0.0000
    118 H63        1.9434    6.5653   16.6648 H         3 RES3    0.0000
    119 H64        1.3429    7.1153   18.0041 H         3 RES3    0.0000
    120 C48        3.2979    4.4962   17.5112 C.3       3 RES3    0.0000
    121 H65        2.5394    4.0051   17.1577 H         3 RES3    0.0000
    122 H66        3.8147    4.8258   16.7578 H         3 RES3    0.0000
    123 N3         2.2586    5.2317   19.6218 N.3       3 RES3    0.0000
    124 O7         6.4664    2.2852   18.2180 O.2       3 RES3    0.0000
    125 O8         4.4666    2.4648   17.4296 O.3       3 RES3    0.0000
    126 O9         1.5614    6.0808   20.2782 O.2       3 RES3    0.0000
    127 C49        3.1803    0.1375    4.6644 C.ar      4 RES4    0.0000
    128 H67        2.3208    0.2794    4.9899 H         4 RES4    0.0000
    129 C50        3.4579   -0.9865    3.8924 C.ar      4 RES4    0.0000
    130 H68        2.7759   -1.5889    3.6994 H         4 RES4    0.0000
    131 C51        4.6982   -1.2179    3.4157 C.ar      4 RES4    0.0000
    132 H69        4.8713   -1.9796    2.9112 H         4 RES4    0.0000
    133 C52        5.6963   -0.3296    3.6785 C.ar      4 RES4    0.0000
    134 H70        6.5519   -0.4780    3.3460 H         4 RES4    0.0000
    135 C53        5.4371    0.7945    4.4388 C.ar      4 RES4    0.0000
    136 H71        6.1212    1.3991    4.6155 H         4 RES4    0.0000
    137 C54        4.1709    1.0280    4.9411 C.ar      4 RES4    0.0000
    138 C55        3.9298    2.2306    5.7758 C.2       4 RES4    0.0000
    139 C56        2.3742    3.5511    6.9966 C.3       4 RES4    0.0000
    140 H72        3.1768    3.9876    7.3500 H         4 RES4    0.0000
    141 C57        1.5161    3.0033    8.1127 C.3       4 RES4    0.0000
    142 H73        2.0399    2.3769    8.6358 H         4 RES4    0.0000
    143 H74        0.7696    2.5165    7.7290 H         4 RES4    0.0000
    144 C58        0.9791    4.0946    9.0358 C.3       4 RES4    0.0000
    145 C59        2.0657    4.6490    9.9635 C.3       4 RES4    0.0000
    146 H75        2.8170    4.9371    9.4404 H         4 RES4    0.0000
    147 H76        2.3452    3.9614   10.5751 H         4 RES4    0.0000
    148 H77        1.7148    5.3932   10.4588 H         4 RES4    0.0000
    149 C60       -0.1580    3.5031    9.8822 C.3       4 RES4    0.0000
    150 H78       -0.4838    4.1710   10.4914 H         4 RES4    0.0000
    151 H79        0.1711    2.7501   10.3797 H         4 RES4    0.0000
    152 H80       -0.8721    3.2193    9.3078 H         4 RES4    0.0000
    153 C61        0.9961    5.6704    6.9384 C.3       4 RES4    0.0000
    154 C62        2.0693    6.7050    7.2756 C.3       4 RES4    0.0000
    155 H81        1.7098    7.3532    7.8848 H         4 RES4    0.0000
    156 H82        2.3517    7.1459    6.4711 H         4 RES4    0.0000
    157 H83        2.8214    6.2663    7.6802 H         4 RES4    0.0000
    158 C63       -0.1106    6.3187    6.1223 C.3       4 RES4    0.0000
    159 H84       -0.8270    5.6922    5.9990 H         4 RES4    0.0000
    160 H85        0.2346    6.5828    5.2666 H         4 RES4    0.0000
    161 H86       -0.4391    7.0913    6.5873 H         4 RES4    0.0000
    162 C64        1.5816    4.4853    6.1618 C.3       4 RES4    0.0000
    163 H87        0.8545    3.9964    5.7479 H         4 RES4    0.0000
    164 H88        2.1475    4.8279    5.4526 H         4 RES4    0.0000
    165 N4         0.3938    5.1824    8.2089 N.3       4 RES4    0.0000
    166 O10        4.7380    2.9727    6.0595 O.2       4 RES4    0.0000
    167 O11        2.7276    2.3893    6.1709 O.3       4 RES4    0.0000
    168 O12       -0.3686    5.9934    8.8239 O.2       4 RES4    0.0000
@<TRIPOS>BOND
     1    1    2 1
     2    3    1 ar
     3    4    3 1
     4    5    3 ar
     5    6    5 1
     6    7    5 ar
     7    8    7 1
     8    9    7 ar
     9   10    9 1
    10   11    1 ar
    11   12   11 1
    12   13   14 1
    13   15   13 1
    14   16   15 1
    15   17   15 1
    16   18   15 1
    17   19   18 1
    18   20   19 1
    19   21   19 1
    20   22   19 1
    21   23   18 1
    22   24   23 1
    23   25   23 1
    24   26   23 1
    25   27   28 1
    26   28   29 1
    27   30   28 1
    28   31   28 1
    29   32   27 1
    30   33   32 1
    31   34   32 1
    32   35   32 1
    33   36   13 1
    34   37   36 1
    35   38   36 1
    36   39   18 1
    37   40   12 2
    38   41   12 1
    39   42   39 1
    40   43   44 1
    41   45   43 ar
    42   46   45 1
    43   47   45 ar
    44   48   47 1
    45   49   47 ar
    46   50   49 1
    47   51   49 ar
    48   52   51 1
    49   53   43 ar
    50   54   53 1
    51   55   56 1
    52   57   55 1
    53   58   57 1
    54   59   57 1
    55   60   57 1
    56   61   60 1
    57   62   61 1
    58   63   61 1
    59   64   61 1
    60   65   60 1
    61   66   65 1
    62   67   65 1
    63   68   65 1
    64   69   70 1
    65   70   71 1
    66   72   70 1
    67   73   70 1
    68   74   69 1
    69   75   74 1
    70   76   74 1
    71   77   74 1
    72   78   55 1
    73   79   78 1
    74   80   78 1
    75   81   60 1
    76   82   54 2
    77   83   54 1
    78   84   81 1
    79   85   86 1
    80   87   85 ar
    81   88   87 1
    82   89   87 ar
    83   90   89 1
    84   91   89 ar
    85   92   91 1
    86   93   91 ar
    87   94   93 1
    88   95   85 ar
    89   96   95 1
    90   97   98 1
    91   99   97 1
    92  100   99 1
    93  101   99 1
    94  102   99 1
    95  103  102 1
    96  104  103 1
    97  105  103 1
    98  106  103 1
    99  107  102 1
   100  108  107 1
   101  109  107 1
   102  110  107 1
   103  111  112 1
   104  112  113 1
   105  114  112 1
   106  115  112 1
   107  116  111 1
   108  117  116 1
   109  118  116 1
   110  119  116 1
   111  120   97 1
   112  121  120 1
   113  122  120 1
   114  123  102 1
   115  124   96 2
   116  125   96 1
   117  126  123 1
   118  127  128 1
   119  129  127 ar
   120  130  129 1
   121  131  129 ar
   122  132  131 1
   123  133  131 ar
   124  134  133 1
   125  135  133 ar
   126  136  135 1
   127  137  127 ar
   128  138  137 1
   129  139  140 1
   130  141  139 1
   131  142  141 1
   132  143  141 1
   133  144  141 1
   134  145  144 1
   135  146  145 1
   136  147  145 1
   137  148  145 1
   138  149  144 1
   139  150  149 1
   140  151  149 1
   141  152  149 1
   142  153  154 1
   143  154  155 1
   144  156  154 1
   145  157  154 1
   146  158  153 1
   147  159  158 1
   148  160  158 1
   149  161  158 1
   150  162  139 1
   151  163  162 1
   152  164  162 1
   153  165  144 1
   154  166  138 2
   155  167  138 1
   156  168  165 1
   157    9   11 ar
   158   13   41 1
   159   27   36 1
   160   27   39 1
   161   51   53 ar
   162   55   83 1
   163   69   78 1
   164   69   81 1
   165   93   95 ar
   166   97  125 1
   167  111  120 1
   168  111  123 1
   169  135  137 ar
   170  139  167 1
   171  153  162 1
   172  153  165 1
@<TRIPOS>SUBSTRUCTURE
     1 RES1 1
     2 RES2 43
     3 RES3 85
     4 RES4 127

@<TRIPOS>CRYSIN
   6.1278   21.8261   23.2860  90.0000  93.0910  90.0000   4 1

