# MOL2 file generated by ConQuest
# Please check atom types

@<TRIPOS>MOLECULE
WIFZOA
    58    64     2
SMALL
NO_CHARGES
****
Generated from CSD

@<TRIPOS>ATOM
      1 O1         5.0830   -0.6939    7.1422 O.2       1 RES1    0.0000
      2 O2         0.6147   -1.8060    7.0099 O.2       1 RES1    0.0000
      3 O3         6.3922    5.4520   -2.7762 O.2       2 RES2    0.0000
      4 O4         9.6614    2.8535   -0.8186 O.2       2 RES2    0.0000
      5 N1         1.2121    2.8427    1.7771 N.2       1 RES1    0.0000
      6 N2         3.9526   -1.2452    7.4124 N.pl3     1 RES1    0.0000
      7 N3         1.8592   -1.7979    7.3140 N.pl3     1 RES1    0.0000
      8 N4         4.3101    5.8050    3.7617 N.2       2 RES2    0.0000
      9 N5         7.3898    4.6654   -2.6179 N.pl3     2 RES2    0.0000
     10 N6         8.9405    3.4526   -1.6921 N.pl3     2 RES2    0.0000
     11 C1         0.8955    6.8590   -2.1883 C.ar      1 RES1    0.0000
     12 C2         0.4602    6.5419   -3.4364 C.ar      1 RES1    0.0000
     13 C3         0.0840    5.2281   -3.7193 C.ar      1 RES1    0.0000
     14 C4         0.1526    4.2535   -2.7665 C.ar      1 RES1    0.0000
     15 C5         0.6881    3.5774   -0.4508 C.ar      1 RES1    0.0000
     16 C6         1.1368    3.8979    0.8137 C.ar      1 RES1    0.0000
     17 C7         1.4603    5.2465    1.1226 C.ar      1 RES1    0.0000
     18 C8         1.3776    6.2051    0.1602 C.ar      1 RES1    0.0000
     19 C9         0.9670    5.8881   -1.1574 C.ar      1 RES1    0.0000
     20 C10        0.6022    4.5622   -1.4585 C.ar      1 RES1    0.0000
     21 C11        2.0803    2.9300    2.7086 C.2       1 RES1    0.0000
     22 C12        2.2368    1.8903    3.7183 C.ar      1 RES1    0.0000
     23 C13        1.5211    0.6985    3.6913 C.ar      1 RES1    0.0000
     24 C14        1.6742   -0.2368    4.6942 C.ar      1 RES1    0.0000
     25 C15        2.5892   -0.0084    5.7357 C.ar      1 RES1    0.0000
     26 C16        3.3176    1.1701    5.7483 C.ar      1 RES1    0.0000
     27 C17        3.1367    2.1138    4.7492 C.ar      1 RES1    0.0000
     28 C18        2.7935   -0.9902    6.7898 C.2       1 RES1    0.0000
     29 C19        2.4310   -2.8236    8.2600 C.3       1 RES1    0.0000
     30 C20        3.8129   -2.1909    8.5689 C.3       1 RES1    0.0000
     31 C21        2.4844   -4.1308    7.4984 C.3       1 RES1    0.0000
     32 C22        1.5085   -2.9878    9.4502 C.3       1 RES1    0.0000
     33 C23        4.9958   -3.1254    8.5901 C.3       1 RES1    0.0000
     34 C24        3.8483   -1.3141    9.8150 C.3       1 RES1    0.0000
     35 C25        4.2308    5.4412    8.6847 C.ar      2 RES2    0.0000
     36 C26        3.7579    5.8746    9.8990 C.ar      2 RES2    0.0000
     37 C27        2.8296    6.9086    9.9463 C.ar      2 RES2    0.0000
     38 C28        2.3896    7.5072    8.8160 C.ar      2 RES2    0.0000
     39 C29        2.4370    7.6715    6.3361 C.ar      2 RES2    0.0000
     40 C30        2.9002    7.2347    5.1170 C.ar      2 RES2    0.0000
     41 C31        3.8653    6.2141    5.0658 C.ar      2 RES2    0.0000
     42 C32        4.2873    5.5990    6.2174 C.ar      2 RES2    0.0000
     43 C33        3.7972    6.0333    7.4858 C.ar      2 RES2    0.0000
     44 C34        2.8635    7.0834    7.5428 C.ar      2 RES2    0.0000
     45 C35        5.5206    5.4878    3.6131 C.2       2 RES2    0.0000
     46 C36        6.0845    5.0652    2.3186 C.ar      2 RES2    0.0000
     47 C37        5.2961    4.9809    1.1805 C.ar      2 RES2    0.0000
     48 C38        5.8597    4.6699   -0.0386 C.ar      2 RES2    0.0000
     49 C39        7.2231    4.4275   -0.1419 C.ar      2 RES2    0.0000
     50 C40        8.0058    4.4694    0.9981 C.ar      2 RES2    0.0000
     51 C41        7.4381    4.7855    2.2211 C.ar      2 RES2    0.0000
     52 C42        7.8386    4.1685   -1.4441 C.2       2 RES2    0.0000
     53 C43        8.3217    4.3672   -3.7521 C.3       2 RES2    0.0000
     54 C44        9.1832    3.2513   -3.1623 C.3       2 RES2    0.0000
     55 C45        9.0707    5.6697   -4.0146 C.3       2 RES2    0.0000
     56 C46        7.4799    3.9721   -4.9703 C.3       2 RES2    0.0000
     57 C47       10.6773    3.3480   -3.4171 C.3       2 RES2    0.0000
     58 C48        8.7136    1.8224   -3.4731 C.3       2 RES2    0.0000
@<TRIPOS>BOND
     1    1    6 un
     2    2    7 un
     3    3    9 un
     4    4   10 un
     5    5   16 1
     6    6   28 un
     7    7   28 un
     8    8   41 1
     9    9   52 un
    10   10   52 un
    11   11   12 ar
    12   12   13 ar
    13   13   14 ar
    14   14   20 ar
    15   15   16 ar
    16   16   17 ar
    17   17   18 ar
    18   18   19 ar
    19   19   11 ar
    20   20   15 ar
    21   21    5 2
    22   22   21 1
    23   23   22 ar
    24   24   23 ar
    25   25   24 ar
    26   26   25 ar
    27   27   22 ar
    28   28   25 1
    29   29    7 1
    30   30    6 1
    31   31   29 1
    32   32   29 1
    33   33   30 1
    34   34   30 1
    35   35   36 ar
    36   36   37 ar
    37   37   38 ar
    38   38   44 ar
    39   39   40 ar
    40   40   41 ar
    41   41   42 ar
    42   42   43 ar
    43   43   35 ar
    44   44   39 ar
    45   45    8 2
    46   46   45 1
    47   47   46 ar
    48   48   47 ar
    49   49   48 ar
    50   50   49 ar
    51   51   46 ar
    52   52   49 1
    53   53    9 1
    54   54   10 1
    55   55   53 1
    56   56   53 1
    57   57   54 1
    58   58   54 1
    59   19   20 ar
    60   26   27 ar
    61   29   30 1
    62   43   44 ar
    63   50   51 ar
    64   53   54 1
@<TRIPOS>SUBSTRUCTURE
     1 RES1 1
     2 RES2 3

@<TRIPOS>CRYSIN
  13.9420   15.5400   10.0070 105.1600  92.4200  88.1200   2 1

