# MOL2 file generated by ConQuest
# Please check atom types

@<TRIPOS>MOLECULE
WIGBIY
    43    45     1
SMALL
NO_CHARGES
****
Generated from CSD

@<TRIPOS>ATOM
      1 O1         7.8837    3.4289    4.1486 O.3       1 RES1    0.0000
      2 N1         8.7938    4.0825    3.1954 N.3       1 RES1    0.0000
      3 C1        10.1035    4.0008    3.8298 C.3       1 RES1    0.0000
      4 H1        10.0559    4.3894    4.7288 H         1 RES1    0.0000
      5 H2        10.7575    4.4972    3.2944 H         1 RES1    0.0000
      6 H3        10.3784    3.0622    3.8930 H         1 RES1    0.0000
      7 C2         8.2442    5.4544    3.1638 C.3       1 RES1    0.0000
      8 H4         8.4540    5.9219    4.0216 H         1 RES1    0.0000
      9 C3         8.7953    6.2522    1.9961 C.ar      1 RES1    0.0000
     10 C4         9.0853    7.5931    2.1394 C.ar      1 RES1    0.0000
     11 H5         8.9533    8.0161    2.9804 H         1 RES1    0.0000
     12 C5         9.5678    8.3312    1.0655 C.ar      1 RES1    0.0000
     13 H6         9.7823    9.2499    1.1782 H         1 RES1    0.0000
     14 C6         9.7359    7.7256   -0.1707 C.ar      1 RES1    0.0000
     15 H7        10.0617    8.2289   -0.9084 H         1 RES1    0.0000
     16 C7         9.4269    6.3916   -0.3246 C.ar      1 RES1    0.0000
     17 H8         9.5389    5.9803   -1.1740 H         1 RES1    0.0000
     18 C8         8.9528    5.6349    0.7504 C.ar      1 RES1    0.0000
     19 H9         8.7421    4.7163    0.6365 H         1 RES1    0.0000
     20 C9         6.7327    5.1934    3.0678 C.3       1 RES1    0.0000
     21 H10        6.4266    5.2161    2.1267 H         1 RES1    0.0000
     22 H11        6.2229    5.8643    3.5885 H         1 RES1    0.0000
     23 C10        6.5651    3.7715    3.6749 C.3       1 RES1    0.0000
     24 C11        6.1897    2.6606    2.6885 C.2       1 RES1    0.0000
     25 O2         5.7590    1.6005    3.0323 O.2       1 RES1    0.0000
     26 O3         6.4894    2.9702    1.4203 O.3       1 RES1    0.0000
     27 C12        6.1808    1.9376    0.4490 C.3       1 RES1    0.0000
     28 H12        6.5807    1.0903    0.7346 H         1 RES1    0.0000
     29 H13        6.5434    2.1923   -0.4247 H         1 RES1    0.0000
     30 H14        5.2084    1.8332    0.3805 H         1 RES1    0.0000
     31 C13        5.6404    3.7406    4.9006 C.ar      1 RES1    0.0000
     32 C14        4.2375    3.7887    4.8742 C.ar      1 RES1    0.0000
     33 N2         3.4853    3.8662    3.6053 N.pl3     1 RES1    0.0000
     34 O4         4.1054    4.1484    2.5843 O.2       1 RES1    0.0000
     35 O5         2.2784    3.6987    3.6285 O.2       1 RES1    0.0000
     36 C15        3.4585    3.7907    6.0187 C.ar      1 RES1    0.0000
     37 H15        2.5116    3.8175    5.9534 H         1 RES1    0.0000
     38 C16        4.0733    3.7523    7.2612 C.ar      1 RES1    0.0000
     39 H16        3.5519    3.7660    8.0548 H         1 RES1    0.0000
     40 C17        5.4537    3.6946    7.3319 C.ar      1 RES1    0.0000
     41 H17        5.8833    3.6527    8.1781 H         1 RES1    0.0000
     42 C18        6.2139    3.6987    6.1705 C.ar      1 RES1    0.0000
     43 H18        7.1607    3.6713    6.2442 H         1 RES1    0.0000
@<TRIPOS>BOND
     1    1    2 1
     2    2    3 1
     3    3    4 1
     4    5    3 1
     5    6    3 1
     6    7    2 1
     7    8    7 1
     8    9    7 1
     9   10    9 ar
    10   11   10 1
    11   12   10 ar
    12   13   12 1
    13   14   12 ar
    14   15   14 1
    15   16   14 ar
    16   17   16 1
    17   18    9 ar
    18   19   18 1
    19   20    7 1
    20   21   20 1
    21   22   20 1
    22   23    1 1
    23   24   23 1
    24   25   24 2
    25   26   24 1
    26   27   26 1
    27   28   27 1
    28   29   27 1
    29   30   27 1
    30   31   23 1
    31   32   31 ar
    32   33   32 1
    33   34   33 2
    34   35   33 2
    35   36   32 ar
    36   37   36 1
    37   38   36 ar
    38   39   38 1
    39   40   38 ar
    40   41   40 1
    41   42   31 ar
    42   43   42 1
    43   16   18 ar
    44   20   23 1
    45   40   42 ar
@<TRIPOS>SUBSTRUCTURE
     1 RES1 1

@<TRIPOS>CRYSIN
  11.1410    6.8660   11.3900  90.0000 112.2910  90.0000   4 1

