# MOL2 file generated by ConQuest
# Please check atom types

@<TRIPOS>MOLECULE
WIGCOF
    59    58     2
SMALL
NO_CHARGES
****
Generated from CSD

@<TRIPOS>ATOM
      1 O1         8.9711    6.7547    0.4864 O.3       1 RES1    0.0000
      2 O2        10.3814    6.3465   -1.1685 Du        2 SUP2    0.0000
      3 O3         9.9793    6.9552   -1.4505 O.2       1 RES1    0.0000
      4 O4        13.0869   11.2769    3.4088 O.2       1 RES1    0.0000
      5 O5        12.7614   11.8385    2.8386 Du        2 SUP2    0.0000
      6 O6        14.3129   11.3476    1.6604 O.2       1 RES1    0.0000
      7 O7         3.8136    4.3670    2.8655 O.3       1 RES1    0.0000
      8 O8         9.8942    0.8068    3.8071 O.2       1 RES1    0.0000
      9 O9         9.9103   -0.1882    1.9063 O.2       1 RES1    0.0000
     10 N1        13.2992   11.0252    2.1895 N.pl3     1 RES1    0.0000
     11 N2         9.7494    0.7989    2.6013 N.pl3     1 RES1    0.0000
     12 C1         8.1004    5.6527    0.0734 C.3       1 RES1    0.0000
     13 H1         8.1262    5.5582   -0.9018 H         1 RES1    0.0000
     14 C2         9.9769    7.0999   -0.2576 C.2       1 RES1    0.0000
     15 C3        10.8390    8.1227    0.3995 C.ar      1 RES1    0.0000
     16 C4        10.5721    8.5819    1.6536 C.ar      1 RES1    0.0000
     17 H2         9.8358    8.2552    2.1173 H         1 RES1    0.0000
     18 C5        11.3857    9.5285    2.2415 C.ar      1 RES1    0.0000
     19 H3        11.2065    9.8375    3.1005 H         1 RES1    0.0000
     20 C6        12.4536   10.0043    1.5484 C.ar      1 RES1    0.0000
     21 C7        12.7642    9.5454    0.3334 C.ar      1 RES1    0.0000
     22 H4        13.5143    9.8618   -0.1150 H         1 RES1    0.0000
     23 C8        11.9489    8.5902   -0.2465 C.ar      1 RES1    0.0000
     24 H5        12.1601    8.2609   -1.0902 H         1 RES1    0.0000
     25 C9         6.7037    6.0524    0.5121 C.3       1 RES1    0.0000
     26 H6         6.6729    6.1001    1.4805 H         1 RES1    0.0000
     27 H7         6.4970    6.9328    0.1615 H         1 RES1    0.0000
     28 C10        5.6734    5.0705    0.0300 C.2       1 RES1    0.0000
     29 H8         5.5160    5.0696   -0.8865 H         1 RES1    0.0000
     30 C11        4.9621    4.2078    0.7372 C.2       1 RES1    0.0000
     31 H9         4.2601    4.8799    0.8559 Du        2 SUP2    0.0000
     32 C12        5.0536    4.0353    2.2244 C.3       1 RES1    0.0000
     33 H10        5.7654    4.6101    2.5762 H         1 RES1    0.0000
     34 C13        5.3547    2.5907    2.5725 C.3       1 RES1    0.0000
     35 H11        5.3281    2.4818    3.5361 H         1 RES1    0.0000
     36 H12        6.2490    2.3687    2.2721 H         1 RES1    0.0000
     37 C14        4.3597    1.6348    1.9326 C.3       1 RES1    0.0000
     38 H13        4.6255    0.7204    2.1216 H         1 RES1    0.0000
     39 H14        3.4820    1.7775    2.3198 H         1 RES1    0.0000
     40 C15        4.2858    1.8351    0.4386 C.3       1 RES1    0.0000
     41 H15        3.6010    1.2567    0.0697 H         1 RES1    0.0000
     42 H16        5.1342    1.5880    0.0379 H         1 RES1    0.0000
     43 C16        3.9663    3.2762    0.0918 C.3       1 RES1    0.0000
     44 H17        3.9912    3.3924   -0.8712 H         1 RES1    0.0000
     45 H18        3.0720    3.4931    0.3989 H         1 RES1    0.0000
     46 C17        3.4457    5.7080    2.7175 C.3       1 RES1    0.0000
     47 H19        4.1685    6.2715    3.0044 H         1 RES1    0.0000
     48 H20        2.6686    5.8870    3.2516 H         1 RES1    0.0000
     49 H21        3.2481    5.8849    1.7949 H         1 RES1    0.0000
     50 C18        8.5858    4.3865    0.7194 C.ar      1 RES1    0.0000
     51 C19        8.9416    4.3751    2.0623 C.ar      1 RES1    0.0000
     52 H22        8.9103    5.1660    2.5511 H         1 RES1    0.0000
     53 C20        9.3354    3.2175    2.6759 C.ar      1 RES1    0.0000
     54 H23        9.5836    3.2174    3.5721 H         1 RES1    0.0000
     55 C21        9.3587    2.0535    1.9393 C.ar      1 RES1    0.0000
     56 C22        9.0211    2.0314    0.6130 C.ar      1 RES1    0.0000
     57 H24        9.0549    1.2381    0.1291 H         1 RES1    0.0000
     58 C23        8.6312    3.2024    0.0098 C.ar      1 RES1    0.0000
     59 H25        8.3945    3.1987   -0.8895 H         1 RES1    0.0000
@<TRIPOS>BOND
     1    1   12 1
     2    3   14 2
     3    4   10 2
     4    6   10 2
     5    7   32 1
     6    8   11 2
     7    9   11 2
     8   10   20 1
     9   11   55 1
    10   12   13 1
    11   14    1 1
    12   15   14 1
    13   16   15 ar
    14   17   16 1
    15   18   16 ar
    16   19   18 1
    17   20   18 ar
    18   21   20 ar
    19   22   21 1
    20   23   15 ar
    21   24   23 1
    22   25   12 1
    23   26   25 1
    24   27   25 1
    25   28   25 1
    26   29   28 1
    27   30   28 2
    28   32   30 1
    29   33   32 1
    30   34   32 1
    31   35   34 1
    32   36   34 1
    33   37   34 1
    34   38   37 1
    35   39   37 1
    36   40   37 1
    37   41   40 1
    38   42   40 1
    39   43   30 1
    40   44   43 1
    41   45   43 1
    42   46    7 1
    43   47   46 1
    44   48   46 1
    45   49   46 1
    46   50   12 1
    47   51   50 ar
    48   52   51 1
    49   53   51 ar
    50   54   53 1
    51   55   53 ar
    52   56   55 ar
    53   57   56 1
    54   58   50 ar
    55   59   58 1
    56   21   23 ar
    57   40   43 1
    58   56   58 ar
@<TRIPOS>SUBSTRUCTURE
     1 RES1 1
     2 SUP2 2

@<TRIPOS>CRYSIN
   8.8687   20.4690    6.2009  93.5820  99.1090  81.5890   2 1

