# MOL2 file generated by ConQuest
# Please check atom types

@<TRIPOS>MOLECULE
WIGJAY01
    64    66     2
SMALL
NO_CHARGES
****
Generated from CSD

@<TRIPOS>ATOM
      1 O1         7.5511   10.6159    4.2592 O.2       1 RES1    0.0000
      2 O2         6.2801   12.1571    5.0949 O.2       1 RES1    0.0000
      3 O3         3.2772    5.3940    5.5272 O.2       1 RES1    0.0000
      4 O4         2.1851    7.1128    6.4972 O.3       1 RES1    0.0000
      5 O5        -0.7193    6.4186    3.5649 O.2       1 RES1    0.0000
      6 O6        -0.1633    5.5693    5.5837 O.3       1 RES1    0.0000
      7 O7        -5.1425    6.2791   13.4741 O.2       2 RES2    0.0000
      8 O8        -3.8205    7.9693   13.7812 O.2       2 RES2    0.0000
      9 O9        -0.6035    3.8593    8.9350 O.2       2 RES2    0.0000
     10 O10        0.4590    5.5967    9.8990 O.3       2 RES2    0.0000
     11 O11        3.0846    2.5271   11.2227 O.2       2 RES2    0.0000
     12 O12        2.8754    4.0070    9.5289 O.3       2 RES2    0.0000
     13 N1         2.1090    6.4953    2.9834 N.3       1 RES1    0.0000
     14 N2         6.4476   11.0545    4.5794 N.pl3     1 RES1    0.0000
     15 N3         0.2277    2.3389   11.3414 N.3       2 RES2    0.0000
     16 N4        -4.0242    6.7894   13.5069 N.pl3     2 RES2    0.0000
     17 C1         1.8415    7.8273    3.5146 C.3       1 RES1    0.0000
     18 C2         1.5411    6.5872    4.3243 C.3       1 RES1    0.0000
     19 C3         3.0461    8.6533    3.8243 C.ar      1 RES1    0.0000
     20 C4         4.3285    8.1720    3.5296 C.ar      1 RES1    0.0000
     21 C5         2.8958    9.9192    4.4076 C.ar      1 RES1    0.0000
     22 C6         4.0100   10.7091    4.6776 C.ar      1 RES1    0.0000
     23 C7         5.4522    8.9598    3.7716 C.ar      1 RES1    0.0000
     24 C8         5.2673   10.2169    4.3332 C.ar      1 RES1    0.0000
     25 C9         2.4420    6.2624    5.4935 C.2       1 RES1    0.0000
     26 C10        2.9586    6.9156    7.7023 C.3       1 RES1    0.0000
     27 C11        0.0912    6.1977    4.4426 C.2       1 RES1    0.0000
     28 C12       -1.5245    5.0878    5.7444 C.3       1 RES1    0.0000
     29 C13        0.4781    3.5078   12.1825 C.3       2 RES2    0.0000
     30 C14        0.9470    3.4667   10.7485 C.3       2 RES2    0.0000
     31 C15       -0.6992    4.3516   12.5487 C.ar      2 RES2    0.0000
     32 C16       -1.9917    3.8236   12.5001 C.ar      2 RES2    0.0000
     33 C17       -0.5000    5.6900   12.9229 C.ar      2 RES2    0.0000
     34 C18       -1.5872    6.5056   13.2336 C.ar      2 RES2    0.0000
     35 C19       -3.0878    4.6174   12.8410 C.ar      2 RES2    0.0000
     36 C20       -2.8631    5.9417   13.1937 C.ar      2 RES2    0.0000
     37 C21        0.1814    4.2979    9.7414 C.2       2 RES2    0.0000
     38 C22       -0.2835    6.4850    9.0283 C.3       2 RES2    0.0000
     39 C23        2.4220    3.2753   10.5333 C.2       2 RES2    0.0000
     40 C24        4.3018    3.9250    9.2388 C.3       2 RES2    0.0000
     41 H1         0.9545    8.3749    3.1663 H         1 RES1    0.0000
     42 H2         4.4438    7.1894    3.0889 H         1 RES1    0.0000
     43 H3         1.9059   10.2680    4.6748 H         1 RES1    0.0000
     44 H4         3.9331   11.6836    5.1439 H         1 RES1    0.0000
     45 H5         6.4437    8.6010    3.5248 H         1 RES1    0.0000
     46 H6         4.0093    6.8999    7.5227 H         1 RES1    0.0000
     47 H7         2.6466    5.9957    8.1411 H         1 RES1    0.0000
     48 H8         2.7229    7.7494    8.3233 H         1 RES1    0.0000
     49 H9        -1.5570    4.6427    6.7126 H         1 RES1    0.0000
     50 H10       -2.2013    5.9101    5.6990 H         1 RES1    0.0000
     51 H11       -1.7507    4.3903    4.9705 H         1 RES1    0.0000
     52 H12        1.3970    6.1725    2.3453 H         1 RES1    0.0000
     53 H13        1.2863    3.4396   12.9242 H         2 RES2    0.0000
     54 H14       -2.1092    2.7923   12.1914 H         2 RES2    0.0000
     55 H15        0.4860    6.1369   12.9544 H         2 RES2    0.0000
     56 H16       -1.4692    7.5512   13.4899 H         2 RES2    0.0000
     57 H17       -4.0930    4.2155   12.8112 H         2 RES2    0.0000
     58 H18       -1.3334    6.3903    9.1870 H         2 RES2    0.0000
     59 H19        0.0775    7.4620    9.2552 H         2 RES2    0.0000
     60 H20       -0.0886    6.3068    7.9955 H         2 RES2    0.0000
     61 H21        4.6830    2.9438    9.4074 H         2 RES2    0.0000
     62 H22        4.8042    4.6522    9.8348 H         2 RES2    0.0000
     63 H23        4.3608    4.1569    8.1999 H         2 RES2    0.0000
     64 H24        0.8915    1.6231   11.5973 H         2 RES2    0.0000
@<TRIPOS>BOND
     1    1   14 2
     2    2   14 2
     3    3   25 2
     4    4   25 1
     5    5   27 2
     6    6   27 1
     7    7   16 2
     8    8   16 2
     9    9   37 2
    10   10   37 1
    11   11   39 2
    12   12   39 1
    13   13   17 1
    14   14   24 1
    15   15   29 1
    16   16   36 1
    17   17   18 1
    18   18   13 1
    19   19   17 1
    20   20   19 ar
    21   21   19 ar
    22   22   21 ar
    23   23   20 ar
    24   24   22 ar
    25   25   18 1
    26   26    4 1
    27   27   18 1
    28   28    6 1
    29   29   30 1
    30   30   15 1
    31   31   29 1
    32   32   31 ar
    33   33   31 ar
    34   34   33 ar
    35   35   32 ar
    36   36   34 ar
    37   37   30 1
    38   38   10 1
    39   39   30 1
    40   40   12 1
    41   41   17 1
    42   42   20 1
    43   43   21 1
    44   44   22 1
    45   45   23 1
    46   46   26 1
    47   47   26 1
    48   48   26 1
    49   49   28 1
    50   50   28 1
    51   51   28 1
    52   52   13 1
    53   53   29 1
    54   54   32 1
    55   55   33 1
    56   56   34 1
    57   57   35 1
    58   58   38 1
    59   59   38 1
    60   60   38 1
    61   61   40 1
    62   62   40 1
    63   63   40 1
    64   64   15 1
    65   23   24 ar
    66   35   36 ar
@<TRIPOS>SUBSTRUCTURE
     1 RES1 1
     2 RES2 7

@<TRIPOS>CRYSIN
   8.0274   13.3330   13.6740 105.9700 106.0500 107.1400   2 1

