# MOL2 file generated by ConQuest
# Please check atom types

@<TRIPOS>MOLECULE
WIGJAY
    64    66     2
SMALL
NO_CHARGES
****
Generated from CSD

@<TRIPOS>ATOM
      1 O1         7.5327   10.5927    4.2463 O.2       1 RES1    0.0000
      2 O2         6.2604   12.1362    5.0820 O.2       1 RES1    0.0000
      3 O3         3.2629    5.3796    5.5182 O.2       1 RES1    0.0000
      4 O4         2.1685    7.0982    6.4840 O.3       1 RES1    0.0000
      5 O5        -0.7276    6.4004    3.5543 O.2       1 RES1    0.0000
      6 O6        -0.1737    5.5551    5.5712 O.3       1 RES1    0.0000
      7 O7        -5.1580    6.2620   13.4418 O.2       2 RES2    0.0000
      8 O8        -3.8351    7.9538   13.7465 O.2       2 RES2    0.0000
      9 O9        -0.6205    3.8484    8.9114 O.2       2 RES2    0.0000
     10 O10        0.4423    5.5829    9.8733 O.3       2 RES2    0.0000
     11 O11        3.0633    2.5123   11.1938 O.2       2 RES2    0.0000
     12 O12        2.8545    3.9969    9.5044 O.3       2 RES2    0.0000
     13 N1         2.0985    6.4795    2.9769 N.3       1 RES1    0.0000
     14 N2         6.4288   11.0335    4.5681 N.pl3     1 RES1    0.0000
     15 N3         0.2087    2.3275   11.3129 N.3       2 RES2    0.0000
     16 N4        -4.0400    6.7722   13.4739 N.pl3     2 RES2    0.0000
     17 C1         1.8317    7.8093    3.5060 C.3       1 RES1    0.0000
     18 C2         1.5297    6.5709    4.3154 C.3       1 RES1    0.0000
     19 C3         3.0335    8.6354    3.8153 C.ar      1 RES1    0.0000
     20 C4         4.3151    8.1529    3.5205 C.ar      1 RES1    0.0000
     21 C5         2.8823    9.9002    4.3978 C.ar      1 RES1    0.0000
     22 C6         3.9935   10.6883    4.6670 C.ar      1 RES1    0.0000
     23 C7         5.4367    8.9398    3.7610 C.ar      1 RES1    0.0000
     24 C8         5.2517   10.1955    4.3211 C.ar      1 RES1    0.0000
     25 C9         2.4262    6.2490    5.4817 C.2       1 RES1    0.0000
     26 C10        2.9394    6.9028    7.6875 C.3       1 RES1    0.0000
     27 C11        0.0810    6.1833    4.4326 C.2       1 RES1    0.0000
     28 C12       -1.5336    5.0736    5.7300 C.3       1 RES1    0.0000
     29 C13        0.4593    3.4958   12.1534 C.3       2 RES2    0.0000
     30 C14        0.9269    3.4564   10.7207 C.3       2 RES2    0.0000
     31 C15       -0.7170    4.3378   12.5189 C.ar      2 RES2    0.0000
     32 C16       -2.0096    3.8102   12.4704 C.ar      2 RES2    0.0000
     33 C17       -0.5212    5.6771   12.8911 C.ar      2 RES2    0.0000
     34 C18       -1.6049    6.4894   13.2002 C.ar      2 RES2    0.0000
     35 C19       -3.1034    4.6029   12.8105 C.ar      2 RES2    0.0000
     36 C20       -2.8816    5.9270   13.1620 C.ar      2 RES2    0.0000
     37 C21        0.1643    4.2866    9.7168 C.2       2 RES2    0.0000
     38 C22       -0.2981    6.4713    9.0048 C.3       2 RES2    0.0000
     39 C23        2.4013    3.2638   10.5068 C.2       2 RES2    0.0000
     40 C24        4.2792    3.9131    9.2144 C.3       2 RES2    0.0000
     41 H1         0.9378    8.3478    3.1615 H         1 RES1    0.0000
     42 H2         4.4375    7.1785    3.0640 H         1 RES1    0.0000
     43 H3         1.8974   10.2762    4.6453 H         1 RES1    0.0000
     44 H4         3.8738   11.6607    5.1285 H         1 RES1    0.0000
     45 H5         6.4301    8.5791    3.5243 H         1 RES1    0.0000
     46 H6         3.9823    6.8972    7.4672 H         1 RES1    0.0000
     47 H7         2.6424    6.0047    8.1791 H         1 RES1    0.0000
     48 H8         2.6811    7.7368    8.2992 H         1 RES1    0.0000
     49 H9        -1.5411    4.6162    6.6927 H         1 RES1    0.0000
     50 H10       -2.2223    5.8857    5.6807 H         1 RES1    0.0000
     51 H11       -1.7538    4.3655    4.9642 H         1 RES1    0.0000
     52 H12        1.3687    6.1663    2.3547 H         1 RES1    0.0000
     53 H13        1.2643    3.4248   12.8982 H         2 RES2    0.0000
     54 H14       -2.1502    2.7787   12.1719 H         2 RES2    0.0000
     55 H15        0.4794    6.0909   12.9080 H         2 RES2    0.0000
     56 H16       -1.4718    7.5329   13.4576 H         2 RES2    0.0000
     57 H17       -4.1030    4.1873   12.7804 H         2 RES2    0.0000
     58 H18       -1.3448    6.3457    9.1625 H         2 RES2    0.0000
     59 H19        0.0188    7.4474    9.2931 H         2 RES2    0.0000
     60 H20       -0.0461    6.2868    7.9854 H         2 RES2    0.0000
     61 H21        4.6382    2.9173    9.3396 H         2 RES2    0.0000
     62 H22        4.7989    4.5871    9.8560 H         2 RES2    0.0000
     63 H23        4.3761    4.2191    8.1979 H         2 RES2    0.0000
     64 H24        0.8940    1.6220   11.5374 H         2 RES2    0.0000
@<TRIPOS>BOND
     1    1   14 2
     2    2   14 2
     3    3   25 2
     4    4   25 1
     5    5   27 2
     6    6   27 1
     7    7   16 2
     8    8   16 2
     9    9   37 2
    10   10   37 1
    11   11   39 2
    12   12   39 1
    13   13   17 1
    14   14   24 1
    15   15   29 1
    16   16   36 1
    17   17   18 1
    18   18   13 1
    19   19   17 1
    20   20   19 ar
    21   21   19 ar
    22   22   21 ar
    23   23   20 ar
    24   24   22 ar
    25   25   18 1
    26   26    4 1
    27   27   18 1
    28   28    6 1
    29   29   30 1
    30   30   15 1
    31   31   29 1
    32   32   31 ar
    33   33   31 ar
    34   34   33 ar
    35   35   32 ar
    36   36   34 ar
    37   37   30 1
    38   38   10 1
    39   39   30 1
    40   40   12 1
    41   41   17 1
    42   42   20 1
    43   43   21 1
    44   44   22 1
    45   45   23 1
    46   46   26 1
    47   47   26 1
    48   48   26 1
    49   49   28 1
    50   50   28 1
    51   51   28 1
    52   52   13 1
    53   53   29 1
    54   54   32 1
    55   55   33 1
    56   56   34 1
    57   57   35 1
    58   58   38 1
    59   59   38 1
    60   60   38 1
    61   61   40 1
    62   62   40 1
    63   63   40 1
    64   64   15 1
    65   23   24 ar
    66   35   36 ar
@<TRIPOS>SUBSTRUCTURE
     1 RES1 1
     2 RES2 7

@<TRIPOS>CRYSIN
   8.0130   13.3120   13.6520 105.9840 106.1370 107.1370   2 1

