# MOL2 file generated by ConQuest
# Please check atom types

@<TRIPOS>MOLECULE
WIGMUW
    32    34     1
SMALL
NO_CHARGES
****
Generated from CSD

@<TRIPOS>ATOM
      1 C1         5.1717    0.2408    4.0539 C.ar      1 RES1    0.0000
      2 H1         4.6624    0.5094    4.7841 H         1 RES1    0.0000
      3 C2         5.5537   -1.0798    3.9335 C.ar      1 RES1    0.0000
      4 H2         5.2832   -1.6997    4.5723 H         1 RES1    0.0000
      5 C3         6.3319   -1.4843    2.8734 C.ar      1 RES1    0.0000
      6 H3         6.5914   -2.3752    2.7995 H         1 RES1    0.0000
      7 C4         6.7234   -0.5758    1.9274 C.ar      1 RES1    0.0000
      8 H4         7.2589   -0.8471    1.2175 H         1 RES1    0.0000
      9 C5         6.3225    0.7562    2.0240 C.ar      1 RES1    0.0000
     10 H5         6.5779    1.3674    1.3714 H         1 RES1    0.0000
     11 C6         5.5438    1.1713    3.0924 C.ar      1 RES1    0.0000
     12 C7         5.1187    2.5833    3.2140 C.2       1 RES1    0.0000
     13 C8         4.6015    3.2681    4.3170 C.2       1 RES1    0.0000
     14 H6         4.4227    2.9255    5.1629 H         1 RES1    0.0000
     15 C9         4.4156    4.5481    3.8863 C.2       1 RES1    0.0000
     16 C10        3.9393    5.7646    4.5580 C.ar      1 RES1    0.0000
     17 C11        3.2712    5.6733    5.7654 C.ar      1 RES1    0.0000
     18 H7         3.1051    4.8404    6.1465 H         1 RES1    0.0000
     19 C12        2.8520    6.8283    6.4024 C.ar      1 RES1    0.0000
     20 H8         2.4020    6.7689    7.2137 H         1 RES1    0.0000
     21 C13        3.0972    8.0657    5.8417 C.ar      1 RES1    0.0000
     22 H9         2.8029    8.8363    6.2718 H         1 RES1    0.0000
     23 C14        3.7773    8.1613    4.6439 C.ar      1 RES1    0.0000
     24 C15        4.1878    7.0165    3.9842 C.ar      1 RES1    0.0000
     25 H10        4.6252    7.0794    3.1657 H         1 RES1    0.0000
     26 C16        4.6956    9.6001    2.9731 C.3       1 RES1    0.0000
     27 H11        4.2202    9.1441    2.2745 H         1 RES1    0.0000
     28 H12        5.5790    9.2340    3.0512 H         1 RES1    0.0000
     29 H13        4.7541   10.5360    2.7625 H         1 RES1    0.0000
     30 N1         5.2358    3.3785    2.1779 N.2       1 RES1    0.0000
     31 O1         4.7728    4.6464    2.6080 O.3       1 RES1    0.0000
     32 O2         4.0067    9.4356    4.1959 O.3       1 RES1    0.0000
@<TRIPOS>BOND
     1    1    2 1
     2    3    1 ar
     3    4    3 1
     4    5    3 ar
     5    6    5 1
     6    7    5 ar
     7    8    7 1
     8    9    7 ar
     9   10    9 1
    10   11    1 ar
    11   12   11 1
    12   13   12 1
    13   14   13 1
    14   15   13 2
    15   16   15 1
    16   17   16 ar
    17   18   17 1
    18   19   17 ar
    19   20   19 1
    20   21   19 ar
    21   22   21 1
    22   23   21 ar
    23   24   16 ar
    24   25   24 1
    25   26   27 1
    26   28   26 1
    27   29   26 1
    28   30   12 2
    29   31   15 1
    30   32   23 1
    31    9   11 ar
    32   23   24 ar
    33   26   32 1
    34   30   31 1
@<TRIPOS>SUBSTRUCTURE
     1 RES1 1

@<TRIPOS>CRYSIN
   7.9090   27.2390    5.9652  90.0000  90.0000  90.0000  33 1

