# MOL2 file generated by ConQuest
# Please check atom types

@<TRIPOS>MOLECULE
WIGTOX
    22    22     1
SMALL
NO_CHARGES
****
Generated from CSD

@<TRIPOS>ATOM
      1 O1        -1.4096    3.6690    4.9529 O.2       1 RES1    0.0000
      2 O2         0.2334    4.6387    3.9480 O.2       1 RES1    0.0000
      3 O3        -1.4755    6.6162    2.3521 O.2       1 RES1    0.0000
      4 N1        -0.6345    7.1237    4.8895 N.3       1 RES1    0.0000
      5 N2        -2.1689    7.4164    6.4750 N.2       1 RES1    0.0000
      6 N3        -0.7616    4.6726    4.6621 N.pl3     1 RES1    0.0000
      7 C1        -1.1921    5.8979    5.1947 C.2       1 RES1    0.0000
      8 C2        -2.1181    6.1047    6.1586 C.2       1 RES1    0.0000
      9 H1        -2.6421    5.4411    6.5457 H         1 RES1    0.0000
     10 C3        -1.2752    8.0099    5.6951 C.2       1 RES1    0.0000
     11 C4        -0.9628    9.4570    5.7430 C.3       1 RES1    0.0000
     12 H2        -1.4143    9.8569    6.4897 H         1 RES1    0.0000
     13 H3        -1.2565    9.8743    4.9306 H         1 RES1    0.0000
     14 H4        -0.0153    9.5768    5.8398 H         1 RES1    0.0000
     15 C5         0.2315    7.4614    3.7674 C.3       1 RES1    0.0000
     16 H5         1.0469    6.9399    3.8269 H         1 RES1    0.0000
     17 H6         0.4739    8.3990    3.8240 H         1 RES1    0.0000
     18 C6        -0.4255    7.2011    2.4325 C.2       1 RES1    0.0000
     19 C7         0.3197    7.7024    1.2480 C.3       1 RES1    0.0000
     20 H7        -0.1867    7.5238    0.4524 H         1 RES1    0.0000
     21 H8         1.1693    7.2585    1.1936 H         1 RES1    0.0000
     22 H9         0.4585    8.6482    1.3336 H         1 RES1    0.0000
@<TRIPOS>BOND
     1    1    6 2
     2    2    6 2
     3    3   18 2
     4    4    7 1
     5    5    8 1
     6    6    7 1
     7    7    8 2
     8    8    9 1
     9   10    4 1
    10   11   10 1
    11   12   11 1
    12   13   11 1
    13   14   11 1
    14   15    4 1
    15   16   15 1
    16   17   15 1
    17   18   15 1
    18   19   18 1
    19   20   19 1
    20   21   19 1
    21   22   19 1
    22    5   10 2
@<TRIPOS>SUBSTRUCTURE
     1 RES1 1

@<TRIPOS>CRYSIN
   4.7548   12.3971   14.8580  90.0000  97.3500  90.0000 231 1

