# MOL2 file generated by ConQuest
# Please check atom types

@<TRIPOS>MOLECULE
WIGWAM
    53    57     1
SMALL
NO_CHARGES
****
Generated from CSD

@<TRIPOS>ATOM
      1 O1         9.5823    7.2338    5.6958 O.3       1 RES1    0.0000
      2 O2        15.0079    4.2156    3.8886 O.3       1 RES1    0.0000
      3 O3        16.3182    5.8902    4.5975 O.2       1 RES1    0.0000
      4 O4         3.3501    4.5297    9.3198 O.3       1 RES1    0.0000
      5 O5         2.9331    2.9769    7.7479 O.2       1 RES1    0.0000
      6 N1         8.2861    7.2423    6.2666 N.2       1 RES1    0.0000
      7 N2         9.2181    5.2415    6.6066 N.2       1 RES1    0.0000
      8 C1        10.0670    6.0175    5.9263 C.2       1 RES1    0.0000
      9 C2         8.1550    6.0309    6.7729 C.2       1 RES1    0.0000
     10 C3        11.3899    5.6343    5.4296 C.ar      1 RES1    0.0000
     11 C4        12.1549    6.4601    4.6188 C.ar      1 RES1    0.0000
     12 C5        13.3699    6.0563    4.1271 C.ar      1 RES1    0.0000
     13 C6        13.8288    4.8049    4.4573 C.ar      1 RES1    0.0000
     14 C7        13.0928    3.9458    5.2530 C.ar      1 RES1    0.0000
     15 C8        11.8807    4.3714    5.7470 C.ar      1 RES1    0.0000
     16 C9        16.1687    4.8395    4.0386 C.2       1 RES1    0.0000
     17 C10       17.2912    4.0471    3.4210 C.ar      1 RES1    0.0000
     18 C11       18.5446    4.6412    3.4266 C.ar      1 RES1    0.0000
     19 C12       19.6093    3.9652    2.8647 C.ar      1 RES1    0.0000
     20 C13       19.4072    2.7193    2.3047 C.ar      1 RES1    0.0000
     21 C14       18.1943    2.1463    2.3297 C.ar      1 RES1    0.0000
     22 C15       17.1470    2.7975    2.8742 C.ar      1 RES1    0.0000
     23 C16        6.9036    5.6440    7.4414 C.ar      1 RES1    0.0000
     24 C17        5.8111    6.5026    7.4777 C.ar      1 RES1    0.0000
     25 C18        4.6450    6.1145    8.0884 C.ar      1 RES1    0.0000
     26 C19        4.5592    4.8771    8.6642 C.ar      1 RES1    0.0000
     27 C20        5.6228    4.0052    8.6649 C.ar      1 RES1    0.0000
     28 C21        6.7964    4.3951    8.0349 C.ar      1 RES1    0.0000
     29 C22        2.5879    3.5626    8.7377 C.2       1 RES1    0.0000
     30 C23        1.3102    3.3547    9.4585 C.ar      1 RES1    0.0000
     31 C24        0.7914    4.2708   10.3546 C.ar      1 RES1    0.0000
     32 C25       -0.4248    4.0216   10.9812 C.ar      1 RES1    0.0000
     33 C26       -1.1040    2.8636   10.7128 C.ar      1 RES1    0.0000
     34 C27       -0.5997    1.9553    9.8235 C.ar      1 RES1    0.0000
     35 C28        0.6028    2.1924    9.1926 C.ar      1 RES1    0.0000
     36 H1        11.8358    7.3071    4.4036 H         1 RES1    0.0000
     37 H2        13.8719    6.6178    3.5823 H         1 RES1    0.0000
     38 H3        13.4109    3.0946    5.4503 H         1 RES1    0.0000
     39 H4        11.3856    3.8100    6.2985 H         1 RES1    0.0000
     40 H5        18.6661    5.4822    3.8041 H         1 RES1    0.0000
     41 H6        20.4574    4.3466    2.8612 H         1 RES1    0.0000
     42 H7        20.1198    2.2724    1.9074 H         1 RES1    0.0000
     43 H8        18.0778    1.2969    1.9701 H         1 RES1    0.0000
     44 H9        16.3097    2.3919    2.8791 H         1 RES1    0.0000
     45 H10        5.8710    7.3441    7.0858 H         1 RES1    0.0000
     46 H11        3.9153    6.6911    8.1111 H         1 RES1    0.0000
     47 H12        5.5574    3.1746    9.0774 H         1 RES1    0.0000
     48 H13        7.5195    3.8112    8.0109 H         1 RES1    0.0000
     49 H14        1.2567    5.0547   10.5392 H         1 RES1    0.0000
     50 H15       -0.7751    4.6400   11.5789 H         1 RES1    0.0000
     51 H16       -1.9118    2.6938   11.1387 H         1 RES1    0.0000
     52 H17       -1.0727    1.1744    9.6428 H         1 RES1    0.0000
     53 H18        0.9403    1.5715    8.5889 H         1 RES1    0.0000
@<TRIPOS>BOND
     1    1    6 1
     2    2   13 1
     3    3   16 2
     4    4   26 1
     5    5   29 2
     6    6    9 2
     7    7    8 2
     8    8    1 1
     9    9    7 1
    10   10    8 1
    11   11   10 ar
    12   12   11 ar
    13   13   12 ar
    14   14   13 ar
    15   15   10 ar
    16   16    2 1
    17   17   16 1
    18   18   17 ar
    19   19   18 ar
    20   20   19 ar
    21   21   20 ar
    22   22   17 ar
    23   23    9 1
    24   24   23 ar
    25   25   24 ar
    26   26   25 ar
    27   27   26 ar
    28   28   23 ar
    29   29    4 1
    30   30   29 1
    31   31   30 ar
    32   32   31 ar
    33   33   32 ar
    34   34   33 ar
    35   35   30 ar
    36   36   11 1
    37   37   12 1
    38   38   14 1
    39   39   15 1
    40   40   18 1
    41   41   19 1
    42   42   20 1
    43   43   21 1
    44   44   22 1
    45   45   24 1
    46   46   25 1
    47   47   27 1
    48   48   28 1
    49   49   31 1
    50   50   32 1
    51   51   33 1
    52   52   34 1
    53   53   35 1
    54   14   15 ar
    55   21   22 ar
    56   27   28 ar
    57   34   35 ar
@<TRIPOS>SUBSTRUCTURE
     1 RES1 1

@<TRIPOS>CRYSIN
  21.0690    6.0630   18.7270  90.0000 107.1590  90.0000  14 1

