# MOL2 file generated by ConQuest
# Please check atom types

@<TRIPOS>MOLECULE
WIHBIA
    32    34     1
SMALL
NO_CHARGES
****
Generated from CSD

@<TRIPOS>ATOM
      1 O1         4.4640    3.0441    4.1646 O.3       1 RES1    0.0000
      2 O2         1.4251    5.1049    5.9865 O.2       1 RES1    0.0000
      3 O3         3.3864    6.3692   12.8669 O.2       1 RES1    0.0000
      4 O4         5.0850    7.1094   11.7654 O.2       1 RES1    0.0000
      5 N1         4.0884    6.3980   11.8609 N.pl3     1 RES1    0.0000
      6 C1         3.7964    4.0284    3.4670 C.ar      1 RES1    0.0000
      7 C2         4.0513    2.7604    5.4242 C.2       1 RES1    0.0000
      8 H1         4.5075    2.0663    5.8866 H         1 RES1    0.0000
      9 C3         3.0467    3.3803    6.0781 C.2       1 RES1    0.0000
     10 C4         2.3286    4.4623    5.4255 C.2       1 RES1    0.0000
     11 C5         2.7494    4.7460    4.0425 C.ar      1 RES1    0.0000
     12 C6         2.1287    5.7432    3.2753 C.ar      1 RES1    0.0000
     13 H2         1.4118    6.2430    3.6484 H         1 RES1    0.0000
     14 C7         2.5448    6.0096    1.9875 C.ar      1 RES1    0.0000
     15 H3         2.1213    6.6917    1.4801 H         1 RES1    0.0000
     16 C8         3.5930    5.2704    1.4366 C.ar      1 RES1    0.0000
     17 H4         3.8765    5.4537    0.5486 H         1 RES1    0.0000
     18 C9         4.2267    4.2748    2.1616 C.ar      1 RES1    0.0000
     19 H5         4.9371    3.7730    1.7802 H         1 RES1    0.0000
     20 C10        2.6450    2.9577    7.4719 C.3       1 RES1    0.0000
     21 H6         3.0523    2.0753    7.6590 H         1 RES1    0.0000
     22 H7         1.6621    2.8405    7.4908 H         1 RES1    0.0000
     23 C11        3.0331    3.9100    8.5903 C.ar      1 RES1    0.0000
     24 C12        2.3502    3.8311    9.8162 C.ar      1 RES1    0.0000
     25 H8         1.6397    3.2081    9.9127 H         1 RES1    0.0000
     26 C13        2.6864    4.6374   10.8802 C.ar      1 RES1    0.0000
     27 H9         2.2166    4.5763   11.7033 H         1 RES1    0.0000
     28 C14        3.7280    5.5389   10.7213 C.ar      1 RES1    0.0000
     29 C15        4.4364    5.6490    9.5370 C.ar      1 RES1    0.0000
     30 H10        5.1497    6.2710    9.4522 H         1 RES1    0.0000
     31 C16        4.0781    4.8237    8.4712 C.ar      1 RES1    0.0000
     32 H11        4.5532    4.8868    7.6513 H         1 RES1    0.0000
@<TRIPOS>BOND
     1    1    6 1
     2    2   10 2
     3    3    5 2
     4    4    5 2
     5    5   28 1
     6    6   11 ar
     7    7    1 1
     8    8    7 1
     9    9    7 2
    10   10    9 1
    11   11   10 1
    12   12   11 ar
    13   13   12 1
    14   14   12 ar
    15   15   14 1
    16   16   14 ar
    17   17   16 1
    18   18    6 ar
    19   19   18 1
    20   20    9 1
    21   21   20 1
    22   22   20 1
    23   23   20 1
    24   24   23 ar
    25   25   24 1
    26   26   24 ar
    27   27   26 1
    28   28   26 ar
    29   29   28 ar
    30   30   29 1
    31   31   23 ar
    32   32   31 1
    33   16   18 ar
    34   29   31 ar
@<TRIPOS>SUBSTRUCTURE
     1 RES1 1

@<TRIPOS>CRYSIN
   4.9246   10.0160   25.9070  90.0000  92.8450  90.0000 231 1

