# MOL2 file generated by ConQuest
# Please check atom types

@<TRIPOS>MOLECULE
WIHBEV
    32    33     1
SMALL
NO_CHARGES
****
Generated from CSD

@<TRIPOS>ATOM
      1 O1         0.3495   -0.1396    4.8317 O.2       1 RES1    0.0000
      2 C1         1.3926   -0.6919    5.1394 C.2       1 RES1    0.0000
      3 O2         3.2516    2.0320    6.3050 O.2       1 RES1    0.0000
      4 C2         2.1349   -3.0758    4.4455 C.ar      1 RES1    0.0000
      5 N1         1.6702    0.6327    7.0814 N.am      1 RES1    0.0000
      6 C3         2.2770    1.8377    7.0177 C.2       1 RES1    0.0000
      7 C4         2.0476   -1.7063    4.2414 C.ar      1 RES1    0.0000
      8 N2         1.5168   -3.6757    5.6173 N.pl3     1 RES1    0.0000
      9 O3         0.7741   -2.9957    6.2936 O.2       1 RES1    0.0000
     10 N3         2.1079   -0.3777    6.2238 N.am      1 RES1    0.0000
     11 C5         3.2853   -2.0310    2.1908 C.ar      1 RES1    0.0000
     12 H1         3.6806   -1.6723    1.4298 H         1 RES1    0.0000
     13 C6         2.6341   -1.2061    3.0852 C.ar      1 RES1    0.0000
     14 H2         2.5857   -0.2939    2.9102 H         1 RES1    0.0000
     15 C7         2.7779   -3.9041    3.5487 C.ar      1 RES1    0.0000
     16 H3         2.8203   -4.8192    3.7098 H         1 RES1    0.0000
     17 C8         1.7187    2.8887    7.9129 C.ar      1 RES1    0.0000
     18 C9         3.3513   -3.3837    2.4263 C.ar      1 RES1    0.0000
     19 H4         3.7851   -3.9426    1.8219 H         1 RES1    0.0000
     20 C10        1.0204    2.5971    9.0595 C.ar      1 RES1    0.0000
     21 H5         0.8664    1.7108    9.2972 H         1 RES1    0.0000
     22 O4         1.7410   -4.8429    5.8541 O.2       1 RES1    0.0000
     23 C11        1.9609    4.2119    7.5692 C.ar      1 RES1    0.0000
     24 H6         2.4557    4.4175    6.8089 H         1 RES1    0.0000
     25 C12        0.5430    3.6256    9.8668 C.ar      1 RES1    0.0000
     26 H7         0.0729    3.4305   10.6442 H         1 RES1    0.0000
     27 C13        0.7730    4.9308    9.5068 C.ar      1 RES1    0.0000
     28 H8         0.4570    5.6213   10.0438 H         1 RES1    0.0000
     29 C14        1.4573    5.2215    8.3720 C.ar      1 RES1    0.0000
     30 H9         1.5893    6.1103    8.1300 H         1 RES1    0.0000
     31 H10        0.8427    0.4992    7.4093 H         1 RES1    0.0000
     32 H11        2.8308   -0.8470    6.4958 H         1 RES1    0.0000
@<TRIPOS>BOND
     1    1    2 2
     2    2    7 1
     3    3    6 2
     4    4    7 ar
     5    5    6 1
     6    6   17 1
     7    7   13 ar
     8    8    4 1
     9    9    8 2
    10   10    2 1
    11   11   12 1
    12   13   11 ar
    13   14   13 1
    14   15    4 ar
    15   16   15 1
    16   17   20 ar
    17   18   11 ar
    18   19   18 1
    19   20   21 1
    20   22    8 2
    21   23   17 ar
    22   24   23 1
    23   25   20 ar
    24   26   25 1
    25   27   25 ar
    26   28   27 1
    27   29   23 ar
    28   30   29 1
    29   31    5 1
    30   32   10 1
    31    5   10 1
    32   15   18 ar
    33   27   29 ar
@<TRIPOS>SUBSTRUCTURE
     1 RES1 1

@<TRIPOS>CRYSIN
   8.2363   12.8340   12.9550  90.0000  92.7800  90.0000 231 1

