# MOL2 file generated by ConQuest
# Please check atom types

@<TRIPOS>MOLECULE
WIJCOH
    39    39     2
SMALL
NO_CHARGES
****
Generated from CSD

@<TRIPOS>ATOM
      1 N1         4.2033   11.6830    2.4313 N.3       1 RES1    0.0000
      2 N2         1.4826   13.0319    0.8284 N.1       1 RES1    0.0000
      3 N3         1.5556    5.9888   -1.9013 N.pl3     1 RES1    0.0000
      4 C1         5.3380   13.7506    3.0155 C.ar      1 RES1    0.0000
      5 C2         5.3585   14.9538    3.6871 C.ar      1 RES1    0.0000
      6 C3         4.2824   15.3658    4.4079 C.ar      1 RES1    0.0000
      7 C4         3.1678   14.5832    4.4596 C.ar      1 RES1    0.0000
      8 C5         3.1195   13.3762    3.8040 C.ar      1 RES1    0.0000
      9 C6         4.2122   12.9492    3.0747 C.ar      1 RES1    0.0000
     10 C7         3.1250   11.2414    1.6797 C.2       1 RES1    0.0000
     11 C8         2.9023    9.9780    1.2714 C.2       1 RES1    0.0000
     12 C9         1.8176    9.6061    0.4051 C.2       1 RES1    0.0000
     13 C10        1.5837    8.3603   -0.0235 C.2       1 RES1    0.0000
     14 C11        0.4737    8.0034   -0.8992 C.ar      1 RES1    0.0000
     15 C12       -0.6733    8.8110   -0.9252 C.ar      1 RES1    0.0000
     16 C13       -1.7377    8.5606   -1.7431 C.ar      1 RES1    0.0000
     17 C14       -1.7311    7.4750   -2.5837 C.ar      1 RES1    0.0000
     18 C15       -0.6437    6.6461   -2.6059 C.ar      1 RES1    0.0000
     19 C16        0.4327    6.9166   -1.7738 C.ar      1 RES1    0.0000
     20 C17        5.3265   10.8006    2.6087 C.3       1 RES1    0.0000
     21 C18        2.2241   12.2681    1.2238 C.1       1 RES1    0.0000
     22 O1         2.3851    5.9149   -1.1091 O.2       1 RES1    0.0000
     23 O2         1.8556    5.6395   -3.0931 O.2       1 RES1    0.0000
     24 H1         6.1027   13.4726    2.4458 H         1 RES1    0.0000
     25 H2         6.1895   15.5010    3.6779 H         1 RES1    0.0000
     26 H3         4.3274   16.2523    4.8364 H         1 RES1    0.0000
     27 H4         2.4209   14.9125    5.0387 H         1 RES1    0.0000
     28 H5         2.3005   12.7839    3.8618 H         1 RES1    0.0000
     29 H6         3.4741    9.2530    1.6183 H         1 RES1    0.0000
     30 H7         1.2102   10.3298    0.0552 H         1 RES1    0.0000
     31 H8         2.2243    7.6629    0.2758 H         1 RES1    0.0000
     32 H9        -0.7024    9.6161   -0.3862 H         1 RES1    0.0000
     33 H10       -2.5525    9.1153   -1.7102 H         1 RES1    0.0000
     34 H11       -2.5251    7.3373   -3.1630 H         1 RES1    0.0000
     35 H12       -0.6856    5.7972   -3.1997 H         1 RES1    0.0000
     36 H13        5.2193    9.9667    2.0964 H         1 RES1    0.0000
     37 H14        6.1722   11.1687    2.3171 H         1 RES1    0.0000
     38 H15        5.4591   10.5176    3.5307 H         1 RES1    0.0000
     39 O3         1.3347    4.9057   -2.4182 Du        2 SUP2    0.0000
@<TRIPOS>BOND
     1    1    9 1
     2    2   21 3
     3    3   19 1
     4    4    5 ar
     5    5    6 ar
     6    6    7 ar
     7    7    8 ar
     8    8    9 ar
     9    9    4 ar
    10   10    1 1
    11   11   10 2
    12   12   11 1
    13   13   12 2
    14   14   13 1
    15   15   14 ar
    16   16   15 ar
    17   17   16 ar
    18   18   17 ar
    19   19   14 ar
    20   20    1 1
    21   21   10 1
    22   22    3 2
    23   23    3 2
    24   24    4 1
    25   25    5 1
    26   26    6 1
    27   27    7 1
    28   28    8 1
    29   29   11 1
    30   30   12 1
    31   31   13 1
    32   32   15 1
    33   33   16 1
    34   34   17 1
    35   35   18 1
    36   36   20 1
    37   37   20 1
    38   38   20 1
    39   18   19 ar
@<TRIPOS>SUBSTRUCTURE
     1 RES1 1
     2 SUP2 39

@<TRIPOS>CRYSIN
   6.7970   12.5210   18.5150  90.0000  96.6800  90.0000  14 1

