# MOL2 file generated by ConQuest
# Please check atom types

@<TRIPOS>MOLECULE
WIJJAC
    34    36     1
SMALL
NO_CHARGES
****
Generated from CSD

@<TRIPOS>ATOM
      1 C1         0.4495    5.7735    7.0587 C.ar      1 RES1    0.0000
      2 N1         0.3705    6.4976    4.7243 N.2       1 RES1    0.0000
      3 C2         0.3392    5.1367    9.3797 C.ar      1 RES1    0.0000
      4 H1        -0.1241    4.7320   10.1031 H         1 RES1    0.0000
      5 O1         1.5681    5.0955   11.7937 O.2       1 RES1    0.0000
      6 C3         1.6911    6.3515    7.2919 C.ar      1 RES1    0.0000
      7 H2         2.1497    6.7775    6.5781 H         1 RES1    0.0000
      8 C4        -0.1614    5.7754    5.7293 C.2       1 RES1    0.0000
      9 C5        -0.2195    5.1735    8.1259 C.ar      1 RES1    0.0000
     10 H3        -1.0739    4.7842    7.9823 H         1 RES1    0.0000
     11 N2         2.1992    5.6234   10.8864 N.pl3     1 RES1    0.0000
     12 C6         2.2673    6.3162    8.5432 C.ar      1 RES1    0.0000
     13 H4         3.1181    6.7091    8.6975 H         1 RES1    0.0000
     14 C7         1.5782    5.6952    9.5680 C.ar      1 RES1    0.0000
     15 C8        -1.2995    5.0734    5.3152 C.2       1 RES1    0.0000
     16 H5        -1.8515    4.5032    5.8379 H         1 RES1    0.0000
     17 O2         3.3198    6.0839   11.0286 O.2       1 RES1    0.0000
     18 N3        -0.4431    6.2193    3.6949 N.pl3     1 RES1    0.0000
     19 C9        -0.4808    6.7488    2.3375 C.3       1 RES1    0.0000
     20 H6         0.4195    6.7540    1.9245 H         1 RES1    0.0000
     21 H7        -0.8583    7.6635    2.3144 H         1 RES1    0.0000
     22 C10       -1.4420    5.3876    3.9971 C.2       1 RES1    0.0000
     23 C11       -1.4146    5.7320    1.6469 C.3       1 RES1    0.0000
     24 C12       -2.3027    5.1882    2.7992 C.3       1 RES1    0.0000
     25 H8        -3.1457    5.7018    2.8743 H         1 RES1    0.0000
     26 H9        -2.5158    4.2309    2.6661 H         1 RES1    0.0000
     27 C13       -2.2558    6.3773    0.5568 C.3       1 RES1    0.0000
     28 H10       -2.9042    5.7261    0.2155 H         1 RES1    0.0000
     29 H11       -1.6732    6.6709   -0.1744 H         1 RES1    0.0000
     30 H12       -2.7315    7.1499    0.9263 H         1 RES1    0.0000
     31 C14       -0.5660    4.6113    1.0745 C.3       1 RES1    0.0000
     32 H13       -1.1488    3.9197    0.6977 H         1 RES1    0.0000
     33 H14       -0.0152    4.2228    1.7852 H         1 RES1    0.0000
     34 H15        0.0145    4.9682    0.3694 H         1 RES1    0.0000
@<TRIPOS>BOND
     1    1    6 ar
     2    2    8 2
     3    3    4 1
     4    5   11 2
     5    6    7 1
     6    8    1 1
     7    9    1 ar
     8   10    9 1
     9   11   14 1
    10   12    6 ar
    11   13   12 1
    12   14    3 ar
    13   15    8 1
    14   16   15 1
    15   17   11 2
    16   18    2 1
    17   19   18 1
    18   20   19 1
    19   21   19 1
    20   22   15 2
    21   23   19 1
    22   24   22 1
    23   25   24 1
    24   26   24 1
    25   27   23 1
    26   28   27 1
    27   29   27 1
    28   30   27 1
    29   31   23 1
    30   32   31 1
    31   33   31 1
    32   34   31 1
    33    3    9 ar
    34   12   14 ar
    35   18   22 1
    36   23   24 1
@<TRIPOS>SUBSTRUCTURE
     1 RES1 1

@<TRIPOS>CRYSIN
   5.7730    7.3581   14.7710  90.0000  97.1200  90.0000   4 1

