# MOL2 file generated by ConQuest
# Please check atom types

@<TRIPOS>MOLECULE
WIJRAI02
    42    43     1
SMALL
NO_CHARGES
****
Generated from CSD

@<TRIPOS>ATOM
      1 O1         4.5568    9.3099    2.9977 O.2       1 RES1    0.0000
      2 N1         4.1735    8.3329    2.2498 N.3       1 RES1    0.0000
      3 N2         2.8485    5.0216   -0.0388 N.2       1 RES1    0.0000
      4 C1         5.1773    7.2402    2.0368 C.3       1 RES1    0.0000
      5 C2         4.6866    6.2826    0.9433 C.3       1 RES1    0.0000
      6 C3         3.2242    5.8780    1.0932 C.3       1 RES1    0.0000
      7 C4         2.3699    7.1376    1.0452 C.3       1 RES1    0.0000
      8 C5         2.6943    8.1490    2.1483 C.3       1 RES1    0.0000
      9 C6         2.5848    3.8115    0.2229 C.2       1 RES1    0.0000
     10 C7         2.1683    2.8398   -0.8099 C.ar      1 RES1    0.0000
     11 C8         2.0663    3.2081   -2.1563 C.ar      1 RES1    0.0000
     12 C9         1.6287    2.2860   -3.0980 C.ar      1 RES1    0.0000
     13 C10        1.2908    0.9928   -2.7169 C.ar      1 RES1    0.0000
     14 C11        1.4015    0.6162   -1.3832 C.ar      1 RES1    0.0000
     15 C12        1.8419    1.5347   -0.4351 C.ar      1 RES1    0.0000
     16 C13        5.4073    6.5195    3.3736 C.3       1 RES1    0.0000
     17 C14        6.4801    7.8972    1.5690 C.3       1 RES1    0.0000
     18 C15        2.1446    7.6950    3.5112 C.3       1 RES1    0.0000
     19 C16        2.0855    9.5075    1.7905 C.3       1 RES1    0.0000
     20 H1         3.0943    5.3883    1.9540 H         1 RES1    0.0000
     21 H2         2.6308    3.4345    1.1500 H         1 RES1    0.0000
     22 H3         2.3049    4.1110   -2.4253 H         1 RES1    0.0000
     23 H4         1.5863    2.5442   -4.0223 H         1 RES1    0.0000
     24 H5         0.9523    0.3289   -3.3518 H         1 RES1    0.0000
     25 H6         1.1718   -0.2941   -1.1115 H         1 RES1    0.0000
     26 H7         1.9239    1.2762    0.4865 H         1 RES1    0.0000
     27 H8         4.5685    6.0590    3.7037 H         1 RES1    0.0000
     28 H9         6.1120    5.8591    3.2769 H         1 RES1    0.0000
     29 H10        5.6574    7.1817    4.0446 H         1 RES1    0.0000
     30 H11        6.3679    8.3556    0.6837 H         1 RES1    0.0000
     31 H12        7.1793    7.2003    1.4756 H         1 RES1    0.0000
     32 H13        6.7654    8.5974    2.2089 H         1 RES1    0.0000
     33 H14        4.8074    6.7191    0.0354 H         1 RES1    0.0000
     34 H15        5.2542    5.4836    0.9558 H         1 RES1    0.0000
     35 H16        1.3956    6.9039    1.1075 H         1 RES1    0.0000
     36 H17        2.5245    7.5746    0.1446 H         1 RES1    0.0000
     37 H18        2.3867    6.7563    3.7159 H         1 RES1    0.0000
     38 H19        1.1440    7.7594    3.5015 H         1 RES1    0.0000
     39 H20        2.4987    8.2650    4.2408 H         1 RES1    0.0000
     40 H21        1.0990    9.3761    1.6021 H         1 RES1    0.0000
     41 H22        2.1937   10.1595    2.5255 H         1 RES1    0.0000
     42 H23        2.5360    9.9119    0.9730 H         1 RES1    0.0000
@<TRIPOS>BOND
     1    1    2 1
     2    2    4 1
     3    3    6 1
     4    4    5 1
     5    5    6 1
     6    6    7 1
     7    7    8 1
     8    8    2 1
     9    9    3 2
    10   10    9 1
    11   11   10 ar
    12   12   11 ar
    13   13   12 ar
    14   14   13 ar
    15   15   10 ar
    16   16    4 1
    17   17    4 1
    18   18    8 1
    19   19    8 1
    20   20    6 1
    21   21    9 1
    22   22   11 1
    23   23   12 1
    24   24   13 1
    25   25   14 1
    26   26   15 1
    27   27   16 1
    28   28   16 1
    29   29   16 1
    30   30   17 1
    31   31   17 1
    32   32   17 1
    33   33    5 1
    34   34    5 1
    35   35    7 1
    36   36    7 1
    37   37   18 1
    38   38   18 1
    39   39   18 1
    40   40   19 1
    41   41   19 1
    42   42   19 1
    43   14   15 ar
@<TRIPOS>SUBSTRUCTURE
     1 RES1 1

@<TRIPOS>CRYSIN
  12.5774   11.6228   10.8229  90.0000 110.8530  90.0000  14 1

