# MOL2 file generated by ConQuest
# Please check atom types

@<TRIPOS>MOLECULE
WIJRAI01
    42    43     1
SMALL
NO_CHARGES
****
Generated from CSD

@<TRIPOS>ATOM
      1 O1         4.5736    9.3468    3.0589 O.2       1 RES1    0.0000
      2 N1         4.1860    8.3783    2.3140 N.3       1 RES1    0.0000
      3 N2         2.8492    5.1199   -0.0192 N.2       1 RES1    0.0000
      4 C1         5.1765    7.2836    2.0989 C.3       1 RES1    0.0000
      5 C2         4.6808    6.3479    0.9968 C.3       1 RES1    0.0000
      6 C3         3.2247    5.9611    1.1214 C.3       1 RES1    0.0000
      7 C4         2.3888    7.2269    1.0833 C.3       1 RES1    0.0000
      8 C5         2.7068    8.2211    2.1928 C.3       1 RES1    0.0000
      9 C6         2.6219    3.9080    0.2098 C.2       1 RES1    0.0000
     10 C7         2.2229    2.9430   -0.8316 C.ar      1 RES1    0.0000
     11 C8         2.1194    3.3183   -2.1648 C.ar      1 RES1    0.0000
     12 C9         1.7007    2.4008   -3.1120 C.ar      1 RES1    0.0000
     13 C10        1.3887    1.1130   -2.7425 C.ar      1 RES1    0.0000
     14 C11        1.4968    0.7321   -1.4318 C.ar      1 RES1    0.0000
     15 C12        1.9134    1.6417   -0.4752 C.ar      1 RES1    0.0000
     16 C13        5.3748    6.5439    3.4261 C.3       1 RES1    0.0000
     17 C14        6.4833    7.9268    1.6494 C.3       1 RES1    0.0000
     18 C15        2.1317    7.7731    3.5421 C.3       1 RES1    0.0000
     19 C16        2.1322    9.5869    1.8352 C.3       1 RES1    0.0000
     20 H1         3.0599    5.5025    1.9276 H         1 RES1    0.0000
     21 H2         2.6615    3.5197    1.1188 H         1 RES1    0.0000
     22 H3         2.3475    4.2604   -2.4007 H         1 RES1    0.0000
     23 H4         1.6482    2.7119   -4.0440 H         1 RES1    0.0000
     24 H5         1.0705    0.4461   -3.3563 H         1 RES1    0.0000
     25 H6         1.3136   -0.2113   -1.1188 H         1 RES1    0.0000
     26 H7         2.0487    1.3618    0.4106 H         1 RES1    0.0000
     27 H8         4.5468    6.0813    3.6745 H         1 RES1    0.0000
     28 H9         6.0547    5.9287    3.3871 H         1 RES1    0.0000
     29 H10        5.6336    7.1849    4.1056 H         1 RES1    0.0000
     30 H11        6.3627    8.4176    0.8211 H         1 RES1    0.0000
     31 H12        7.1385    7.2084    1.5601 H         1 RES1    0.0000
     32 H13        6.7781    8.5232    2.3504 H         1 RES1    0.0000
     33 H14        4.7893    6.8397    0.1201 H         1 RES1    0.0000
     34 H15        5.1975    5.5612    1.0367 H         1 RES1    0.0000
     35 H16        1.4311    7.0158    1.1352 H         1 RES1    0.0000
     36 H17        2.5511    7.6392    0.1837 H         1 RES1    0.0000
     37 H18        2.4113    6.8785    3.7412 H         1 RES1    0.0000
     38 H19        1.1531    7.7836    3.5308 H         1 RES1    0.0000
     39 H20        2.4830    8.3589    4.2801 H         1 RES1    0.0000
     40 H21        1.1715    9.4390    1.7038 H         1 RES1    0.0000
     41 H22        2.2669   10.2373    2.5660 H         1 RES1    0.0000
     42 H23        2.6206    9.9555    1.0161 H         1 RES1    0.0000
@<TRIPOS>BOND
     1    1    2 1
     2    2    4 1
     3    3    6 1
     4    4    5 1
     5    5    6 1
     6    6    7 1
     7    7    8 1
     8    8    2 1
     9    9    3 2
    10   10    9 1
    11   11   10 ar
    12   12   11 ar
    13   13   12 ar
    14   14   13 ar
    15   15   10 ar
    16   16    4 1
    17   17    4 1
    18   18    8 1
    19   19    8 1
    20   20    6 1
    21   21    9 1
    22   22   11 1
    23   23   12 1
    24   24   13 1
    25   25   14 1
    26   26   15 1
    27   27   16 1
    28   28   16 1
    29   29   16 1
    30   30   17 1
    31   31   17 1
    32   32   17 1
    33   33    5 1
    34   34    5 1
    35   35    7 1
    36   36    7 1
    37   37   18 1
    38   38   18 1
    39   39   18 1
    40   40   19 1
    41   41   19 1
    42   42   19 1
    43   14   15 ar
@<TRIPOS>SUBSTRUCTURE
     1 RES1 1

@<TRIPOS>CRYSIN
  12.6840   11.7400   11.0240  90.0000 111.4000  90.0000  14 1

