# MOL2 file generated by ConQuest
# Please check atom types

@<TRIPOS>MOLECULE
WIJRAI03
    42    43     1
SMALL
NO_CHARGES
****
Generated from CSD

@<TRIPOS>ATOM
      1 O1         4.5558    9.3052    2.9957 O.2       1 RES1    0.0000
      2 N1         4.1746    8.3339    2.2517 N.3       1 RES1    0.0000
      3 N2         2.8493    5.0238   -0.0322 N.2       1 RES1    0.0000
      4 C1         5.1760    7.2414    2.0360 C.3       1 RES1    0.0000
      5 C2         4.6888    6.2812    0.9432 C.3       1 RES1    0.0000
      6 C3         3.2223    5.8759    1.0926 C.3       1 RES1    0.0000
      7 C4         2.3702    7.1380    1.0443 C.3       1 RES1    0.0000
      8 C5         2.6974    8.1501    2.1486 C.3       1 RES1    0.0000
      9 C6         2.5833    3.8090    0.2234 C.2       1 RES1    0.0000
     10 C7         2.1702    2.8422   -0.8099 C.ar      1 RES1    0.0000
     11 C8         2.0670    3.2106   -2.1587 C.ar      1 RES1    0.0000
     12 C9         1.6285    2.2862   -3.1012 C.ar      1 RES1    0.0000
     13 C10        1.2905    0.9872   -2.7179 C.ar      1 RES1    0.0000
     14 C11        1.3989    0.6140   -1.3801 C.ar      1 RES1    0.0000
     15 C12        1.8400    1.5340   -0.4325 C.ar      1 RES1    0.0000
     16 C13        5.4090    6.5224    3.3723 C.3       1 RES1    0.0000
     17 C14        6.4787    7.9018    1.5670 C.3       1 RES1    0.0000
     18 C15        2.1459    7.6973    3.5080 C.3       1 RES1    0.0000
     19 C16        2.0861    9.5083    1.7899 C.3       1 RES1    0.0000
     20 H1         3.0838    5.4046    1.9419 H         1 RES1    0.0000
     21 H2         2.6615    3.5217    1.1024 H         1 RES1    0.0000
     22 H3         2.2917    4.0680   -2.4172 H         1 RES1    0.0000
     23 H4         1.5595    2.5338   -3.9950 H         1 RES1    0.0000
     24 H5         0.9859    0.3836   -3.3477 H         1 RES1    0.0000
     25 H6         1.1823   -0.2557   -1.1227 H         1 RES1    0.0000
     26 H7         1.9145    1.2785    0.4551 H         1 RES1    0.0000
     27 H8         4.5922    6.1020    3.6613 H         1 RES1    0.0000
     28 H9         5.6948    7.1596    4.0355 H         1 RES1    0.0000
     29 H10        6.0882    5.8463    3.2668 H         1 RES1    0.0000
     30 H11        6.3257    8.3452    0.7282 H         1 RES1    0.0000
     31 H12        7.1513    7.2294    1.4665 H         1 RES1    0.0000
     32 H13        6.7617    8.5428    2.2251 H         1 RES1    0.0000
     33 H14        4.8115    6.7064    0.0809 H         1 RES1    0.0000
     34 H15        5.2309    5.4860    0.9608 H         1 RES1    0.0000
     35 H16        1.4338    6.8807    1.1227 H         1 RES1    0.0000
     36 H17        2.4964    7.5664    0.1821 H         1 RES1    0.0000
     37 H18        2.3873    6.7877    3.6714 H         1 RES1    0.0000
     38 H19        1.1912    7.7757    3.5095 H         1 RES1    0.0000
     39 H20        2.5101    8.2522    4.2074 H         1 RES1    0.0000
     40 H21        1.1444    9.4028    1.6182 H         1 RES1    0.0000
     41 H22        2.5201    9.8561    1.0114 H         1 RES1    0.0000
     42 H23        2.2063   10.1118    2.5285 H         1 RES1    0.0000
@<TRIPOS>BOND
     1    1    2 1
     2    2    4 1
     3    3    6 1
     4    4    5 1
     5    5    6 1
     6    6    7 1
     7    7    8 1
     8    8    2 1
     9    9    3 2
    10   10    9 1
    11   11   10 ar
    12   12   11 ar
    13   13   12 ar
    14   14   13 ar
    15   15   10 ar
    16   16    4 1
    17   17    4 1
    18   18    8 1
    19   19    8 1
    20   20    6 1
    21   21    9 1
    22   22   11 1
    23   23   12 1
    24   24   13 1
    25   25   14 1
    26   26   15 1
    27   27   16 1
    28   28   16 1
    29   29   16 1
    30   30   17 1
    31   31   17 1
    32   32   17 1
    33   33    5 1
    34   34    5 1
    35   35    7 1
    36   36    7 1
    37   37   18 1
    38   38   18 1
    39   39   18 1
    40   40   19 1
    41   41   19 1
    42   42   19 1
    43   14   15 ar
@<TRIPOS>SUBSTRUCTURE
     1 RES1 1

@<TRIPOS>CRYSIN
  12.5774   11.6228   10.8229  90.0000 110.8530  90.0000  14 1

