# MOL2 file generated by ConQuest
# Please check atom types

@<TRIPOS>MOLECULE
WIKBAT
    18    18     1
SMALL
NO_CHARGES
****
Generated from CSD

@<TRIPOS>ATOM
      1 O1        -0.8635    5.8879    8.9569 O.3       1 RES1    0.0000
      2 C1        -1.5775    4.7904    8.5468 C.2       1 RES1    0.0000
      3 C2        -1.0962    3.4877    8.9036 C.2       1 RES1    0.0000
      4 C3        -0.0216    3.2297    9.6429 C.2       1 RES1    0.0000
      5 C4         0.3609    1.8329    9.8859 C.2       1 RES1    0.0000
      6 O2         1.4912    1.7047   10.5617 O.3       1 RES1    0.0000
      7 O3        -0.2886    0.8737    9.5004 O.2       1 RES1    0.0000
      8 C5        -2.6732    5.1852    7.8372 C.2       1 RES1    0.0000
      9 C6        -2.6611    6.5934    7.7992 C.2       1 RES1    0.0000
     10 C7        -1.5563    6.9498    8.4791 C.2       1 RES1    0.0000
     11 N1        -1.0261    8.2340    8.7662 N.pl3     1 RES1    0.0000
     12 O4         0.0334    8.3095    9.3763 O.2       1 RES1    0.0000
     13 O5        -1.6674    9.1975    8.3622 O.2       1 RES1    0.0000
     14 H1        -1.6026    2.7366    8.5519 H         1 RES1    0.0000
     15 H2         0.4806    3.8911    9.9464 H         1 RES1    0.0000
     16 H3         1.6440    0.8409   10.7463 H         1 RES1    0.0000
     17 H4        -3.2894    4.5467    7.4342 H         1 RES1    0.0000
     18 H5        -3.2516    7.2120    7.4239 H         1 RES1    0.0000
@<TRIPOS>BOND
     1    1    2 1
     2    2    3 1
     3    3    4 2
     4    4    5 1
     5    5    6 1
     6    6   16 1
     7    7    5 2
     8    8    2 2
     9    9    8 1
    10   10    1 1
    11   11   10 1
    12   12   11 2
    13   13   11 2
    14   14    3 1
    15   15    4 1
    16   17    8 1
    17   18    9 1
    18    9   10 2
@<TRIPOS>SUBSTRUCTURE
     1 RES1 1

@<TRIPOS>CRYSIN
   5.1540   14.2530   10.4000  90.0000  99.6100  90.0000 231 1

