# MOL2 file generated by ConQuest
# Please check atom types

@<TRIPOS>MOLECULE
WIKYIY
    39    40     1
SMALL
NO_CHARGES
****
Generated from CSD

@<TRIPOS>ATOM
      1 C1         5.9195    9.0651    5.8441 C.3       1 RES1    0.0000
      2 C2         5.0088    9.4658    4.6263 C.3       1 RES1    0.0000
      3 C3         3.8855    8.4630    4.4915 C.3       1 RES1    0.0000
      4 C4         3.9019    6.0007    5.3264 C.ar      1 RES1    0.0000
      5 C5         4.4964    4.9926    6.0892 C.ar      1 RES1    0.0000
      6 C6         5.6121    5.3912    6.8276 C.ar      1 RES1    0.0000
      7 C7         6.1340    6.6632    6.8353 C.ar      1 RES1    0.0000
      8 C8         5.5300    7.6267    6.0280 C.ar      1 RES1    0.0000
      9 C9         4.3986    7.2716    5.2819 C.ar      1 RES1    0.0000
     10 C10        7.3677    9.2220    5.4443 C.3       1 RES1    0.0000
     11 C11        5.6437    9.8580    7.0834 C.3       1 RES1    0.0000
     12 C12        4.7912   10.8862    4.3230 C.3       1 RES1    0.0000
     13 C13        3.7130    8.0772    3.0102 C.3       1 RES1    0.0000
     14 C14        2.5138    8.8828    4.9939 C.3       1 RES1    0.0000
     15 C15        3.9018    3.6199    6.0954 C.3       1 RES1    0.0000
     16 N1         6.3049    4.4244    7.7008 N.pl3     1 RES1    0.0000
     17 O1         6.7680    4.8156    8.7440 O.2       1 RES1    0.0000
     18 O2         6.4002    3.2669    7.3102 O.2       1 RES1    0.0000
     19 H1         5.7687    9.2644    3.8450 H         1 RES1    0.0000
     20 H2         3.0382    5.6604    4.7948 H         1 RES1    0.0000
     21 H3         6.9040    6.9748    7.5062 H         1 RES1    0.0000
     22 H4         7.3998    8.5542    4.5957 H         1 RES1    0.0000
     23 H5         7.4391   10.2608    5.1931 H         1 RES1    0.0000
     24 H6         7.9634    8.7238    6.2041 H         1 RES1    0.0000
     25 H7         6.0924   10.8332    6.9701 H         1 RES1    0.0000
     26 H8         4.5555    9.8580    7.2152 H         1 RES1    0.0000
     27 H9         6.4511    9.6248    7.7820 H         1 RES1    0.0000
     28 H10        4.3325   11.2360    5.2237 H         1 RES1    0.0000
     29 H11        5.6271   11.5328    4.5497 H         1 RES1    0.0000
     30 H12        4.2207   11.2254    3.4621 H         1 RES1    0.0000
     31 H13        3.6053    8.9676    2.4051 H         1 RES1    0.0000
     32 H14        4.4850    7.5154    2.5123 H         1 RES1    0.0000
     33 H15        2.8517    7.4200    3.2170 H         1 RES1    0.0000
     34 H16        2.7190    9.2220    6.0050 H         1 RES1    0.0000
     35 H17        2.1777    9.7520    4.4425 H         1 RES1    0.0000
     36 H18        1.7770    8.0878    4.9327 H         1 RES1    0.0000
     37 H19        4.4305    2.8196    5.6220 H         1 RES1    0.0000
     38 H20        3.9380    3.1906    7.0620 H         1 RES1    0.0000
     39 H21        2.9450    3.5616    5.6527 H         1 RES1    0.0000
@<TRIPOS>BOND
     1    1    2 1
     2    2    3 1
     3    3    9 1
     4    4    5 ar
     5    5    6 ar
     6    6    7 ar
     7    7    8 ar
     8    8    1 1
     9    9    4 ar
    10   10    1 1
    11   11    1 1
    12   12    2 1
    13   13    3 1
    14   14    3 1
    15   15    5 1
    16   16    6 1
    17   17   16 2
    18   18   16 2
    19   19    2 1
    20   20    4 1
    21   21    7 1
    22   22   10 1
    23   23   10 1
    24   24   10 1
    25   25   11 1
    26   26   11 1
    27   27   11 1
    28   28   12 1
    29   29   12 1
    30   30   12 1
    31   31   13 1
    32   32   13 1
    33   33   13 1
    34   34   14 1
    35   35   14 1
    36   36   14 1
    37   37   15 1
    38   38   15 1
    39   39   15 1
    40    8    9 ar
@<TRIPOS>SUBSTRUCTURE
     1 RES1 1

@<TRIPOS>CRYSIN
   8.6230   10.6000   15.3660  90.0000  94.4900  90.0000 231 1

