# MOL2 file generated by ConQuest
# Please check atom types

@<TRIPOS>MOLECULE
WIKYEU
    38    39     1
SMALL
NO_CHARGES
****
Generated from CSD

@<TRIPOS>ATOM
      1 C1         8.4700    0.6151    9.4638 C.3       1 RES1    0.0000
      2 C2         8.0519    2.0359    9.0382 C.3       1 RES1    0.0000
      3 C3         6.5526    2.2717    9.4143 C.3       1 RES1    0.0000
      4 C4         4.7717    0.3123    9.5418 C.ar      1 RES1    0.0000
      5 C5         4.4639   -1.0461    9.6523 C.ar      1 RES1    0.0000
      6 C6         5.5673   -1.8767    9.7056 C.ar      1 RES1    0.0000
      7 C7         6.8885   -1.4364    9.6637 C.ar      1 RES1    0.0000
      8 C8         7.1140   -0.0781    9.5618 C.ar      1 RES1    0.0000
      9 C9         6.0571    0.8275    9.4942 C.ar      1 RES1    0.0000
     10 C10        9.2075    0.5761   10.8129 C.3       1 RES1    0.0000
     11 C11        9.3353   -0.0281    8.3908 C.3       1 RES1    0.0000
     12 C12        6.3687    2.9977   10.7605 C.3       1 RES1    0.0000
     13 C13        5.8741    3.0820    8.2937 C.3       1 RES1    0.0000
     14 C14        3.0188   -1.5145    9.7256 C.3       1 RES1    0.0000
     15 N1         5.3689   -3.3349    9.8227 N.pl3     1 RES1    0.0000
     16 N2         3.6112    1.2350    9.4685 N.pl3     1 RES1    0.0000
     17 O1         6.0183   -3.9282   10.6872 O.2       1 RES1    0.0000
     18 O2         4.5839   -3.8798    9.1229 O.2       1 RES1    0.0000
     19 O3         3.3053    1.8298   10.4711 O.2       1 RES1    0.0000
     20 O4         3.0508    1.3318    8.3784 O.2       1 RES1    0.0000
     21 H1         7.6947   -2.1390    9.7780 H         1 RES1    0.0000
     22 H2         8.6529    2.7635    9.5495 H         1 RES1    0.0000
     23 H3         8.1496    1.9360    7.9595 H         1 RES1    0.0000
     24 H4        10.2112    0.9836   10.6824 H         1 RES1    0.0000
     25 H5         8.5078    1.0148   11.5203 H         1 RES1    0.0000
     26 H6         9.4176   -0.4528   11.0633 H         1 RES1    0.0000
     27 H7         8.8368    0.0000    7.4358 H         1 RES1    0.0000
     28 H8        10.2209    0.5152    8.0642 H         1 RES1    0.0000
     29 H9         9.5434   -0.9680    8.8830 H         1 RES1    0.0000
     30 H10        6.8527    2.5449   11.6345 H         1 RES1    0.0000
     31 H11        6.9882    3.9032   10.6634 H         1 RES1    0.0000
     32 H12        5.2944    2.9665   10.9205 H         1 RES1    0.0000
     33 H13        6.3203    4.0594    8.1880 H         1 RES1    0.0000
     34 H14        5.9041    2.6542    7.3025 H         1 RES1    0.0000
     35 H15        4.8878    3.2787    8.6831 H         1 RES1    0.0000
     36 H16        2.8262   -1.9672    8.7687 H         1 RES1    0.0000
     37 H17        3.1069   -2.3263   10.4349 H         1 RES1    0.0000
     38 H18        2.3326   -0.7494   10.0445 H         1 RES1    0.0000
@<TRIPOS>BOND
     1    1    2 1
     2    2    3 1
     3    3    9 1
     4    4    5 ar
     5    5    6 ar
     6    6    7 ar
     7    7    8 ar
     8    8    1 1
     9    9    4 ar
    10   10    1 1
    11   11    1 1
    12   12    3 1
    13   13    3 1
    14   14    5 1
    15   15    6 1
    16   16    4 1
    17   17   15 2
    18   18   15 2
    19   19   16 2
    20   20   16 2
    21   21    7 1
    22   22    2 1
    23   23    2 1
    24   24   10 1
    25   25   10 1
    26   26   10 1
    27   27   11 1
    28   28   11 1
    29   29   11 1
    30   30   12 1
    31   31   12 1
    32   32   12 1
    33   33   13 1
    34   34   13 1
    35   35   13 1
    36   36   14 1
    37   37   14 1
    38   38   14 1
    39    8    9 ar
@<TRIPOS>SUBSTRUCTURE
     1 RES1 1

@<TRIPOS>CRYSIN
   9.6789   15.6129    9.5209  90.0000  90.0000  90.0000  19 1

