# MOL2 file generated by ConQuest
# Please check atom types

@<TRIPOS>MOLECULE
WIKYUK
    42    43     1
SMALL
NO_CHARGES
****
Generated from CSD

@<TRIPOS>ATOM
      1 C1         4.4588    7.3000    3.3289 C.3       1 RES1    0.0000
      2 C2         3.6230    5.9898    3.4235 C.3       1 RES1    0.0000
      3 C3         3.0130    5.5907    2.1268 C.3       1 RES1    0.0000
      4 C4         2.0496    6.5875    1.5380 C.3       1 RES1    0.0000
      5 C5         2.0262    9.0145    0.9150 C.ar      1 RES1    0.0000
      6 C6         2.4905   10.3101    0.9607 C.ar      1 RES1    0.0000
      7 C7         3.5979   10.6779    1.7256 C.ar      1 RES1    0.0000
      8 C8         4.1837    9.6498    2.4514 C.ar      1 RES1    0.0000
      9 C9         3.7219    8.3218    2.4612 C.ar      1 RES1    0.0000
     10 C10        2.6216    7.9990    1.6538 C.ar      1 RES1    0.0000
     11 C11        4.5965    7.8381    4.7593 C.3       1 RES1    0.0000
     12 C12        5.8526    7.0723    2.7417 C.3       1 RES1    0.0000
     13 C13        4.3828    4.8155    4.0791 C.3       1 RES1    0.0000
     14 C14        0.6539    6.5478    2.1758 C.3       1 RES1    0.0000
     15 C15        1.8885    6.1936    0.0522 C.3       1 RES1    0.0000
     16 C16        4.2004   12.0633    1.7762 C.3       1 RES1    0.0000
     17 N1         1.7675   11.2943    0.1468 N.pl3     1 RES1    0.0000
     18 O1         1.2683   10.9255   -0.9019 O.2       1 RES1    0.0000
     19 O2         1.6816   12.4404    0.5464 O.2       1 RES1    0.0000
     20 H1         2.5333    6.0076    3.6045 H         1 RES1    0.0000
     21 H2         1.2168    8.8390    0.3099 H         1 RES1    0.0000
     22 H3         5.0123    9.8838    3.0010 H         1 RES1    0.0000
     23 H4         3.9885    5.4956    1.5658 H         1 RES1    0.0000
     24 H5         2.4570    4.6912    2.3649 H         1 RES1    0.0000
     25 H6         3.6178    8.1181    5.0724 H         1 RES1    0.0000
     26 H7         5.0086    7.1046    5.3823 H         1 RES1    0.0000
     27 H8         5.1747    8.7450    4.7951 H         1 RES1    0.0000
     28 H9         6.4116    6.4255    3.3599 H         1 RES1    0.0000
     29 H10        5.6925    6.7076    1.7289 H         1 RES1    0.0000
     30 H11        6.3516    7.9927    2.8379 H         1 RES1    0.0000
     31 H12        3.7409    3.9702    4.2406 H         1 RES1    0.0000
     32 H13        5.1074    4.5135    3.3762 H         1 RES1    0.0000
     33 H14        4.7309    5.0882    5.0398 H         1 RES1    0.0000
     34 H15        0.2836    5.5688    2.1366 H         1 RES1    0.0000
     35 H16        0.7254    6.8225    3.1968 H         1 RES1    0.0000
     36 H17        0.0060    7.2196    1.7289 H         1 RES1    0.0000
     37 H18        2.8700    6.2479   -0.3914 H         1 RES1    0.0000
     38 H19        1.6171    5.1718    0.0815 H         1 RES1    0.0000
     39 H20        1.1833    6.8330   -0.4730 H         1 RES1    0.0000
     40 H21        3.5961   12.7152    2.3160 H         1 RES1    0.0000
     41 H22        5.1614   12.0674    2.1855 H         1 RES1    0.0000
     42 H23        4.2332   12.5167    0.8155 H         1 RES1    0.0000
@<TRIPOS>BOND
     1    1    2 1
     2    2    3 1
     3    3    4 1
     4    4   10 1
     5    5    6 ar
     6    6    7 ar
     7    7    8 ar
     8    8    9 ar
     9    9    1 1
    10   10    5 ar
    11   11    1 1
    12   12    1 1
    13   13    2 1
    14   14    4 1
    15   15    4 1
    16   16    7 1
    17   17    6 1
    18   18   17 2
    19   19   17 2
    20   20    2 1
    21   21    5 1
    22   22    8 1
    23   23    3 1
    24   24    3 1
    25   25   11 1
    26   26   11 1
    27   27   11 1
    28   28   12 1
    29   29   12 1
    30   30   12 1
    31   31   13 1
    32   32   13 1
    33   33   13 1
    34   34   14 1
    35   35   14 1
    36   36   14 1
    37   37   15 1
    38   38   15 1
    39   39   15 1
    40   40   16 1
    41   41   16 1
    42   42   16 1
    43    9   10 ar
@<TRIPOS>SUBSTRUCTURE
     1 RES1 1

@<TRIPOS>CRYSIN
   8.6950   10.4480   16.3100  90.0000  90.0900  90.0000 231 1

