# MOL2 file generated by ConQuest
# Please check atom types

@<TRIPOS>MOLECULE
WIKYOE
    41    42     1
SMALL
NO_CHARGES
****
Generated from CSD

@<TRIPOS>ATOM
      1 C1        -0.8559    5.3836    4.5896 C.3       1 RES1    0.0000
      2 C2         0.4164    5.5015    5.4603 C.3       1 RES1    0.0000
      3 C3         1.6203    5.8083    4.4983 C.3       1 RES1    0.0000
      4 C4         1.7609    4.8422    2.0311 C.ar      1 RES1    0.0000
      5 C5         1.1530    4.3113    0.9022 C.ar      1 RES1    0.0000
      6 C6        -0.2274    4.1106    1.0439 C.ar      1 RES1    0.0000
      7 C7        -0.9340    4.4093    2.1901 C.ar      1 RES1    0.0000
      8 C8        -0.2640    4.9671    3.2670 C.ar      1 RES1    0.0000
      9 C9         1.1061    5.1829    3.2056 C.ar      1 RES1    0.0000
     10 C10       -1.7291    4.2600    5.1957 C.3       1 RES1    0.0000
     11 C11       -1.7499    6.6041    4.3880 C.3       1 RES1    0.0000
     12 C12        0.3061    6.4349    6.6631 C.3       1 RES1    0.0000
     13 C13        2.8100    5.0697    5.0934 C.3       1 RES1    0.0000
     14 C14        1.9394    7.2668    4.2951 C.3       1 RES1    0.0000
     15 C15        1.9521    3.9823   -0.3354 C.3       1 RES1    0.0000
     16 N1        -0.9957    3.5202   -0.0535 N.pl3     1 RES1    0.0000
     17 N2         3.2365    5.0254    1.9697 N.pl3     1 RES1    0.0000
     18 O1        -1.8370    2.7210    0.2204 O.2       1 RES1    0.0000
     19 O2        -0.7427    3.8668   -1.2029 O.2       1 RES1    0.0000
     20 O3         3.9381    4.0931    2.2499 O.2       1 RES1    0.0000
     21 O4         3.6574    6.1035    1.6516 O.2       1 RES1    0.0000
     22 H1         0.7561    4.4805    5.8098 H         1 RES1    0.0000
     23 H2        -1.9539    4.2005    2.2200 H         1 RES1    0.0000
     24 H3        -1.1084    3.4537    5.4791 H         1 RES1    0.0000
     25 H4        -2.1024    4.5622    6.1247 H         1 RES1    0.0000
     26 H5        -2.5363    4.0488    4.4872 H         1 RES1    0.0000
     27 H6        -2.0950    6.8841    5.3374 H         1 RES1    0.0000
     28 H7        -1.1774    7.4208    3.9991 H         1 RES1    0.0000
     29 H8        -2.5765    6.3241    3.7787 H         1 RES1    0.0000
     30 H9        -0.2097    7.3042    6.2979 H         1 RES1    0.0000
     31 H10       -0.2985    5.7990    7.3055 H         1 RES1    0.0000
     32 H11        1.2576    6.4641    7.1638 H         1 RES1    0.0000
     33 H12        2.9774    5.4023    6.1089 H         1 RES1    0.0000
     34 H13        2.8851    4.0138    5.0383 H         1 RES1    0.0000
     35 H14        3.5669    5.1339    4.3613 H         1 RES1    0.0000
     36 H15        1.3849    8.0509    3.9362 H         1 RES1    0.0000
     37 H16        2.2798    7.7826    5.1485 H         1 RES1    0.0000
     38 H17        2.7629    7.3858    3.6213 H         1 RES1    0.0000
     39 H18        1.7776    3.0103   -0.7243 H         1 RES1    0.0000
     40 H19        1.8148    4.6672   -1.1179 H         1 RES1    0.0000
     41 H20        2.9194    3.5587   -0.1417 H         1 RES1    0.0000
@<TRIPOS>BOND
     1    1    2 1
     2    2    3 1
     3    3    9 1
     4    4    5 ar
     5    5    6 ar
     6    6    7 ar
     7    7    8 ar
     8    8    1 1
     9    9    4 ar
    10   10    1 1
    11   11    1 1
    12   12    2 1
    13   13    3 1
    14   14    3 1
    15   15    5 1
    16   16    6 1
    17   17    4 1
    18   18   16 2
    19   19   16 2
    20   20   17 2
    21   21   17 2
    22   22    2 1
    23   23    7 1
    24   24   10 1
    25   25   10 1
    26   26   10 1
    27   27   11 1
    28   28   11 1
    29   29   11 1
    30   30   12 1
    31   31   12 1
    32   32   12 1
    33   33   13 1
    34   34   13 1
    35   35   13 1
    36   36   14 1
    37   37   14 1
    38   38   14 1
    39   39   15 1
    40   40   15 1
    41   41   15 1
    42    8    9 ar
@<TRIPOS>SUBSTRUCTURE
     1 RES1 1

@<TRIPOS>CRYSIN
   8.3640   11.6680   15.9960  90.0000 100.1700  90.0000 231 1

