# MOL2 file generated by ConQuest
# Please check atom types

@<TRIPOS>MOLECULE
WIKZAR
    88    90     2
SMALL
NO_CHARGES
****
Generated from CSD

@<TRIPOS>ATOM
      1 C1         0.7778    9.3030   10.7616 C.3       1 RES1    0.0000
      2 C2         0.8703   10.5225   11.6781 C.3       1 RES1    0.0000
      3 C3         1.2809   11.7490   11.1388 C.3       1 RES1    0.0000
      4 C4         2.5541   11.7986   10.3269 C.3       1 RES1    0.0000
      5 C5         3.8771   10.4205    8.7575 C.ar      1 RES1    0.0000
      6 C6         4.1970    9.2864    8.0621 C.ar      1 RES1    0.0000
      7 C7         3.4437    8.1209    8.1364 C.ar      1 RES1    0.0000
      8 C8         2.3736    8.2088    9.0150 C.ar      1 RES1    0.0000
      9 C9         1.9935    9.3139    9.7967 C.ar      1 RES1    0.0000
     10 C10        2.7912   10.4668    9.6240 C.ar      1 RES1    0.0000
     11 C11        0.7964    8.0628   11.6509 C.3       1 RES1    0.0000
     12 C12       -0.5059    9.3501    9.9284 C.3       1 RES1    0.0000
     13 C13       -0.3571   10.6845   12.6310 C.3       1 RES1    0.0000
     14 C14        3.7636   12.1464   11.1979 C.3       1 RES1    0.0000
     15 C15        2.4042   12.9193    9.2816 C.3       1 RES1    0.0000
     16 C16        3.6951    6.8998    7.2699 C.3       1 RES1    0.0000
     17 N1         5.3671    9.3627    7.1759 N.pl3     1 RES1    0.0000
     18 N2         1.5998    6.9401    9.0468 N.pl3     1 RES1    0.0000
     19 O1         5.5092   10.3907    6.5230 O.2       1 RES1    0.0000
     20 O2         6.1416    8.4089    7.1547 O.2       1 RES1    0.0000
     21 O3         0.6430    6.8461    8.3045 O.2       1 RES1    0.0000
     22 O4         2.0297    6.0339    9.7467 O.2       1 RES1    0.0000
     23 H1         1.6990   10.2641   12.3765 H         1 RES1    0.0000
     24 H2         4.5232   11.2417    8.6650 H         1 RES1    0.0000
     25 H3         0.4611   12.0711   10.4526 H         1 RES1    0.0000
     26 H4         1.3607   12.4816   11.9220 H         1 RES1    0.0000
     27 H5         1.6817    8.1182   12.2401 H         1 RES1    0.0000
     28 H6         0.2026    8.2640   12.4977 H         1 RES1    0.0000
     29 H7         0.6168    7.1070   11.1494 H         1 RES1    0.0000
     30 H8        -1.3033    9.1161   10.6344 H         1 RES1    0.0000
     31 H9        -0.4286   10.3567    9.5285 H         1 RES1    0.0000
     32 H10       -0.6145    8.4434    9.3922 H         1 RES1    0.0000
     33 H11       -1.0617   11.2598   12.0281 H         1 RES1    0.0000
     34 H12       -0.3295    9.7955   13.2248 H         1 RES1    0.0000
     35 H13       -0.0969   11.4644   13.2854 H         1 RES1    0.0000
     36 H14        3.5773   13.0483   11.7251 H         1 RES1    0.0000
     37 H15        3.8146   11.3600   11.9069 H         1 RES1    0.0000
     38 H16        4.6503   12.2237   10.6041 H         1 RES1    0.0000
     39 H17        1.7144   12.7334    8.4984 H         1 RES1    0.0000
     40 H18        2.1450   13.7712    9.8618 H         1 RES1    0.0000
     41 H19        3.1879   13.2593    8.5893 H         1 RES1    0.0000
     42 H20        4.0948    7.2127    6.3624 H         1 RES1    0.0000
     43 H21        4.4975    6.3231    7.6652 H         1 RES1    0.0000
     44 H22        2.8110    6.2873    7.1653 H         1 RES1    0.0000
     45 C17       -0.0483    3.8337   13.2081 C.3       2 RES2    0.0000
     46 C18       -0.3431    2.9479   12.0205 C.3       2 RES2    0.0000
     47 C19       -1.2552    3.0564   11.1767 C.3       2 RES2    0.0000
     48 C20       -2.1959    4.2393   11.0298 C.3       2 RES2    0.0000
     49 C21       -2.8756    6.2848   12.2780 C.ar      2 RES2    0.0000
     50 C22       -2.8124    7.1874   13.3066 C.ar      2 RES2    0.0000
     51 C23       -1.8685    7.1236   14.3125 C.ar      2 RES2    0.0000
     52 C24       -0.9948    6.0392   14.2019 C.ar      2 RES2    0.0000
     53 C25       -1.0200    5.0387   13.1990 C.ar      2 RES2    0.0000
     54 C26       -2.0135    5.1962   12.2174 C.ar      2 RES2    0.0000
     55 C27       -0.2505    2.9939   14.4518 C.3       2 RES2    0.0000
     56 C28        1.4020    4.3060   13.1430 C.3       2 RES2    0.0000
     57 C29        0.6266    1.7459   11.8266 C.3       2 RES2    0.0000
     58 C30       -3.6291    3.7042   11.0025 C.3       2 RES2    0.0000
     59 C31       -1.9231    4.9690    9.7391 C.3       2 RES2    0.0000
     60 C32       -1.7631    8.1484   15.4274 C.3       2 RES2    0.0000
     61 N3        -3.7909    8.2899   13.2793 N.pl3     2 RES2    0.0000
     62 N4         0.0241    6.0415   15.2759 N.pl3     2 RES2    0.0000
     63 O5        -3.9621    8.8488   12.2038 O.2       2 RES2    0.0000
     64 O6        -4.3758    8.5742   14.3034 O.2       2 RES2    0.0000
     65 O7         1.0521    6.6463   15.0760 O.2       2 RES2    0.0000
     66 O8        -0.2484    5.5266   16.3303 O.2       2 RES2    0.0000
     67 H23        0.3609    3.5776   11.3615 H         2 RES2    0.0000
     68 H24       -3.5549    6.4187   11.5130 H         2 RES2    0.0000
     69 H25       -1.8943    2.2019   11.3918 H         2 RES2    0.0000
     70 H26       -0.8035    2.9195   10.1799 H         2 RES2    0.0000
     71 H27        0.3161    2.0912   14.4064 H         2 RES2    0.0000
     72 H28       -1.2695    2.6769   14.3155 H         2 RES2    0.0000
     73 H29       -0.2375    3.5286   15.3608 H         2 RES2    0.0000
     74 H30        1.4628    5.3413   12.9218 H         2 RES2    0.0000
     75 H31        2.0147    3.4659   12.9976 H         2 RES2    0.0000
     76 H32        1.4303    4.4545   14.2095 H         2 RES2    0.0000
     77 H33        0.1405    1.2215   12.5583 H         2 RES2    0.0000
     78 H34        1.4930    1.6751   12.4825 H         2 RES2    0.0000
     79 H35        0.3725    1.3344   10.8465 H         2 RES2    0.0000
     80 H36       -3.7439    3.1599   11.9372 H         2 RES2    0.0000
     81 H37       -3.7530    3.0774   10.1648 H         2 RES2    0.0000
     82 H38       -4.3111    4.5269   10.8465 H         2 RES2    0.0000
     83 H39       -2.0320    4.3491    8.8923 H         2 RES2    0.0000
     84 H40       -0.9552    5.3870    9.7709 H         2 RES2    0.0000
     85 H41       -2.4115    5.8733    9.5891 H         2 RES2    0.0000
     86 H42       -2.4345    7.9068   16.2091 H         2 RES2    0.0000
     87 H43       -1.9781    9.1344   15.1032 H         2 RES2    0.0000
     88 H44       -0.7588    8.1467   15.7546 H         2 RES2    0.0000
@<TRIPOS>BOND
     1    1    2 1
     2    2    3 1
     3    3    4 1
     4    4   10 1
     5    5    6 ar
     6    6    7 ar
     7    7    8 ar
     8    8    9 ar
     9    9    1 1
    10   10    5 ar
    11   11    1 1
    12   12    1 1
    13   13    2 1
    14   14    4 1
    15   15    4 1
    16   16    7 1
    17   17    6 1
    18   18    8 1
    19   19   17 2
    20   20   17 2
    21   21   18 2
    22   22   18 2
    23   23    2 1
    24   24    5 1
    25   25    3 1
    26   26    3 1
    27   27   11 1
    28   28   11 1
    29   29   11 1
    30   30   12 1
    31   31   12 1
    32   32   12 1
    33   33   13 1
    34   34   13 1
    35   35   13 1
    36   36   14 1
    37   37   14 1
    38   38   14 1
    39   39   15 1
    40   40   15 1
    41   41   15 1
    42   42   16 1
    43   43   16 1
    44   44   16 1
    45   45   46 1
    46   46   47 1
    47   47   48 1
    48   48   54 1
    49   49   50 ar
    50   50   51 ar
    51   51   52 ar
    52   52   53 ar
    53   53   45 1
    54   54   49 ar
    55   55   45 1
    56   56   45 1
    57   57   46 1
    58   58   48 1
    59   59   48 1
    60   60   51 1
    61   61   50 1
    62   62   52 1
    63   63   61 2
    64   64   61 2
    65   65   62 2
    66   66   62 2
    67   67   46 1
    68   68   49 1
    69   69   47 1
    70   70   47 1
    71   71   55 1
    72   72   55 1
    73   73   55 1
    74   74   56 1
    75   75   56 1
    76   76   56 1
    77   77   57 1
    78   78   57 1
    79   79   57 1
    80   80   58 1
    81   81   58 1
    82   82   58 1
    83   83   59 1
    84   84   59 1
    85   85   59 1
    86   86   60 1
    87   87   60 1
    88   88   60 1
    89    9   10 ar
    90   53   54 ar
@<TRIPOS>SUBSTRUCTURE
     1 RES1 1
     2 RES2 45

@<TRIPOS>CRYSIN
   8.2352   13.0225   15.4669  99.8560  94.8860  97.0180   2 1

