# MOL2 file generated by ConQuest
# Please check atom types

@<TRIPOS>MOLECULE
WIKZUL
    36    33     4
SMALL
NO_CHARGES
****
Generated from CSD

@<TRIPOS>ATOM
      1 N1        -0.4177    2.9954   -0.4685 N.3       1 RES1    0.0000
      2 N2        -0.0558    4.1736   -1.0096 N.2       1 RES1    0.0000
      3 C1        -0.8294    4.4239   -2.0387 C.2       1 RES1    0.0000
      4 C2        -1.7102    3.3769   -2.1652 C.2       1 RES1    0.0000
      5 C3        -1.4219    2.5016   -1.1630 C.2       1 RES1    0.0000
      6 N3        -2.7395    3.2244   -3.1316 N.pl3     1 RES1    0.0000
      7 O1        -3.4284    2.2015   -3.0769 O.2       1 RES1    0.0000
      8 O2        -2.8894    4.1065   -3.9583 O.2       1 RES1    0.0000
      9 H1        -0.0790    2.5707    0.3754 H         1 RES1    0.0000
     10 H2        -0.7442    5.1067   -2.5301 H         1 RES1    0.0000
     11 H3        -1.7623    1.7135   -0.9631 H         1 RES1    0.0000
     12 N4         1.9547    2.6461    2.3742 N.3       2 RES2    0.0000
     13 N5         0.8654    2.0171    1.8902 N.2       2 RES2    0.0000
     14 C4         0.6527    0.9335    2.6109 C.2       2 RES2    0.0000
     15 C5         1.6230    0.8574    3.5698 C.2       2 RES2    0.0000
     16 C6         2.4322    1.9636    3.3878 C.2       2 RES2    0.0000
     17 N6         1.7787   -0.1237    4.5647 N.pl3     2 RES2    0.0000
     18 O3         2.7261   -0.0246    5.3376 O.2       2 RES2    0.0000
     19 O4         0.9459   -1.0352    4.6014 O.2       2 RES2    0.0000
     20 H4         2.3334    3.4273    2.2036 H         2 RES2    0.0000
     21 H5        -0.0568    0.4114    2.4158 H         2 RES2    0.0000
     22 H6         3.1262    2.2586    3.7951 H         2 RES2    0.0000
     23 N7         2.0280    5.7075    0.2546 N.3       3 RES3    0.0000
     24 N8         2.7036    5.1986    1.2911 N.2       3 RES3    0.0000
     25 C7         3.6581    6.0458    1.6413 C.2       3 RES3    0.0000
     26 C8         3.5817    7.1222    0.7900 C.2       3 RES3    0.0000
     27 C9         2.5374    6.8739   -0.0694 C.2       3 RES3    0.0000
     28 N9         4.4290    8.2641    0.7770 N.pl3     3 RES3    0.0000
     29 O5         4.2045    9.1240   -0.0645 O.2       3 RES3    0.0000
     30 O6         5.3180    8.3181    1.6119 O.2       3 RES3    0.0000
     31 H7         1.3664    5.3064   -0.2612 H         3 RES3    0.0000
     32 H8         4.2488    5.8719    2.3668 H         3 RES3    0.0000
     33 H9         2.2263    7.3829   -0.8080 H         3 RES3    0.0000
     34 H10        0.5872    4.6822   -0.6039 Du        4 SUP4    0.0000
     35 H11        0.5417    2.3259    1.3385 Du        4 SUP4    0.0000
     36 H12        2.6177    4.5612    1.6241 Du        4 SUP4    0.0000
@<TRIPOS>BOND
     1    1    2 1
     2    2    3 2
     3    3    4 1
     4    4    5 2
     5    5    1 1
     6    6    4 1
     7    7    6 2
     8    8    6 2
     9    9    1 1
    10   10    3 1
    11   11    5 1
    12   12   13 1
    13   13   14 2
    14   14   15 1
    15   15   16 2
    16   16   12 1
    17   17   15 1
    18   18   17 2
    19   19   17 2
    20   20   12 1
    21   21   14 1
    22   22   16 1
    23   23   24 1
    24   24   25 2
    25   25   26 1
    26   26   27 2
    27   27   23 1
    28   28   26 1
    29   29   28 2
    30   30   28 2
    31   31   23 1
    32   32   25 1
    33   33   27 1
@<TRIPOS>SUBSTRUCTURE
     1 RES1 1
     2 RES2 12
     3 RES3 23
     4 SUP4 34

@<TRIPOS>CRYSIN
   9.8831    9.6688    8.3417  81.1390 100.0760 105.9660   2 1

