# MOL2 file generated by ConQuest
# Please check atom types

@<TRIPOS>MOLECULE
WIKZUL01
    33    33     3
SMALL
NO_CHARGES
****
Generated from CSD

@<TRIPOS>ATOM
      1 N1        -1.1199    2.9098    1.8213 N.pl3     1 RES1    0.0000
      2 H1        -1.4050    3.5686    1.3478 H         1 RES1    0.0000
      3 N2        -1.4720    2.6791    3.1170 N.2       1 RES1    0.0000
      4 C1        -0.8268    1.5818    3.5119 C.2       1 RES1    0.0000
      5 H2        -0.8746    1.1940    4.3558 H         1 RES1    0.0000
      6 C2        -0.0697    1.1196    2.4426 C.2       1 RES1    0.0000
      7 C3        -0.2799    1.9810    1.3885 C.2       1 RES1    0.0000
      8 H3         0.0951    1.9222    0.5399 H         1 RES1    0.0000
      9 N3         0.7876   -0.0112    2.4189 N.pl3     1 RES1    0.0000
     10 O1         1.3849   -0.2772    1.3762 O.2       1 RES1    0.0000
     11 O2         0.8897   -0.6845    3.4579 O.2       1 RES1    0.0000
     12 N4         4.0156    3.4137   -1.2294 N.pl3     2 RES2    0.0000
     13 H4         4.3204    3.5516   -2.0212 H         2 RES2    0.0000
     14 N5         3.1587    4.2512   -0.5645 N.2       2 RES2    0.0000
     15 C4         2.9323    3.7081    0.6232 C.2       2 RES2    0.0000
     16 H5         2.3915    4.0664    1.2900 H         2 RES2    0.0000
     17 C5         3.6357    2.5182    0.7047 C.2       2 RES2    0.0000
     18 C6         4.3086    2.3597   -0.4802 C.2       2 RES2    0.0000
     19 H6         4.8644    1.6514   -0.7122 H         2 RES2    0.0000
     20 N6         3.6996    1.6305    1.8289 N.pl3     2 RES2    0.0000
     21 O3         4.4055    0.6206    1.7171 O.2       2 RES2    0.0000
     22 O4         3.0553    1.9209    2.8376 O.2       2 RES2    0.0000
     23 N7         4.5873    4.2669    4.4032 N.pl3     3 RES3    0.0000
     24 H7         5.1549    3.7207    4.0584 H         3 RES3    0.0000
     25 N8         4.1238    5.3877    3.7904 N.2       3 RES3    0.0000
     26 C7         3.2670    5.9790    4.6153 C.2       3 RES3    0.0000
     27 H8         2.7978    6.7647    4.4505 H         3 RES3    0.0000
     28 C8         3.1976    5.2086    5.7708 C.2       3 RES3    0.0000
     29 C9         4.0439    4.1318    5.6051 C.2       3 RES3    0.0000
     30 H9         4.2023    3.4479    6.2150 H         3 RES3    0.0000
     31 N9         2.4257    5.4855    6.9377 N.pl3     3 RES3    0.0000
     32 O5         2.4847    4.6745    7.8753 O.2       3 RES3    0.0000
     33 O6         1.7319    6.5130    6.9538 O.2       3 RES3    0.0000
@<TRIPOS>BOND
     1    1    2 1
     2    3    1 1
     3    4    3 2
     4    5    4 1
     5    6    4 1
     6    7    1 1
     7    8    7 1
     8    9    6 1
     9   10    9 2
    10   11    9 2
    11   12   13 1
    12   14   12 1
    13   15   14 2
    14   16   15 1
    15   17   15 1
    16   18   12 1
    17   19   18 1
    18   20   17 1
    19   21   20 2
    20   22   20 2
    21   23   24 1
    22   25   23 1
    23   26   25 2
    24   27   26 1
    25   28   26 1
    26   29   23 1
    27   30   29 1
    28   31   28 1
    29   32   31 2
    30   33   31 2
    31    6    7 2
    32   17   18 2
    33   28   29 2
@<TRIPOS>SUBSTRUCTURE
     1 RES1 1
     2 RES2 12
     3 RES3 23

@<TRIPOS>CRYSIN
   8.0288    9.6212    9.9060  74.3950  81.5490  83.2550   2 1

