# MOL2 file generated by ConQuest
# Please check atom types

@<TRIPOS>MOLECULE
WILBEY
    69    33     2
SMALL
NO_CHARGES
****
Generated from CSD

@<TRIPOS>ATOM
      1 N1         0.1047    4.5003    0.5876 N.3       1 RES1    0.0000
      2 N2        -0.6419    4.6127   -0.5308 N.2       1 RES1    0.0000
      3 C1        -0.5719    3.4202   -1.1332 C.2       1 RES1    0.0000
      4 C2         0.2517    2.5528   -0.3285 C.2       1 RES1    0.0000
      5 C3         0.6984    3.3562    0.7501 C.2       1 RES1    0.0000
      6 C4        -1.3642    3.0989   -2.3379 C.ar      1 RES1    0.0000
      7 C5        -1.4181    4.0775   -3.3336 C.ar      1 RES1    0.0000
      8 C6        -2.2073    3.8854   -4.4360 C.ar      1 RES1    0.0000
      9 C7        -2.9609    2.7582   -4.5304 C.ar      1 RES1    0.0000
     10 C8        -2.9566    1.8871   -3.5973 C.ar      1 RES1    0.0000
     11 C9        -2.2040    1.9294   -2.3936 C.ar      1 RES1    0.0000
     12 C10        1.5233    3.1243    1.9549 C.ar      1 RES1    0.0000
     13 C11        1.3740    1.9403    2.7198 C.ar      1 RES1    0.0000
     14 C12        2.0784    1.8726    3.9291 C.ar      1 RES1    0.0000
     15 C13        2.8786    2.9080    4.3474 C.ar      1 RES1    0.0000
     16 C14        3.0329    3.9518    3.6404 C.ar      1 RES1    0.0000
     17 C15        2.4084    4.1596    2.3311 C.ar      1 RES1    0.0000
     18 N3         0.7715    1.3302   -0.7092 N.pl3     1 RES1    0.0000
     19 O1         0.5273    0.8868   -1.8606 O.2       1 RES1    0.0000
     20 O2         1.5130    0.6971    0.0546 O.2       1 RES1    0.0000
     21 N4         8.2339   -1.4534    6.2750 Du        2 SUP2    0.0000
     22 N5         7.4532   -1.5186    5.1430 Du        2 SUP2    0.0000
     23 C16        7.4990   -0.0495    4.7543 Du        2 SUP2    0.0000
     24 C17        8.4120    0.4591    5.3578 Du        2 SUP2    0.0000
     25 C18        6.6864   -0.0592    3.5404 Du        2 SUP2    0.0000
     26 C19        6.6756   -1.0897    2.6243 Du        2 SUP2    0.0000
     27 C20        5.9076   -0.9943    1.4923 Du        2 SUP2    0.0000
     28 C21        5.1380    0.0797    1.2195 Du        2 SUP2    0.0000
     29 C22        5.1442    1.2202    2.1527 Du        2 SUP2    0.0000
     30 C23        5.9654    1.0487    3.2040 Du        2 SUP2    0.0000
     31 N6         8.9958    1.7373    4.9180 Du        2 SUP2    0.0000
     32 O3         8.7269    2.1130    3.8177 Du        2 SUP2    0.0000
     33 O4         9.7234    2.3233    5.7113 Du        2 SUP2    0.0000
     34 N7         8.8008   -1.5307   -0.5365 Du        2 SUP2    0.0000
     35 N8         9.6398   -1.6008    0.5831 Du        2 SUP2    0.0000
     36 C24        9.7082   -0.0580    0.9172 Du        2 SUP2    0.0000
     37 C25        8.8067    0.4228    0.2989 Du        2 SUP2    0.0000
     38 C26       10.5318   -0.0870    2.1413 Du        2 SUP2    0.0000
     39 C27       11.3379    0.9460    2.4016 Du        2 SUP2    0.0000
     40 C28       12.1871    1.1139    3.4484 Du        2 SUP2    0.0000
     41 C29       12.0837    0.0326    4.4406 Du        2 SUP2    0.0000
     42 C30       11.1911   -1.0088    4.2099 Du        2 SUP2    0.0000
     43 C31       10.4565   -1.0692    3.0847 Du        2 SUP2    0.0000
     44 N9         8.3200    1.7264    0.7104 Du        2 SUP2    0.0000
     45 O5         8.5840    2.1275    1.8299 Du        2 SUP2    0.0000
     46 O6         7.5774    2.3498   -0.0796 Du        2 SUP2    0.0000
     47 H1         0.0758    5.3158    1.1934 H         1 RES1    0.0000
     48 H2        -0.9267    4.8446   -3.4097 H         1 RES1    0.0000
     49 H3        -2.2320    4.6030   -5.0691 H         1 RES1    0.0000
     50 H4        -3.5914    2.5733   -5.2964 H         1 RES1    0.0000
     51 H5        -3.5484    1.1115   -3.6825 H         1 RES1    0.0000
     52 H6        -2.0602    1.2685   -1.5912 H         1 RES1    0.0000
     53 H7         0.6903    1.1719    2.4209 H         1 RES1    0.0000
     54 H8         1.9325    1.0632    4.3531 H         1 RES1    0.0000
     55 H9         3.3561    2.8270    5.1828 H         1 RES1    0.0000
     56 H10        3.8656    4.6030    3.7393 H         1 RES1    0.0000
     57 H11        2.5526    5.0259    1.7958 H         1 RES1    0.0000
     58 H12        8.4438   -2.1867    6.7853 Du        2 SUP2    0.0000
     59 H13        7.1990   -1.8605    2.7732 Du        2 SUP2    0.0000
     60 H14        5.9404   -1.5947    0.8297 Du        2 SUP2    0.0000
     61 H15        4.6053    0.0967    0.4546 Du        2 SUP2    0.0000
     62 H16        4.6251    2.1022    1.9890 Du        2 SUP2    0.0000
     63 H17        5.8842    1.8726    3.8189 Du        2 SUP2    0.0000
     64 H18        8.4888   -2.2592   -0.9888 Du        2 SUP2    0.0000
     65 H19       11.3161    1.6431    1.7844 Du        2 SUP2    0.0000
     66 H20       12.7478    1.9330    3.5575 Du        2 SUP2    0.0000
     67 H21       12.5549    0.1087    5.1714 Du        2 SUP2    0.0000
     68 H22       11.1067   -1.5102    4.9327 Du        2 SUP2    0.0000
     69 H23        9.8900   -1.8001    2.9551 Du        2 SUP2    0.0000
@<TRIPOS>BOND
     1    1    2 1
     2    2    3 2
     3    3    4 1
     4    4    5 2
     5    5    1 1
     6    6    3 1
     7    7    6 ar
     8    8    7 ar
     9    9    8 ar
    10   10    9 ar
    11   11    6 ar
    12   12    5 1
    13   13   12 ar
    14   14   13 ar
    15   15   14 ar
    16   16   15 ar
    17   17   12 ar
    18   18    4 1
    19   19   18 2
    20   20   18 2
    21   47    1 1
    22   48    7 1
    23   49    8 1
    24   50    9 1
    25   51   10 1
    26   52   11 1
    27   53   13 1
    28   54   14 1
    29   55   15 1
    30   56   16 1
    31   57   17 1
    32   10   11 ar
    33   16   17 ar
@<TRIPOS>SUBSTRUCTURE
     1 RES1 1
     2 SUP2 21

@<TRIPOS>CRYSIN
  18.1399   12.0814   11.5184  90.0000  99.3390  90.0000  14 1

