# MOL2 file generated by ConQuest
# Please check atom types

@<TRIPOS>MOLECULE
WILRUF
    49    51     1
SMALL
NO_CHARGES
****
Generated from CSD

@<TRIPOS>ATOM
      1 O1         3.6279    2.0002    3.9563 O.3       1 RES1    0.0000
      2 C1         2.8458   -0.5721    3.5991 C.ar      1 RES1    0.0000
      3 H1         2.2736    0.1062    3.3210 H         1 RES1    0.0000
      4 C2         4.0883   -0.2768    4.1407 C.ar      1 RES1    0.0000
      5 O2         0.3982   -1.3175    2.7010 O.2       1 RES1    0.0000
      6 C3         3.2846   -2.9385    3.8921 C.ar      1 RES1    0.0000
      7 H2         3.0158   -3.8241    3.8035 H         1 RES1    0.0000
      8 N1         1.1779   -2.2292    2.9021 N.pl3     1 RES1    0.0000
      9 O3         5.6731    1.4135    4.6474 O.2       1 RES1    0.0000
     10 C4         2.4814   -1.9015    3.4845 C.ar      1 RES1    0.0000
     11 C5         4.4987   -2.6110    4.4353 C.ar      1 RES1    0.0000
     12 C6         4.9202   -1.3012    4.5644 C.ar      1 RES1    0.0000
     13 H3         5.7525   -1.1096    4.9318 H         1 RES1    0.0000
     14 C7         4.5686    1.1365    4.2839 C.2       1 RES1    0.0000
     15 C8         1.9670    4.2154    2.8898 C.3       1 RES1    0.0000
     16 H4         1.4106    5.0192    2.8139 H         1 RES1    0.0000
     17 C9         3.9247    3.4354    4.0331 C.3       1 RES1    0.0000
     18 H5         4.5768    3.6315    4.7378 H         1 RES1    0.0000
     19 C10        3.1270    4.2675    1.8671 C.3       1 RES1    0.0000
     20 H6         3.1976    5.1763    1.5064 H         1 RES1    0.0000
     21 N2         5.3791   -3.7015    4.8937 N.pl3     1 RES1    0.0000
     22 O4         0.9428   -3.4013    2.6505 O.2       1 RES1    0.0000
     23 C11        2.6098    4.1409    4.2813 C.3       1 RES1    0.0000
     24 H7         2.8276    5.0601    4.5413 H         1 RES1    0.0000
     25 C12        1.5960    2.5078    1.3177 C.2       1 RES1    0.0000
     26 O5         4.9865   -4.8493    4.7681 O.2       1 RES1    0.0000
     27 C13        1.1984    3.0116    2.4588 C.2       1 RES1    0.0000
     28 H8         0.5002    2.6516    2.9564 H         1 RES1    0.0000
     29 C14        4.3851    3.9531    2.6920 C.3       1 RES1    0.0000
     30 H9         4.9242    3.2841    2.2406 H         1 RES1    0.0000
     31 H10        4.9204    4.7540    2.8066 H         1 RES1    0.0000
     32 O6         6.4386   -3.3951    5.3964 O.2       1 RES1    0.0000
     33 C15        2.7379    3.2892    0.7193 C.3       1 RES1    0.0000
     34 C16        1.7437    3.5646    5.3918 C.3       1 RES1    0.0000
     35 H11        1.4772    2.6722    5.1589 H         1 RES1    0.0000
     36 H12        0.9638    4.1120    5.5063 H         1 RES1    0.0000
     37 H13        2.2446    3.5457    6.2110 H         1 RES1    0.0000
     38 C17        0.9955    1.3205    0.6126 C.3       1 RES1    0.0000
     39 H14        0.2895    0.9524    1.1504 H         1 RES1    0.0000
     40 H15        1.6724    0.6540    0.4751 H         1 RES1    0.0000
     41 H16        0.6415    1.5966   -0.2357 H         1 RES1    0.0000
     42 C18        2.2342    4.0845   -0.4923 C.3       1 RES1    0.0000
     43 H17        1.8649    3.4803   -1.1418 H         1 RES1    0.0000
     44 H18        2.9653    4.5676   -0.8852 H         1 RES1    0.0000
     45 H19        1.5569    4.7038   -0.2099 H         1 RES1    0.0000
     46 C19        3.8728    2.3600    0.2640 C.3       1 RES1    0.0000
     47 H20        4.1146    1.7743    0.9846 H         1 RES1    0.0000
     48 H21        4.6349    2.8869    0.0110 H         1 RES1    0.0000
     49 H22        3.5792    1.8404   -0.4874 H         1 RES1    0.0000
@<TRIPOS>BOND
     1    1   14 1
     2    2    3 1
     3    4    2 ar
     4    5    8 2
     5    6    7 1
     6    8   10 1
     7    9   14 2
     8   10    2 ar
     9   11    6 ar
    10   12    4 ar
    11   13   12 1
    12   14    4 1
    13   15   16 1
    14   17    1 1
    15   18   17 1
    16   19   15 1
    17   20   19 1
    18   21   11 1
    19   22    8 2
    20   23   15 1
    21   24   23 1
    22   25   27 2
    23   26   21 2
    24   27   15 1
    25   28   27 1
    26   29   17 1
    27   30   29 1
    28   31   29 1
    29   32   21 2
    30   33   19 1
    31   34   23 1
    32   35   34 1
    33   36   34 1
    34   37   34 1
    35   38   25 1
    36   39   38 1
    37   40   38 1
    38   41   38 1
    39   42   33 1
    40   43   42 1
    41   44   42 1
    42   45   42 1
    43   46   33 1
    44   47   46 1
    45   48   46 1
    46   49   46 1
    47    6   10 ar
    48   11   12 ar
    49   17   23 1
    50   19   29 1
    51   25   33 1
@<TRIPOS>SUBSTRUCTURE
     1 RES1 1

@<TRIPOS>CRYSIN
   6.9300   11.1930   13.0470  74.7740  75.8900  83.0130   2 1

