# MOL2 file generated by ConQuest
# Please check atom types

@<TRIPOS>MOLECULE
WIMDEB
    76    80     2
SMALL
NO_CHARGES
****
Generated from CSD

@<TRIPOS>ATOM
      1 O1         7.0620   -7.5955    3.0054 O.2       1 RES1    0.0000
      2 O2         7.2288   -6.4492    5.8659 O.3       1 RES1    0.0000
      3 C1         7.0193   -6.1002    7.1708 C.3       1 RES1    0.0000
      4 C2         6.2973   -7.2099    7.8237 C.3       1 RES1    0.0000
      5 O3         7.0315   -8.4244    7.8857 O.3       1 RES1    0.0000
      6 C3         6.4457   -9.5516    7.4130 C.3       1 RES1    0.0000
      7 C4         7.4099  -10.6578    7.2093 C.3       1 RES1    0.0000
      8 O4         8.2641  -10.3298    6.1240 O.3       1 RES1    0.0000
      9 C5         7.7780  -10.7172    4.8979 C.ar      1 RES1    0.0000
     10 C6         7.9041   -9.8430    3.8184 C.ar      1 RES1    0.0000
     11 N1         8.6160   -8.5849    4.2341 N.2       1 RES1    0.0000
     12 N2         8.0892   -7.7194    3.6751 N.pl3     1 RES1    0.0000
     13 C7         8.5875   -6.3724    4.0053 C.ar      1 RES1    0.0000
     14 C8         8.1279   -5.7599    5.1719 C.ar      1 RES1    0.0000
     15 C9         8.5875   -4.4896    5.5197 C.ar      1 RES1    0.0000
     16 C10        9.5069   -3.8318    4.7009 C.ar      1 RES1    0.0000
     17 C11        9.9646   -4.4443    3.5343 C.ar      1 RES1    0.0000
     18 C12        9.5069   -5.7145    3.1873 C.ar      1 RES1    0.0000
     19 C13        7.6255  -10.2844    2.5252 C.ar      1 RES1    0.0000
     20 C14        7.2146  -11.6018    2.3115 C.ar      1 RES1    0.0000
     21 C15        7.0905  -12.4760    3.3901 C.ar      1 RES1    0.0000
     22 C16        7.3692  -12.0346    4.6833 C.ar      1 RES1    0.0000
     23 O5         5.2538    0.0681    4.9917 O.2       2 RES2    0.0000
     24 O6         7.4444    1.7309    6.1609 O.3       2 RES2    0.0000
     25 C17        8.1909    2.1898    7.2856 C.3       2 RES2    0.0000
     26 C18        7.1495    2.5598    8.2695 C.3       2 RES2    0.0000
     27 O7         6.4335    3.6748    7.8228 O.3       2 RES2    0.0000
     28 C19        5.0952    3.6381    8.1354 C.3       2 RES2    0.0000
     29 C20        4.2307    3.0326    7.1616 C.3       2 RES2    0.0000
     30 O8         4.4463    3.3938    5.8969 O.3       2 RES2    0.0000
     31 C21        3.5046    2.8669    5.0512 C.ar      2 RES2    0.0000
     32 C22        3.9500    2.0311    4.0279 C.ar      2 RES2    0.0000
     33 N3         5.3860    1.8897    3.7379 N.2       2 RES2    0.0000
     34 N4         5.8132    0.9475    4.3120 N.pl3     2 RES2    0.0000
     35 C23        7.3000    0.8707    4.0246 C.ar      2 RES2    0.0000
     36 C24        8.1258    1.2162    5.0956 C.ar      2 RES2    0.0000
     37 C25        9.5028    1.0068    5.0127 C.ar      2 RES2    0.0000
     38 C26       10.0541    0.4519    3.8578 C.ar      2 RES2    0.0000
     39 C27        9.2303    0.1064    2.7867 C.ar      2 RES2    0.0000
     40 C28        7.8533    0.3158    2.8697 C.ar      2 RES2    0.0000
     41 C29        3.0307    1.4361    3.1638 C.ar      2 RES2    0.0000
     42 C30        1.6658    1.6768    3.3231 C.ar      2 RES2    0.0000
     43 C31        1.2204    2.5144    4.3464 C.ar      2 RES2    0.0000
     44 C32        2.1398    3.1094    5.2105 C.ar      2 RES2    0.0000
     45 H1         7.8919   -5.9501    7.6267 H         1 RES1    0.0000
     46 H2         6.4681   -5.2696    7.2160 H         1 RES1    0.0000
     47 H3         6.0613   -6.9273    8.7581 H         1 RES1    0.0000
     48 H4         5.4511   -7.3809    7.3166 H         1 RES1    0.0000
     49 H5         5.7359   -9.8412    8.0625 H         1 RES1    0.0000
     50 H6         6.0003   -9.3352    6.5372 H         1 RES1    0.0000
     51 H7         6.8953  -11.4989    6.9898 H         1 RES1    0.0000
     52 H8         7.9326  -10.8009    8.0374 H         1 RES1    0.0000
     53 H9         8.2377   -4.0133    6.4198 H         1 RES1    0.0000
     54 H10        9.8649   -2.8442    4.9699 H         1 RES1    0.0000
     55 H11       10.6785   -3.9435    2.8998 H         1 RES1    0.0000
     56 H12        9.8649   -6.1944    2.2880 H         1 RES1    0.0000
     57 H13        7.7292   -9.6144    1.6930 H         1 RES1    0.0000
     58 H14        6.9970  -11.9351    1.3074 H         1 RES1    0.0000
     59 H15        6.7732  -13.4881    3.2267 H         1 RES1    0.0000
     60 H16        7.2614  -12.7029    5.5147 H         1 RES1    0.0000
     61 H17        8.7665    1.4657    7.6435 H         2 RES2    0.0000
     62 H18        8.7462    2.9838    7.0400 H         2 RES2    0.0000
     63 H19        6.5291    1.7972    8.3894 H         2 RES2    0.0000
     64 H20        7.5868    2.7744    9.1437 H         2 RES2    0.0000
     65 H21        4.9833    3.1408    8.9928 H         2 RES2    0.0000
     66 H22        4.7799    4.5716    8.2804 H         2 RES2    0.0000
     67 H23        4.3528    2.0415    7.2244 H         2 RES2    0.0000
     68 H24        3.2951    3.2630    7.4004 H         2 RES2    0.0000
     69 H25       10.1497    1.2738    5.8416 H         2 RES2    0.0000
     70 H26       11.1260    0.2966    3.7966 H         2 RES2    0.0000
     71 H27        9.6615   -0.3141    1.8941 H         2 RES2    0.0000
     72 H28        7.2207    0.0523    2.0366 H         2 RES2    0.0000
     73 H29        3.3764    0.7852    2.3718 H         2 RES2    0.0000
     74 H30        0.9560    1.2214    2.6568 H         2 RES2    0.0000
     75 H31        0.1627    2.7046    4.4671 H         2 RES2    0.0000
     76 H32        1.7899    3.7515    6.0008 H         2 RES2    0.0000
@<TRIPOS>BOND
     1    1   12 1
     2    2    3 1
     3    3    4 1
     4    4    5 1
     5    5    6 1
     6    6    7 1
     7    7    8 1
     8    8    9 1
     9    9   10 ar
    10   10   11 1
    11   11   12 2
    12   12   13 1
    13   13   14 ar
    14   14    2 1
    15   15   14 ar
    16   16   15 ar
    17   17   16 ar
    18   18   13 ar
    19   19   10 ar
    20   20   19 ar
    21   21   20 ar
    22   22    9 ar
    23   23   34 1
    24   24   25 1
    25   25   26 1
    26   26   27 1
    27   27   28 1
    28   28   29 1
    29   29   30 1
    30   30   31 1
    31   31   32 ar
    32   32   33 1
    33   33   34 2
    34   34   35 1
    35   35   36 ar
    36   36   24 1
    37   37   36 ar
    38   38   37 ar
    39   39   38 ar
    40   40   35 ar
    41   41   32 ar
    42   42   41 ar
    43   43   42 ar
    44   44   31 ar
    45   45    3 1
    46   46    3 1
    47   47    4 1
    48   48    4 1
    49   49    6 1
    50   50    6 1
    51   51    7 1
    52   52    7 1
    53   53   15 1
    54   54   16 1
    55   55   17 1
    56   56   18 1
    57   57   19 1
    58   58   20 1
    59   59   21 1
    60   60   22 1
    61   61   25 1
    62   62   25 1
    63   63   26 1
    64   64   26 1
    65   65   28 1
    66   66   28 1
    67   67   29 1
    68   68   29 1
    69   69   37 1
    70   70   38 1
    71   71   39 1
    72   72   40 1
    73   73   41 1
    74   74   42 1
    75   75   43 1
    76   76   44 1
    77   17   18 ar
    78   21   22 ar
    79   39   40 ar
    80   43   44 ar
@<TRIPOS>SUBSTRUCTURE
     1 RES1 1
     2 RES2 23

@<TRIPOS>CRYSIN
  20.3400   17.4490    8.3810  90.0000  90.0000  90.0000  19 1

