# MOL2 file generated by ConQuest
# Please check atom types

@<TRIPOS>MOLECULE
WIMTIX
    39    42     1
SMALL
USER_CHARGES
****
Generated from CSD

@<TRIPOS>ATOM
      1 C1         2.4550    5.7037    2.1116 C.2       1 RES1    0.0000
      2 C2         0.9240    5.6617    1.9620 C.3       1 RES1    0.0000
      3 C3        -0.5968    7.7178    1.3977 C.ar      1 RES1    0.0000
      4 H1        -1.3711    7.2163    1.2831 H         1 RES1    0.0000
      5 C4        -0.6252    9.1009    1.2742 C.ar      1 RES1    0.0000
      6 H2        -1.4269    9.5330    1.0872 H         1 RES1    0.0000
      7 C5         0.5332    9.8362    1.4280 C.ar      1 RES1    0.0000
      8 H3         0.4964   10.7620    1.3480 H         1 RES1    0.0000
      9 C6         1.7462    9.2305    1.6975 C.ar      1 RES1    0.0000
     10 H4         2.5259    9.7303    1.7879 H         1 RES1    0.0000
     11 C7         1.7570    7.8568    1.8278 C.ar      1 RES1    0.0000
     12 C8         0.5956    7.1033    1.6920 C.ar      1 RES1    0.0000
     13 C9         0.2729    5.1700    3.2571 C.2       1 RES1    0.0000
     14 C10        0.2804    5.7133    4.4669 C.2       1 RES1    0.0000
     15 H5         0.7614    6.4948    4.6180 H         1 RES1    0.0000
     16 C11       -0.4808    5.0783    5.5984 C.3       1 RES1    0.0000
     17 H6         0.1540    4.6815    6.2153 H         1 RES1    0.0000
     18 H7        -0.9594    5.7726    6.0771 H         1 RES1    0.0000
     19 C12       -1.4198    4.0684    5.1962 C.3       1 RES1    0.0000
     20 H8        -2.2771    4.5108    5.0925 H         1 RES1    0.0000
     21 H9        -1.5106    3.4585    5.9440 H         1 RES1    0.0000
     22 C13       -1.2267    3.2503    4.0105 C.3       1 RES1    0.0000
     23 H10       -2.0910    3.0023    3.6481 H         1 RES1    0.0000
     24 H11       -0.7609    2.4348    4.2567 H         1 RES1    0.0000
     25 C14       -0.4433    3.9698    2.9704 C.2       1 RES1    0.0000
     26 C15        0.4681    4.6068    0.9352 C.3       1 RES1    0.0000
     27 H12       -0.0682    5.0156    0.2378 H         1 RES1    0.0000
     28 H13        1.2325    4.1703    0.5279 H         1 RES1    0.0000
     29 C16        4.2453    7.4028    2.1575 C.3       1 RES1    0.0000
     30 H14        4.3626    8.2338    1.6696 H         1 RES1    0.0000
     31 H15        4.7920    6.7268    1.7282 H         1 RES1    0.0000
     32 C17        4.7167    7.5911    3.5633 C.3       1 RES1    0.0000
     33 H16        4.1694    8.2485    3.9990 H         1 RES1    0.0000
     34 H17        5.6296    7.8882    3.5570 H         1 RES1    0.0000
     35 H18        4.6542    6.7585    4.0357 H         1 RES1    0.0000
     36 N1         2.8440    7.0002    2.0826 N.am      1 RES1    0.0000
     37 N2        -0.3344    3.6404    1.7139 N.pl3     1 RES1    1.0000
     38 O1        -0.8466    2.6162    1.1193 O.2       1 RES1   -1.0000
     39 O2         3.1920    4.7439    2.2321 O.2       1 RES1    0.0000
@<TRIPOS>BOND
     1    1    2 1
     2    2   12 1
     3    3    4 1
     4    5    3 ar
     5    6    5 1
     6    7    5 ar
     7    8    7 1
     8    9    7 ar
     9   10    9 1
    10   11    9 ar
    11   12    3 ar
    12   13    2 1
    13   14   13 2
    14   15   14 1
    15   16   14 1
    16   17   16 1
    17   18   16 1
    18   19   16 1
    19   20   19 1
    20   21   19 1
    21   22   19 1
    22   23   22 1
    23   24   22 1
    24   25   13 1
    25   26    2 1
    26   27   26 1
    27   28   26 1
    28   29   30 1
    29   31   29 1
    30   32   29 1
    31   33   32 1
    32   34   32 1
    33   35   32 1
    34   36    1 1
    35   37   25 2
    36   38   37 1
    37   39    1 2
    38   11   12 ar
    39   11   36 1
    40   22   25 1
    41   26   37 1
    42   29   36 1
@<TRIPOS>SUBSTRUCTURE
     1 RES1 1

@<TRIPOS>CRYSIN
   8.4050    8.7609   11.2366  92.5970 109.0770 108.3070   2 1

