# MOL2 file generated by ConQuest
# Please check atom types

@<TRIPOS>MOLECULE
WIMWEU
    46    48     1
SMALL
NO_CHARGES
****
Generated from CSD

@<TRIPOS>ATOM
      1 N1         5.0161    3.5246   22.4728 N.am      1 RES1    0.0000
      2 C1         5.0740    3.9080   21.1886 C.2       1 RES1    0.0000
      3 O1         5.2456    3.2762   20.1603 O.2       1 RES1    0.0000
      4 C2         4.8394    5.3754   21.5580 C.3       1 RES1    0.0000
      5 H1         3.9366    5.6649   21.3089 H         1 RES1    0.0000
      6 C3         4.8872    4.8892   23.0217 C.3       1 RES1    0.0000
      7 H2         5.7111    5.1752   23.4680 H         1 RES1    0.0000
      8 C4         3.6817    5.0876   23.9081 C.3       1 RES1    0.0000
      9 H3         3.5745    6.0313   24.1019 H         1 RES1    0.0000
     10 H4         2.8860    4.7829   23.4449 H         1 RES1    0.0000
     11 C5         3.8352    4.3280   25.1898 C.2       1 RES1    0.0000
     12 H5         3.8598    4.8141   25.9826 H         1 RES1    0.0000
     13 C6         3.9394    3.0036   25.2691 C.2       1 RES1    0.0000
     14 H6         4.0560    2.6283   26.1118 H         1 RES1    0.0000
     15 C7         3.8815    2.0769   24.0966 C.3       1 RES1    0.0000
     16 H7         3.0525    2.2350   23.6178 H         1 RES1    0.0000
     17 H8         3.8627    1.1635   24.4223 H         1 RES1    0.0000
     18 C8         5.0508    2.2234   23.1131 C.3       1 RES1    0.0000
     19 H9         4.9386    1.5451   22.4143 H         1 RES1    0.0000
     20 C9         5.8741    6.3745   21.1146 C.3       1 RES1    0.0000
     21 H10        5.8190    6.4808   20.1419 H         1 RES1    0.0000
     22 O2         7.1447    5.8392   21.4506 O.3       1 RES1    0.0000
     23 H11        7.8000    6.4549   21.4353 H         1 RES1    0.0000
     24 C10        5.6532    7.7230   21.7721 C.3       1 RES1    0.0000
     25 H12        6.3259    8.3387   21.4714 H         1 RES1    0.0000
     26 H13        5.7097    7.6265   22.7242 H         1 RES1    0.0000
     27 H14        4.7851    8.0563   21.5355 H         1 RES1    0.0000
     28 C11        6.4033    1.9955   23.7634 C.2       1 RES1    0.0000
     29 O3         7.3446    2.7176   23.7029 O.2       1 RES1    0.0000
     30 O4         6.4062    0.8070   24.3883 O.3       1 RES1    0.0000
     31 C12        7.6718    0.3780   24.9275 C.3       1 RES1    0.0000
     32 H15        7.9969    1.0232   25.5750 H         1 RES1    0.0000
     33 H16        8.3285    0.2940   24.2191 H         1 RES1    0.0000
     34 C13        7.4409   -0.9491   25.5851 C.ar      1 RES1    0.0000
     35 C14        6.8044   -1.0313   26.8219 C.ar      1 RES1    0.0000
     36 H17        6.4967   -0.2556   27.2317 H         1 RES1    0.0000
     37 C15        6.6242   -2.2502   27.4477 C.ar      1 RES1    0.0000
     38 H18        6.2006   -2.3056   28.2737 H         1 RES1    0.0000
     39 C16        7.0890   -3.3762   26.8155 C.ar      1 RES1    0.0000
     40 C17        7.7001   -3.3432   25.5929 C.ar      1 RES1    0.0000
     41 H19        7.9947   -4.1251   25.1845 H         1 RES1    0.0000
     42 C18        7.8695   -2.1126   24.9796 C.ar      1 RES1    0.0000
     43 H20        8.2786   -2.0706   24.1453 H         1 RES1    0.0000
     44 N2         6.9384   -4.6864   27.5026 N.pl3     1 RES1    0.0000
     45 O5         6.4055   -4.6917   28.5643 O.2       1 RES1    0.0000
     46 O6         7.4054   -5.6587   26.9981 O.2       1 RES1    0.0000
@<TRIPOS>BOND
     1    1    2 1
     2    2    3 2
     3    4    2 1
     4    5    4 1
     5    6    1 1
     6    7    6 1
     7    8    6 1
     8    9    8 1
     9   10    8 1
    10   11    8 1
    11   12   11 1
    12   13   11 2
    13   14   13 1
    14   15   13 1
    15   16   15 1
    16   17   15 1
    17   18    1 1
    18   19   18 1
    19   20    4 1
    20   21   20 1
    21   22   20 1
    22   23   22 1
    23   24   20 1
    24   25   24 1
    25   26   24 1
    26   27   24 1
    27   28   18 1
    28   29   28 2
    29   30   28 1
    30   31   30 1
    31   32   31 1
    32   33   31 1
    33   34   31 1
    34   35   34 ar
    35   36   35 1
    36   37   35 ar
    37   38   37 1
    38   39   37 ar
    39   40   39 ar
    40   41   40 1
    41   42   34 ar
    42   43   42 1
    43   44   39 1
    44   45   44 2
    45   46   44 2
    46    4    6 1
    47   15   18 1
    48   40   42 ar
@<TRIPOS>SUBSTRUCTURE
     1 RES1 1

@<TRIPOS>CRYSIN
   7.2403    8.9366   27.8380  90.0000  90.0000  90.0000  19 1

