# MOL2 file generated by ConQuest
# Please check atom types

@<TRIPOS>MOLECULE
WIMWAQ
    38    40     1
SMALL
NO_CHARGES
****
Generated from CSD

@<TRIPOS>ATOM
      1 O1         4.4926    1.9823    1.3443 O.3       1 RES1    0.0000
      2 O2         6.4071   -0.2688    3.3052 O.3       1 RES1    0.0000
      3 O3         9.4318   -6.6743    4.4879 O.2       1 RES1    0.0000
      4 O4         4.3151   -0.2365    1.5731 O.2       1 RES1    0.0000
      5 O5         7.6479   -6.5523    5.6865 O.2       1 RES1    0.0000
      6 N1         8.0048   -0.4806    1.7074 N.2       1 RES1    0.0000
      7 C1         8.1090   -4.7967    4.2671 C.ar      1 RES1    0.0000
      8 C2         7.6113   -2.3327    3.2257 C.ar      1 RES1    0.0000
      9 N2         8.4179   -6.1006    4.8527 N.pl3     1 RES1    0.0000
     10 C3         7.0632   -4.0724    4.7838 C.ar      1 RES1    0.0000
     11 H1         6.5251   -4.4226    5.4843 H         1 RES1    0.0000
     12 C4         7.3827   -0.9947    2.6807 C.2       1 RES1    0.0000
     13 C5         6.8152   -2.8247    4.2574 C.ar      1 RES1    0.0000
     14 H2         6.1006   -2.2997    4.5975 H         1 RES1    0.0000
     15 C6         8.6369   -3.1090    2.7064 C.ar      1 RES1    0.0000
     16 H3         9.1576   -2.7791    1.9830 H         1 RES1    0.0000
     17 C7         8.9042   -4.3430    3.2266 C.ar      1 RES1    0.0000
     18 H4         9.6146   -4.8746    2.8857 H         1 RES1    0.0000
     19 C8         6.2359    0.9006    2.4900 C.3       1 RES1    0.0000
     20 H5         6.2697    1.7309    3.0455 H         1 RES1    0.0000
     21 C9         4.8965    0.7855    1.7621 C.2       1 RES1    0.0000
     22 C10        8.3329    1.9875    1.2993 C.3       1 RES1    0.0000
     23 H6         9.3014    1.7493    1.2322 H         1 RES1    0.0000
     24 C11        7.4780    1.4663    0.1678 C.3       1 RES1    0.0000
     25 H7         6.7046    2.0134   -0.1175 H         1 RES1    0.0000
     26 H8         7.9274    0.9647   -0.5582 H         1 RES1    0.0000
     27 C12        7.4280    0.8348    1.5316 C.3       1 RES1    0.0000
     28 C13        3.2470    2.0144    0.5830 C.3       1 RES1    0.0000
     29 H9         3.4463    1.9246   -0.3727 H         1 RES1    0.0000
     30 H10        2.7885    2.8653    0.7428 H         1 RES1    0.0000
     31 H11        2.6710    1.2739    0.8674 H         1 RES1    0.0000
     32 C14        8.0578    3.3110    1.9556 C.3       1 RES1    0.0000
     33 H12        7.0812    3.4760    1.9591 H         1 RES1    0.0000
     34 H13        8.3649    3.2786    2.8954 H         1 RES1    0.0000
     35 C15        8.7456    4.4370    1.2498 C.3       1 RES1    0.0000
     36 H14        9.7161    4.3114    1.3028 H         1 RES1    0.0000
     37 H15        8.5012    5.2853    1.6738 H         1 RES1    0.0000
     38 H16        8.4684    4.4504    0.3091 H         1 RES1    0.0000
@<TRIPOS>BOND
     1    1   21 1
     2    2   12 1
     3    3    9 2
     4    4   21 2
     5    5    9 2
     6    6   12 2
     7    7    9 1
     8    8   12 1
     9   10    7 ar
    10   11   10 1
    11   13    8 ar
    12   14   13 1
    13   15    8 ar
    14   16   15 1
    15   17    7 ar
    16   18   17 1
    17   19    2 1
    18   20   19 1
    19   21   19 1
    20   22   23 1
    21   24   22 1
    22   25   24 1
    23   26   24 1
    24   27    6 1
    25   28    1 1
    26   29   28 1
    27   30   28 1
    28   31   28 1
    29   32   22 1
    30   33   32 1
    31   34   32 1
    32   35   32 1
    33   36   35 1
    34   37   35 1
    35   38   35 1
    36   10   13 ar
    37   15   17 ar
    38   19   27 1
    39   22   27 1
    40   24   27 1
@<TRIPOS>SUBSTRUCTURE
     1 RES1 1

@<TRIPOS>CRYSIN
   9.2770    9.8470   10.3700  62.2100  65.6400  65.2120   2 1

