# MOL2 file generated by ConQuest
# Please check atom types

@<TRIPOS>MOLECULE
WINCON
    37    33     2
SMALL
NO_CHARGES
****
Generated from CSD

@<TRIPOS>ATOM
      1 O1         7.3068    8.9346    4.5886 O.2       1 RES1    0.0000
      2 C1         2.6030    9.8381    2.5045 C.ar      1 RES1    0.0000
      3 N1         4.2145    9.8009    0.6222 N.pl3     1 RES1    0.0000
      4 O2         4.1155   11.0214    0.5346 O.2       1 RES1    0.0000
      5 O3         4.5784    9.0754   -0.2529 O.2       1 RES1    0.0000
      6 C2         2.6067   10.6275    3.6320 C.ar      1 RES1    0.0000
      7 H1         3.4142   10.7462    4.1182 H         1 RES1    0.0000
      8 C3         3.7545    7.7467    1.8729 C.1       1 RES1    0.0000
      9 N2         3.6333    6.6204    1.8332 N.1       1 RES1    0.0000
     10 C4         1.4309   11.2622    4.0756 C.ar      1 RES1    0.0000
     11 H2         1.4519   11.8049    4.8558 H         1 RES1    0.0000
     12 C5         0.2081   10.2853    2.2344 C.ar      1 RES1    0.0000
     13 C6         0.2632   11.1023    3.3917 C.ar      1 RES1    0.0000
     14 H3        -0.5227   11.5432    3.6931 H         1 RES1    0.0000
     15 C7        -1.0096   10.1246    1.5215 C.ar      1 RES1    0.0000
     16 H4        -1.7964   10.5521    1.8381 H         1 RES1    0.0000
     17 C8        -1.0665    9.3662    0.3896 C.ar      1 RES1    0.0000
     18 H5        -1.8880    9.2677   -0.0768 H         1 RES1    0.0000
     19 C9         0.0928    8.7319   -0.0841 C.ar      1 RES1    0.0000
     20 H6         0.0497    8.2079   -0.8754 H         1 RES1    0.0000
     21 C10        1.3863    9.6373    1.7671 C.ar      1 RES1    0.0000
     22 C11        1.2882    8.8584    0.5808 C.ar      1 RES1    0.0000
     23 H7         2.0597    8.4195    0.2431 H         1 RES1    0.0000
     24 C12        3.9005    9.2105    2.0178 C.3       1 RES1    0.0000
     25 C13        5.1480    9.4892    2.8773 C.3       1 RES1    0.0000
     26 H8         5.2965   10.4671    2.9135 H         1 RES1    0.0000
     27 H9         4.9743    9.1772    3.8004 H         1 RES1    0.0000
     28 C14        6.4167    8.8199    2.3655 C.3       1 RES1    0.0000
     29 H10        6.1873    7.9288    2.0012 H         1 RES1    0.0000
     30 H11        6.7915    9.3615    1.6267 H         1 RES1    0.0000
     31 C15        7.4582    8.6590    3.4305 C.2       1 RES1    0.0000
     32 H12        8.3029    8.3126    3.1691 H         1 RES1    0.0000
     33 C16        4.1578    9.6929    0.5997 Du        2 SUP2    0.0000
     34 N3         4.4486   10.0179   -0.4745 Du        2 SUP2    0.0000
     35 N4         3.6303    7.6649    1.8623 Du        2 SUP2    0.0000
     36 O4         4.1918    7.0009    1.0069 Du        2 SUP2    0.0000
     37 O5         3.0248    7.1656    2.7988 Du        2 SUP2    0.0000
@<TRIPOS>BOND
     1    1   31 2
     2    2    6 ar
     3    3    4 2
     4    5    3 2
     5    6    7 1
     6    8    9 3
     7   10    6 ar
     8   11   10 1
     9   12   13 ar
    10   13   10 ar
    11   14   13 1
    12   15   12 ar
    13   16   15 1
    14   17   15 ar
    15   18   17 1
    16   19   17 ar
    17   20   19 1
    18   21    2 ar
    19   22   19 ar
    20   23   22 1
    21   24    2 1
    22   25   24 1
    23   26   25 1
    24   27   25 1
    25   28   25 1
    26   29   28 1
    27   30   28 1
    28   31   28 1
    29   32   31 1
    30    3   24 1
    31    8   24 1
    32   12   21 ar
    33   21   22 ar
@<TRIPOS>SUBSTRUCTURE
     1 RES1 1
     2 SUP2 33

@<TRIPOS>CRYSIN
  11.2063   10.9032   10.5235  90.0000  91.0500  90.0000  14 1

