# MOL2 file generated by ConQuest
# Please check atom types

@<TRIPOS>MOLECULE
WINJAF
    32    33     1
SMALL
NO_CHARGES
****
Generated from CSD

@<TRIPOS>ATOM
      1 C1         1.6917   13.3956    4.4298 C.ar      1 RES1    0.0000
      2 C2         1.0309   12.6889    5.4547 C.ar      1 RES1    0.0000
      3 C3         1.7227   12.0872    6.4838 C.ar      1 RES1    0.0000
      4 H1         1.2744   11.6047    7.1409 H         1 RES1    0.0000
      5 C4         3.0900   12.2169    6.5155 C.ar      1 RES1    0.0000
      6 C5         3.7896   12.8854    5.5253 C.ar      1 RES1    0.0000
      7 H2         4.7163   12.9484    5.5577 H         1 RES1    0.0000
      8 C6         3.0844   13.4526    4.4971 C.ar      1 RES1    0.0000
      9 H3         3.5503   13.8911    3.8209 H         1 RES1    0.0000
     10 C7         1.4532   14.2859    2.1583 C.ar      1 RES1    0.0000
     11 C8         1.0799   15.4166    1.4046 C.ar      1 RES1    0.0000
     12 C9         1.5956   15.6556    0.1379 C.ar      1 RES1    0.0000
     13 H4         1.3664   16.4260   -0.3307 H         1 RES1    0.0000
     14 C10        2.4476   14.7353   -0.4065 C.ar      1 RES1    0.0000
     15 C11        2.7848   13.5671    0.2639 C.ar      1 RES1    0.0000
     16 H5         3.3304   12.9321   -0.1414 H         1 RES1    0.0000
     17 C12        2.3038   13.3614    1.5317 C.ar      1 RES1    0.0000
     18 H6         2.5479   12.5888    1.9884 H         1 RES1    0.0000
     19 N1        -0.4225   12.5678    5.4808 N.pl3     1 RES1    0.0000
     20 N2         3.8211   11.6619    7.6479 N.pl3     1 RES1    0.0000
     21 N3         0.1150   16.3905    1.9032 N.pl3     1 RES1    0.0000
     22 N4         3.0073   14.9855   -1.7340 N.pl3     1 RES1    0.0000
     23 N5         0.9938   14.0651    3.4371 N.pl3     1 RES1    0.0000
     24 H7         0.2410   14.4090    3.7118 H         1 RES1    0.0000
     25 O1        -1.0984   13.4782    5.0146 O.2       1 RES1    0.0000
     26 O2        -0.8985   11.5735    6.0023 O.2       1 RES1    0.0000
     27 O3         3.2474   10.8782    8.3691 O.2       1 RES1    0.0000
     28 O4         4.9790   12.0123    7.8212 O.2       1 RES1    0.0000
     29 O5        -0.6099   16.0632    2.8337 O.2       1 RES1    0.0000
     30 O6         0.0433   17.4682    1.3590 O.2       1 RES1    0.0000
     31 O7         2.7397   16.0410   -2.2824 O.2       1 RES1    0.0000
     32 O8         3.7475   14.1460   -2.2103 O.2       1 RES1    0.0000
@<TRIPOS>BOND
     1    1    2 ar
     2    2    3 ar
     3    3    4 1
     4    5    3 ar
     5    6    5 ar
     6    7    6 1
     7    8    1 ar
     8    9    8 1
     9   10   11 ar
    10   11   12 ar
    11   12   13 1
    12   14   12 ar
    13   15   14 ar
    14   16   15 1
    15   17   10 ar
    16   18   17 1
    17   19    2 1
    18   20    5 1
    19   21   11 1
    20   22   14 1
    21   23    1 1
    22   24   23 1
    23   25   19 2
    24   26   19 2
    25   27   20 2
    26   28   20 2
    27   29   21 2
    28   30   21 2
    29   31   22 2
    30   32   22 2
    31    6    8 ar
    32   10   23 1
    33   15   17 ar
@<TRIPOS>SUBSTRUCTURE
     1 RES1 1

@<TRIPOS>CRYSIN
   8.4987   14.7982   11.1828  90.0000  95.3950  90.0000 231 1

