# MOL2 file generated by ConQuest
# Please check atom types

@<TRIPOS>MOLECULE
WINLUA
    61    59     3
SMALL
NO_CHARGES
****
Generated from CSD

@<TRIPOS>ATOM
      1 C1         2.6488   -0.2651    3.7644 C.ar      1 RES1    0.0000
      2 C2         1.2904   -0.6951    3.7116 C.ar      1 RES1    0.0000
      3 C3         0.4571   -0.2725    4.7776 C.ar      1 RES1    0.0000
      4 C4         0.9184    0.5093    5.7984 C.ar      1 RES1    0.0000
      5 C5         2.2395    0.9521    5.8237 C.ar      1 RES1    0.0000
      6 C6         3.1004    0.5595    4.7842 C.ar      1 RES1    0.0000
      7 C7         2.6955    1.7953    6.9172 C.2       1 RES1    0.0000
      8 N1         0.8460   -1.4497    2.6754 N.3       1 RES1    0.0000
      9 C8         1.7483   -1.9331    1.6061 C.3       1 RES1    0.0000
     10 C9        -0.5661   -1.7309    2.4872 C.3       1 RES1    0.0000
     11 C10        1.9886   -0.9120    0.5500 C.3       1 RES1    0.0000
     12 C11       -1.0244   -3.0165    3.1132 C.3       1 RES1    0.0000
     13 C12        3.9169    2.2675    7.0833 C.2       1 RES1    0.0000
     14 N2         4.2493    3.1105    8.1999 N.pl3     1 RES1    0.0000
     15 O1         5.3738    3.5587    8.2362 O.2       1 RES1    0.0000
     16 O2         3.3862    3.3781    9.0359 O.2       1 RES1    0.0000
     17 C13        6.0135   -1.2885    1.6974 C.ar      2 RES2    0.0000
     18 C14        5.4904   -2.6104    1.6985 C.ar      2 RES2    0.0000
     19 C15        5.3295   -3.2356    2.9482 C.ar      2 RES2    0.0000
     20 C16        5.6921   -2.6091    4.1208 C.ar      2 RES2    0.0000
     21 C17        6.1944   -1.3073    4.1175 C.ar      2 RES2    0.0000
     22 C18        6.3324   -0.6628    2.8492 C.ar      2 RES2    0.0000
     23 C19        6.5655   -0.7009    5.4013 C.2       2 RES2    0.0000
     24 N3         5.1410   -3.2365    0.5181 N.3       2 RES2    0.0000
     25 C20        5.2996   -2.6012   -0.7920 C.3       2 RES2    0.0000
     26 C21        6.6871   -2.7463   -1.3421 C.3       2 RES2    0.0000
     27 C22        7.1178    0.4533    5.5333 C.2       2 RES2    0.0000
     28 N4         7.4698    0.9530    6.8644 N.pl3     2 RES2    0.0000
     29 O3         8.1299    2.0097    6.8655 O.2       2 RES2    0.0000
     30 O4         7.1128    0.3477    7.8677 O.2       2 RES2    0.0000
     31 C23        4.5266   -4.6609    0.4510 C.3       2 RES2    0.0000
     32 C24        5.7146   -5.5585    0.5170 C.3       2 RES2    0.0000
     33 C25        5.0255   -4.6853    0.5940 Du        3 SUP3    0.0000
     34 C26        3.5846   -5.3655    0.7150 Du        3 SUP3    0.0000
     35 H1         3.3444   -0.5769    2.9823 H         1 RES1    0.0000
     36 H2         4.1364    0.8967    4.7798 H         1 RES1    0.0000
     37 H3         0.2780    0.7694    6.6235 H         1 RES1    0.0000
     38 H4        -0.6011   -0.5713    4.7699 H         1 RES1    0.0000
     39 H5         1.9524    2.0417    7.6740 H         1 RES1    0.0000
     40 H6         4.6859    1.9991    6.3760 H         1 RES1    0.0000
     41 H7         2.7118   -2.2291    2.0890 H         1 RES1    0.0000
     42 H8         1.3145   -2.8509    1.1782 H         1 RES1    0.0000
     43 H9        -1.1430   -0.8905    2.8954 H         1 RES1    0.0000
     44 H10       -0.7502   -1.7763    1.4015 H         1 RES1    0.0000
     45 H11        2.3675   -0.0172    1.0275 H         1 RES1    0.0000
     46 H12        2.7337   -1.3081   -0.1419 H         1 RES1    0.0000
     47 H13        1.0695   -0.7105    0.0319 H         1 RES1    0.0000
     48 H14       -0.4538   -3.7352    2.5642 H         1 RES1    0.0000
     49 H15       -0.8327   -3.0185    4.1758 H         1 RES1    0.0000
     50 H16       -2.1148   -3.1457    2.9482 H         1 RES1    0.0000
     51 H17        6.1510   -0.7489    0.7557 H         2 RES2    0.0000
     52 H18        6.7552    0.4550    2.6215 H         2 RES2    0.0000
     53 H19        5.5909   -3.1503    5.0570 H         2 RES2    0.0000
     54 H20        4.9319   -4.2393    2.9900 H         2 RES2    0.0000
     55 H21        6.8512   -1.2699    6.3155 H         2 RES2    0.0000
     56 H22        7.3670    1.0732    4.6643 H         2 RES2    0.0000
     57 H23        4.6503   -3.0259   -1.5269 H         2 RES2    0.0000
     58 H24        5.1624   -1.5219   -0.7260 H         2 RES2    0.0000
     59 H25        7.6543   -2.2640   -1.1001 H         2 RES2    0.0000
     60 H26        6.9890   -3.8214   -1.2266 H         2 RES2    0.0000
     61 H27        6.6590   -2.5642   -2.4421 H         2 RES2    0.0000
@<TRIPOS>BOND
     1    1    2 ar
     2    2    3 ar
     3    3    4 ar
     4    4    5 ar
     5    5    6 ar
     6    6    1 ar
     7    7    5 1
     8    8    2 1
     9    9    8 1
    10   10    8 1
    11   11    9 1
    12   12   10 1
    13   13    7 2
    14   14   13 1
    15   15   14 2
    16   16   14 2
    17   17   18 ar
    18   18   19 ar
    19   19   20 ar
    20   20   21 ar
    21   21   22 ar
    22   22   17 ar
    23   23   21 1
    24   24   18 1
    25   25   24 1
    26   26   25 1
    27   27   23 2
    28   28   27 1
    29   29   28 2
    30   30   28 2
    31   31   24 1
    32   32   31 1
    33   35    1 1
    34   36    6 1
    35   37    4 1
    36   38    3 1
    37   39    7 1
    38   40   13 1
    39   41    9 1
    40   42    9 1
    41   43   10 1
    42   44   10 1
    43   45   11 1
    44   46   11 1
    45   47   11 1
    46   48   12 1
    47   49   12 1
    48   50   12 1
    49   51   17 1
    50   52   22 1
    51   53   20 1
    52   54   19 1
    53   55   23 1
    54   56   27 1
    55   57   25 1
    56   58   25 1
    57   59   26 1
    58   60   26 1
    59   61   26 1
@<TRIPOS>SUBSTRUCTURE
     1 RES1 1
     2 RES2 17
     3 SUP3 33

@<TRIPOS>CRYSIN
  10.4300   11.7280   12.2680 108.3100  98.3400 115.6600   2 1

