# MOL2 file generated by ConQuest
# Please check atom types

@<TRIPOS>MOLECULE
WINPUE
    72    78     2
SMALL
NO_CHARGES
****
Generated from CSD

@<TRIPOS>ATOM
      1 C1         8.9920    4.7088    3.3929 C.ar      1 RES1    0.0000
      2 O1         7.8868    4.2439    2.7356 O.3       1 RES1    0.0000
      3 C2         6.7270    5.0559    2.7518 C.3       1 RES1    0.0000
      4 H1         6.4165    5.1523    3.6543 H         1 RES1    0.0000
      5 H2         6.0410    4.6464    2.2193 H         1 RES1    0.0000
      6 H3         6.9368    5.9208    2.3914 H         1 RES1    0.0000
      7 C3         9.0108    5.8520    4.1804 C.ar      1 RES1    0.0000
      8 H4         8.2741    6.4205    4.1900 H         1 RES1    0.0000
      9 C4        10.1082    6.1445    4.9398 C.ar      1 RES1    0.0000
     10 H5        10.1199    6.9320    5.4347 H         1 RES1    0.0000
     11 C5        11.2023    5.2986    4.9915 C.ar      1 RES1    0.0000
     12 H6        11.9217    5.4955    5.5487 H         1 RES1    0.0000
     13 C6        11.2195    4.1348    4.1922 C.ar      1 RES1    0.0000
     14 C7        12.2804    3.1094    4.3008 C.3       1 RES1    0.0000
     15 H7        12.8034    3.2573    5.1044 H         1 RES1    0.0000
     16 H8        12.8741    3.1640    3.5349 H         1 RES1    0.0000
     17 C8        11.6204    1.7346    4.3525 C.3       1 RES1    0.0000
     18 H9        12.2962    1.0475    4.4654 H         1 RES1    0.0000
     19 H10       11.0118    1.6887    5.1055 H         1 RES1    0.0000
     20 C9        10.8683    1.5093    3.0680 C.ar      1 RES1    0.0000
     21 C10       10.8517    0.3249    2.4021 C.ar      1 RES1    0.0000
     22 H11       11.2458   -0.4285    2.7787 H         1 RES1    0.0000
     23 C11       10.2302    0.2396    1.1274 C.ar      1 RES1    0.0000
     24 C12       10.1033   -0.9685    0.4088 C.ar      1 RES1    0.0000
     25 H12       10.3628   -1.7686    0.8047 H         1 RES1    0.0000
     26 C13        9.6055   -0.9748   -0.8520 C.ar      1 RES1    0.0000
     27 H13        9.5399   -1.7773   -1.3178 H         1 RES1    0.0000
     28 C14        9.1894    0.2111   -1.4587 C.ar      1 RES1    0.0000
     29 H14        8.8657    0.1929   -2.3301 H         1 RES1    0.0000
     30 C15        9.2540    1.4065   -0.7821 C.ar      1 RES1    0.0000
     31 H15        8.9745    2.1963   -1.1866 H         1 RES1    0.0000
     32 C16        9.7462    1.4120    0.5282 C.ar      1 RES1    0.0000
     33 N1         9.7898    2.6359    1.2425 N.pl3     1 RES1    0.0000
     34 O2         9.4437    3.7324    0.6239 O.2       1 RES1    0.0000
     35 C17       10.2223    2.6525    2.5291 C.ar      1 RES1    0.0000
     36 C18       10.1318    3.8898    3.3165 C.ar      1 RES1    0.0000
     37 C19        1.5270   -0.7708    0.0140 C.ar      2 RES2    0.0000
     38 O3         0.8404   -0.2925   -1.0575 O.3       2 RES2    0.0000
     39 C20        0.8442   -1.0792   -2.2386 C.3       2 RES2    0.0000
     40 H16        0.2791   -0.6688   -2.8981 H         2 RES2    0.0000
     41 H17        0.5167   -1.9591   -2.0385 H         2 RES2    0.0000
     42 H18        1.7396   -1.1408   -2.5786 H         2 RES2    0.0000
     43 C21        2.2951   -1.9219   -0.0043 C.ar      2 RES2    0.0000
     44 H19        2.2722   -2.4825   -0.7455 H         2 RES2    0.0000
     45 C22        3.0925   -2.2406    1.0747 C.ar      2 RES2    0.0000
     46 H20        3.5640   -3.0430    1.0747 H         2 RES2    0.0000
     47 C23        3.2032   -1.3899    2.1526 C.ar      2 RES2    0.0000
     48 H21        3.8017   -1.5859    2.8367 H         2 RES2    0.0000
     49 C24        2.4177   -0.2277    2.2214 C.ar      2 RES2    0.0000
     50 C25        2.5870    0.7922    3.3047 C.3       2 RES2    0.0000
     51 H22        3.4225    0.6435    3.7759 H         2 RES2    0.0000
     52 H23        1.8588    0.7258    3.9426 H         2 RES2    0.0000
     53 C26        2.5895    2.1726    2.6496 C.3       2 RES2    0.0000
     54 H24        2.7227    2.8564    3.3241 H         2 RES2    0.0000
     55 H25        3.3172    2.2319    2.0095 H         2 RES2    0.0000
     56 C27        1.2767    2.3916    1.9514 C.ar      2 RES2    0.0000
     57 C28        0.6065    3.5893    1.9805 C.ar      2 RES2    0.0000
     58 H26        0.9890    4.3341    2.3849 H         2 RES2    0.0000
     59 C29       -0.6766    3.6739    1.3899 C.ar      2 RES2    0.0000
     60 C30       -1.3937    4.8914    1.3135 C.ar      2 RES2    0.0000
     61 H27       -0.9930    5.6805    1.6007 H         2 RES2    0.0000
     62 C31       -2.6560    4.9215    0.8294 C.ar      2 RES2    0.0000
     63 H28       -3.1184    5.7279    0.7928 H         2 RES2    0.0000
     64 C32       -3.2737    3.7403    0.3808 C.ar      2 RES2    0.0000
     65 H29       -4.1402    3.7712    0.0473 H         2 RES2    0.0000
     66 C33       -2.6109    2.5544    0.4292 C.ar      2 RES2    0.0000
     67 H30       -3.0286    1.7709    0.1506 H         2 RES2    0.0000
     68 C34       -1.2980    2.5228    0.9015 C.ar      2 RES2    0.0000
     69 N2        -0.5885    1.2950    0.9155 N.pl3     2 RES2    0.0000
     70 O4        -1.2139    0.2040    0.5723 O.2       2 RES2    0.0000
     71 C35        0.7157    1.2729    1.3038 C.ar      2 RES2    0.0000
     72 C36        1.5182    0.0411    1.1715 C.ar      2 RES2    0.0000
@<TRIPOS>BOND
     1    1    2 1
     2    2    3 1
     3    3    4 1
     4    5    3 1
     5    6    3 1
     6    7    1 ar
     7    8    7 1
     8    9    7 ar
     9   10    9 1
    10   11    9 ar
    11   12   11 1
    12   13   11 ar
    13   14   13 1
    14   15   14 1
    15   16   14 1
    16   17   14 1
    17   18   17 1
    18   19   17 1
    19   20   17 1
    20   21   20 ar
    21   22   21 1
    22   23   21 ar
    23   24   23 ar
    24   25   24 1
    25   26   24 ar
    26   27   26 1
    27   28   26 ar
    28   29   28 1
    29   30   28 ar
    30   31   30 1
    31   32   23 ar
    32   33   32 ar
    33   34   33 1
    34   35   20 ar
    35   36    1 ar
    36   37   38 1
    37   38   39 1
    38   39   40 1
    39   41   39 1
    40   42   39 1
    41   43   37 ar
    42   44   43 1
    43   45   43 ar
    44   46   45 1
    45   47   45 ar
    46   48   47 1
    47   49   47 ar
    48   50   49 1
    49   51   50 1
    50   52   50 1
    51   53   50 1
    52   54   53 1
    53   55   53 1
    54   56   53 1
    55   57   56 ar
    56   58   57 1
    57   59   57 ar
    58   60   59 ar
    59   61   60 1
    60   62   60 ar
    61   63   62 1
    62   64   62 ar
    63   65   64 1
    64   66   64 ar
    65   67   66 1
    66   68   59 ar
    67   69   68 ar
    68   70   69 1
    69   71   56 ar
    70   72   37 ar
    71   13   36 ar
    72   30   32 ar
    73   33   35 ar
    74   35   36 1
    75   49   72 ar
    76   66   68 ar
    77   69   71 ar
    78   71   72 1
@<TRIPOS>SUBSTRUCTURE
     1 RES1 1
     2 RES2 37

