# MOL2 file generated by ConQuest
# Please check atom types

@<TRIPOS>MOLECULE
WINRAM
    32    35     1
SMALL
NO_CHARGES
****
Generated from CSD

@<TRIPOS>ATOM
      1 C1        12.1729    9.5062    2.3346 C.ar      1 RES1    0.0000
      2 O1        12.8778    8.4226    1.9546 O.3       1 RES1    0.0000
      3 C2        12.4099    7.1479    2.2394 C.3       1 RES1    0.0000
      4 H1        13.0280    6.4965    1.9005 H         1 RES1    0.0000
      5 H2        11.5521    7.0227    1.8242 H         1 RES1    0.0000
      6 H3        12.3237    7.0436    3.1896 H         1 RES1    0.0000
      7 C3        10.9885    9.4138    3.0706 C.ar      1 RES1    0.0000
      8 H4        10.6381    8.5730    3.2602 H         1 RES1    0.0000
      9 C4        10.3273   10.5333    3.5220 C.ar      1 RES1    0.0000
     10 H5         9.5430   10.4364    4.0127 H         1 RES1    0.0000
     11 C5        10.8109   11.7974    3.2586 C.ar      1 RES1    0.0000
     12 H6        10.3755   12.5562    3.5745 H         1 RES1    0.0000
     13 C6        11.9659   11.8958    2.5077 C.ar      1 RES1    0.0000
     14 C7        12.6315   13.1420    2.0728 C.2       1 RES1    0.0000
     15 O2        12.2327   14.2818    2.2328 O.2       1 RES1    0.0000
     16 C8        13.8241   12.7201    1.3088 C.ar      1 RES1    0.0000
     17 C9        14.7832   13.4655    0.7123 C.ar      1 RES1    0.0000
     18 H7        14.7739   14.3942    0.7738 H         1 RES1    0.0000
     19 C10       15.7979   12.7977   -0.0066 C.ar      1 RES1    0.0000
     20 C11       16.8632   13.4625   -0.6417 C.ar      1 RES1    0.0000
     21 H8        16.9227   14.3897   -0.5859 H         1 RES1    0.0000
     22 C12       17.8111   12.7678   -1.3376 C.ar      1 RES1    0.0000
     23 H9        18.5141   13.2225   -1.7429 H         1 RES1    0.0000
     24 C13       17.7276   11.3815   -1.4418 C.ar      1 RES1    0.0000
     25 H10       18.3682   10.9194   -1.9325 H         1 RES1    0.0000
     26 C14       16.7190   10.6943   -0.8345 C.ar      1 RES1    0.0000
     27 H11       16.6744    9.7671   -0.9018 H         1 RES1    0.0000
     28 C15       15.7580   11.3919   -0.1124 C.ar      1 RES1    0.0000
     29 N1        14.7148   10.6502    0.5170 N.pl3     1 RES1    0.0000
     30 O3        14.6915    9.3823    0.3159 O.2       1 RES1    0.0000
     31 C16       13.8018   11.3010    1.2489 C.ar      1 RES1    0.0000
     32 C17       12.6571   10.7800    2.0203 C.ar      1 RES1    0.0000
@<TRIPOS>BOND
     1    1    2 1
     2    2    3 1
     3    3    4 1
     4    5    3 1
     5    6    3 1
     6    7    1 ar
     7    8    7 1
     8    9    7 ar
     9   10    9 1
    10   11    9 ar
    11   12   11 1
    12   13   11 ar
    13   14   13 1
    14   15   14 2
    15   16   14 1
    16   17   16 ar
    17   18   17 1
    18   19   17 ar
    19   20   19 ar
    20   21   20 1
    21   22   20 ar
    22   23   22 1
    23   24   22 ar
    24   25   24 1
    25   26   24 ar
    26   27   26 1
    27   28   19 ar
    28   29   28 ar
    29   30   29 1
    30   31   16 ar
    31   32    1 ar
    32   13   32 ar
    33   26   28 ar
    34   29   31 ar
    35   31   32 1
@<TRIPOS>SUBSTRUCTURE
     1 RES1 1

@<TRIPOS>CRYSIN
  21.0230   14.9070    8.2059  90.0000  90.0000  90.0000  61 1

