# MOL2 file generated by ConQuest
# Please check atom types

@<TRIPOS>MOLECULE
WINYUN
    43    38     2
SMALL
NO_CHARGES
****
Generated from CSD

@<TRIPOS>ATOM
      1 O1        -2.9719    1.0038    6.4091 O.3       1 RES1    0.0000
      2 N1        -1.9714    1.5615    5.5318 N.3       1 RES1    0.0000
      3 C1        -0.9679    2.2411    6.3311 C.3       1 RES1    0.0000
      4 C2        -0.3553    3.2786    5.4325 C.3       1 RES1    0.0000
      5 C3        -1.4204    3.4680    4.3534 C.3       1 RES1    0.0000
      6 C4        -2.6041    2.6524    4.7681 C.3       1 RES1    0.0000
      7 C5        -3.5418    2.1273    3.6934 C.3       1 RES1    0.0000
      8 C6        -4.4020    3.2588    3.1873 C.ar      1 RES1    0.0000
      9 C7        -4.0103    4.0733    2.1594 C.ar      1 RES1    0.0000
     10 C8        -4.8085    5.1061    1.7547 C.ar      1 RES1    0.0000
     11 C9        -5.9942    5.3396    2.3579 C.ar      1 RES1    0.0000
     12 C10       -6.3901    4.5787    3.3456 C.ar      1 RES1    0.0000
     13 C11       -5.6024    3.5203    3.7815 C.ar      1 RES1    0.0000
     14 C12        0.8949    2.7372    4.8238 C.3       1 RES1    0.0000
     15 C13       -0.0677    4.5194    6.1483 C.3       1 RES1    0.0000
     16 C14       -2.8638    1.3570    2.5808 C.3       1 RES1    0.0000
     17 H1        -2.8493    0.1859    6.3322 H         1 RES1    0.0000
     18 H2        -0.3336    1.5917    6.7670 H         1 RES1    0.0000
     19 H3        -1.3934    2.6024    7.0011 H         1 RES1    0.0000
     20 H4        -1.0764    3.1717    3.5117 H         1 RES1    0.0000
     21 H5        -1.6117    4.4148    4.1583 H         1 RES1    0.0000
     22 H6        -3.1083    3.1485    5.3735 H         1 RES1    0.0000
     23 H7        -4.1289    1.5452    4.2140 H         1 RES1    0.0000
     24 H8        -3.1596    3.8456    1.6499 H         1 RES1    0.0000
     25 H9        -4.4380    5.5883    0.9587 H         1 RES1    0.0000
     26 H10       -6.3231    6.0530    2.0513 H         1 RES1    0.0000
     27 H11       -7.1232    4.7169    3.9576 H         1 RES1    0.0000
     28 H12       -5.8382    3.0091    4.4593 H         1 RES1    0.0000
     29 H13        1.3144    3.4780    4.1325 H         1 RES1    0.0000
     30 H14        1.6218    2.5266    5.6051 H         1 RES1    0.0000
     31 H15        0.6647    1.8257    4.2762 H         1 RES1    0.0000
     32 H16        1.7327    3.3968    5.0669 Du        2 SUP2    0.0000
     33 H17        1.0931    1.7415    5.2067 Du        2 SUP2    0.0000
     34 H18        0.7757    2.6971    3.7372 Du        2 SUP2    0.0000
     35 H19        0.6774    4.2956    6.9455 H         1 RES1    0.0000
     36 H20        0.3700    5.2470    5.4729 H         1 RES1    0.0000
     37 H21       -0.9623    4.9018    6.6038 H         1 RES1    0.0000
     38 H22        1.0187    4.7241    6.0768 Du        2 SUP2    0.0000
     39 H23       -0.6172    5.3394    5.7403 Du        2 SUP2    0.0000
     40 H24       -0.3126    4.3779    7.2087 Du        2 SUP2    0.0000
     41 H25       -2.1417    2.0047    2.1024 H         1 RES1    0.0000
     42 H26       -2.3487    0.5007    3.0315 H         1 RES1    0.0000
     43 H27       -3.5384    0.9652    1.8135 H         1 RES1    0.0000
@<TRIPOS>BOND
     1    1    2 1
     2    2    3 1
     3    3    4 1
     4    4    5 1
     5    5    6 1
     6    6    2 1
     7    7    6 1
     8    8    7 1
     9    9    8 ar
    10   10    9 ar
    11   11   10 ar
    12   12   11 ar
    13   13    8 ar
    14   14    4 1
    15   15    4 1
    16   16    7 1
    17   17    1 1
    18   18    3 1
    19   19    3 1
    20   20    5 1
    21   21    5 1
    22   22    6 1
    23   23    7 1
    24   24    9 1
    25   25   10 1
    26   26   11 1
    27   27   12 1
    28   28   13 1
    29   29   14 1
    30   30   14 1
    31   31   14 1
    32   35   15 1
    33   36   15 1
    34   37   15 1
    35   41   16 1
    36   42   16 1
    37   43   16 1
    38   12   13 ar
@<TRIPOS>SUBSTRUCTURE
     1 RES1 1
     2 SUP2 32

@<TRIPOS>CRYSIN
  10.5790   11.6180   11.8860  90.0000 110.2930  90.0000  14 1

