# MOL2 file generated by ConQuest
# Please check atom types

@<TRIPOS>MOLECULE
WIPWEZ
    34    36     1
SMALL
NO_CHARGES
****
Generated from CSD

@<TRIPOS>ATOM
      1 C1        -0.1042   11.7033    6.3487 C.2       1 RES1    0.0000
      2 C2        -0.7234   10.6363    6.9042 C.2       1 RES1    0.0000
      3 H1        -1.2901   10.0371    6.4749 H         1 RES1    0.0000
      4 C3        -0.3348   10.6110    8.2849 C.2       1 RES1    0.0000
      5 C4        -0.6115    9.7034    9.3991 C.2       1 RES1    0.0000
      6 C5        -0.1605   10.1731   10.7505 C.3       1 RES1    0.0000
      7 H2        -0.9333   10.5270   11.2174 H         1 RES1    0.0000
      8 H3         0.1465    9.4002   11.2492 H         1 RES1    0.0000
      9 C6         0.8886   11.1789   10.7965 C.3       1 RES1    0.0000
     10 H4         0.7469   11.6929   11.6075 H         1 RES1    0.0000
     11 H5         1.7258   10.7033   10.9126 H         1 RES1    0.0000
     12 C7         1.0970   12.1346    9.7298 C.3       1 RES1    0.0000
     13 H6         2.0488   12.2632    9.5929 H         1 RES1    0.0000
     14 H7         0.7121   12.9882    9.9821 H         1 RES1    0.0000
     15 C8         0.4808   11.6708    8.4786 C.2       1 RES1    0.0000
     16 C9        -0.0611   12.2959    5.0140 C.ar      1 RES1    0.0000
     17 C10        0.8832   13.2786    4.7167 C.ar      1 RES1    0.0000
     18 H8         1.4905   13.5506    5.3665 H         1 RES1    0.0000
     19 C11        0.9158   13.8489    3.4621 C.ar      1 RES1    0.0000
     20 H9         1.5479   14.5050    3.2742 H         1 RES1    0.0000
     21 C12        0.0266   13.4603    2.4774 C.ar      1 RES1    0.0000
     22 H10        0.0537   13.8524    1.6346 H         1 RES1    0.0000
     23 C13       -0.9024   12.4791    2.7664 C.ar      1 RES1    0.0000
     24 H11       -1.4961   12.1985    2.1082 H         1 RES1    0.0000
     25 C14       -0.9547   11.9130    4.0217 C.ar      1 RES1    0.0000
     26 H12       -1.5966   11.2657    4.2063 H         1 RES1    0.0000
     27 C15       -1.9410    6.5942    9.9712 C.3       1 RES1    0.0000
     28 H13       -2.7091    6.7410    9.3974 H         1 RES1    0.0000
     29 H14       -2.2485    6.1394   10.7714 H         1 RES1    0.0000
     30 C16       -0.9799    5.7430    9.2763 C.1       1 RES1    0.0000
     31 O1         0.6476   12.3525    7.3086 O.3       1 RES1    0.0000
     32 O2        -1.3887    7.8382   10.3299 O.3       1 RES1    0.0000
     33 N1        -1.2021    8.6040    9.1285 N.2       1 RES1    0.0000
     34 N2        -0.2409    5.0689    8.7334 N.1       1 RES1    0.0000
@<TRIPOS>BOND
     1    1    2 2
     2    2    3 1
     3    4    2 1
     4    5    4 1
     5    6    5 1
     6    7    6 1
     7    8    6 1
     8    9    6 1
     9   10    9 1
    10   11    9 1
    11   12    9 1
    12   13   12 1
    13   14   12 1
    14   15    4 2
    15   16    1 1
    16   17   16 ar
    17   18   17 1
    18   19   17 ar
    19   20   19 1
    20   21   19 ar
    21   22   21 1
    22   23   21 ar
    23   24   23 1
    24   25   16 ar
    25   26   25 1
    26   27   28 1
    27   29   27 1
    28   30   27 1
    29   31    1 1
    30   32   27 1
    31   33    5 2
    32   34   30 3
    33   12   15 1
    34   15   31 1
    35   23   25 ar
    36   32   33 1
@<TRIPOS>SUBSTRUCTURE
     1 RES1 1

@<TRIPOS>CRYSIN
   8.4230   19.5960    8.7700  90.0000 107.7500  90.0000  14 1

