# MOL2 file generated by ConQuest
# Please check atom types

@<TRIPOS>MOLECULE
WIQJOX
   158   164     2
SMALL
NO_CHARGES
****
Generated from CSD

@<TRIPOS>ATOM
      1 O1        -6.3611    8.4680    5.9929 O.2       1 RES1    0.0000
      2 O2        -5.1385    9.8038    7.1790 O.2       1 RES1    0.0000
      3 O3         2.9923    2.0529    4.3698 O.2       1 RES1    0.0000
      4 O4         4.3674    3.8104    4.3108 O.3       1 RES1    0.0000
      5 O5        12.6784   -0.3933   -5.0835 O.3       1 RES1    0.0000
      6 N1        -5.2735    8.8687    6.4308 N.pl3     1 RES1    0.0000
      7 C1         3.6936    2.1033   -0.5134 C.2       1 RES1    0.0000
      8 C2         2.5271    1.5190   -0.1284 C.2       1 RES1    0.0000
      9 H1         2.3203    0.6645   -0.4868 H         1 RES1    0.0000
     10 C3         1.5903    2.1033    0.7808 C.2       1 RES1    0.0000
     11 H2         0.6743    1.9071    0.6263 H         1 RES1    0.0000
     12 C4         1.8666    2.9140    1.8519 C.2       1 RES1    0.0000
     13 C5         3.2449    3.1993    2.3108 C.2       1 RES1    0.0000
     14 C6         4.2466    3.4623    1.4497 C.2       1 RES1    0.0000
     15 C7         5.6915    3.6264    1.7476 C.2       1 RES1    0.0000
     16 C8         6.2969    4.7722    1.3911 C.2       1 RES1    0.0000
     17 H3         7.2197    4.8470    1.6053 H         1 RES1    0.0000
     18 C9         5.6946    5.9094    0.7134 C.2       1 RES1    0.0000
     19 C10        4.7248    5.8043   -0.2234 C.2       1 RES1    0.0000
     20 H4         4.3794    6.6188   -0.5684 H         1 RES1    0.0000
     21 C11        4.1570    4.5812   -0.7568 C.2       1 RES1    0.0000
     22 C12        4.0144    3.4746   -0.0058 C.2       1 RES1    0.0000
     23 C13        4.6828    1.3977   -1.3024 C.2       1 RES1    0.0000
     24 H5         4.4510    0.5412   -1.6421 H         1 RES1    0.0000
     25 C14        5.9113    1.8767   -1.5874 C.2       1 RES1    0.0000
     26 H6         6.1052    2.7622   -1.3026 H         1 RES1    0.0000
     27 C15        6.9583    1.1688   -2.2826 C.2       1 RES1    0.0000
     28 H7         6.7859    0.2987   -2.6237 H         1 RES1    0.0000
     29 C16        8.1764    1.7164   -2.4571 C.2       1 RES1    0.0000
     30 H8         8.2911    2.5912   -2.1053 H         1 RES1    0.0000
     31 C17        9.3382    1.1414   -3.1148 C.ar      1 RES1    0.0000
     32 C18       10.4926    1.9178   -3.2561 C.ar      1 RES1    0.0000
     33 H9        10.4999    2.7979   -2.8974 H         1 RES1    0.0000
     34 C19       11.6258    1.4476   -3.9000 C.ar      1 RES1    0.0000
     35 H10       12.3926    2.0016   -3.9869 H         1 RES1    0.0000
     36 C20       11.6308    0.1662   -4.4156 C.ar      1 RES1    0.0000
     37 C21       10.5005   -0.6361   -4.2695 C.ar      1 RES1    0.0000
     38 H11       10.5029   -1.5190   -4.6211 H         1 RES1    0.0000
     39 C22        9.3824   -0.1630   -3.6224 C.ar      1 RES1    0.0000
     40 H12        8.6277   -0.7311   -3.5184 H         1 RES1    0.0000
     41 C23       13.8388    0.4213   -5.2666 C.3       1 RES1    0.0000
     42 H13       13.5992    1.2225   -5.7764 H         1 RES1    0.0000
     43 H14       14.5198   -0.0864   -5.7579 H         1 RES1    0.0000
     44 H15       14.1946    0.6844   -4.3921 H         1 RES1    0.0000
     45 C24        0.7467    3.4824    2.5798 C.2       1 RES1    0.0000
     46 H16       -0.0957    3.0622    2.4526 H         1 RES1    0.0000
     47 C25        0.7657    4.5334    3.4127 C.2       1 RES1    0.0000
     48 H17        1.6039    4.9094    3.6553 H         1 RES1    0.0000
     49 C26       -0.4408    5.1153    3.9537 C.2       1 RES1    0.0000
     50 H18       -1.2492    4.6331    3.8211 H         1 RES1    0.0000
     51 C27       -0.5259    6.2640    4.6206 C.2       1 RES1    0.0000
     52 H19        0.2892    6.7166    4.8053 H         1 RES1    0.0000
     53 C28       -1.7550    6.8925    5.0958 C.ar      1 RES1    0.0000
     54 C29       -1.6914    7.9954    5.9529 C.ar      1 RES1    0.0000
     55 H20       -0.8430    8.3209    6.2316 H         1 RES1    0.0000
     56 C30       -2.8375    8.6225    6.4014 C.ar      1 RES1    0.0000
     57 H21       -2.7806    9.3644    6.9921 H         1 RES1    0.0000
     58 C31       -4.0593    8.1622    5.9827 C.ar      1 RES1    0.0000
     59 C32       -4.1806    7.0778    5.1463 C.ar      1 RES1    0.0000
     60 H22       -5.0351    6.7655    4.8737 H         1 RES1    0.0000
     61 C33       -3.0248    6.4521    4.7132 C.ar      1 RES1    0.0000
     62 H23       -3.0974    5.7006    4.1369 H         1 RES1    0.0000
     63 C34        3.4971    2.9622    3.7616 C.2       1 RES1    0.0000
     64 C35        4.7795    3.4904    5.6690 C.3       1 RES1    0.0000
     65 H24        3.9870    3.3109    6.2158 H         1 RES1    0.0000
     66 H25        5.2728    4.2486    6.0474 H         1 RES1    0.0000
     67 H26        5.3565    2.6983    5.6579 H         1 RES1    0.0000
     68 C36        6.4154    2.4406    2.3153 C.3       1 RES1    0.0000
     69 H27        6.3934    1.7039    1.6684 H         1 RES1    0.0000
     70 H28        5.9804    2.1584    3.1474 H         1 RES1    0.0000
     71 H29        7.3471    2.6845    2.5000 H         1 RES1    0.0000
     72 C37        6.3087    7.2504    1.0334 C.3       1 RES1    0.0000
     73 H30        5.9101    7.9376    0.4605 H         1 RES1    0.0000
     74 H31        7.2751    7.2133    0.8763 H         1 RES1    0.0000
     75 H32        6.1388    7.4705    1.9737 H         1 RES1    0.0000
     76 C38        3.7566    4.6113   -2.2053 C.3       1 RES1    0.0000
     77 H33        3.2601    3.7956   -2.4237 H         1 RES1    0.0000
     78 H34        4.5592    4.6665   -2.7658 H         1 RES1    0.0000
     79 H35        3.1887    5.3938   -2.3711 H         1 RES1    0.0000
     80 O6        11.5595    4.7555    6.5261 O.2       2 RES2    0.0000
     81 O7        10.5624    6.3744    7.5406 O.2       2 RES2    0.0000
     82 O8         1.6343    0.4200    8.8108 O.2       2 RES2    0.0000
     83 O9         2.2816   -1.2144    7.4335 O.3       2 RES2    0.0000
     84 O10       -6.0869   -7.3393   16.9188 O.3       2 RES2    0.0000
     85 N2        10.6212    5.2065    7.1682 N.pl3     2 RES2    0.0000
     86 C39        2.1234   -4.1788   11.3101 C.2       2 RES2    0.0000
     87 C40        2.9552   -4.5508   10.2980 C.2       2 RES2    0.0000
     88 H36        2.9056   -5.4531   10.0027 H         2 RES2    0.0000
     89 C41        3.8975   -3.6974    9.6393 C.2       2 RES2    0.0000
     90 H37        4.6866   -4.1155    9.3158 H         2 RES2    0.0000
     91 C42        3.7959   -2.3621    9.4245 C.2       2 RES2    0.0000
     92 C43        2.5544   -1.6055    9.7132 C.2       2 RES2    0.0000
     93 C44        1.8032   -1.7822   10.8124 C.2       2 RES2    0.0000
     94 C45        0.5186   -1.0989   11.1180 C.2       2 RES2    0.0000
     95 C46        0.4441   -0.3484   12.2253 C.2       2 RES2    0.0000
     96 H38       -0.3792    0.1022   12.3711 H         2 RES2    0.0000
     97 C47        1.4710   -0.1449   13.2259 C.2       2 RES2    0.0000
     98 C48        2.3785   -1.0888   13.5975 C.2       2 RES2    0.0000
     99 H39        2.9980   -0.8317   14.2711 H         2 RES2    0.0000
    100 C49        2.5111   -2.4326   13.0914 C.2       2 RES2    0.0000
    101 C50        2.1827   -2.7824   11.8290 C.2       2 RES2    0.0000
    102 C51        1.1631   -5.1101   11.8838 C.2       2 RES2    0.0000
    103 H40        1.1463   -5.9949   11.5395 H         2 RES2    0.0000
    104 C52        0.2995   -4.8071   12.8667 C.2       2 RES2    0.0000
    105 H41        0.3782   -3.9369   13.2396 H         2 RES2    0.0000
    106 C53       -0.7335   -5.6473   13.4219 C.2       2 RES2    0.0000
    107 H42       -0.8405   -6.5329   13.0948 H         2 RES2    0.0000
    108 C54       -1.5446   -5.2019   14.3890 C.2       2 RES2    0.0000
    109 H43       -1.3241   -4.3429   14.7290 H         2 RES2    0.0000
    110 C55       -2.7084   -5.8210   15.0035 C.ar      2 RES2    0.0000
    111 C56       -3.4424   -5.0867   15.9390 C.ar      2 RES2    0.0000
    112 H44       -3.1620   -4.2064   16.1580 H         2 RES2    0.0000
    113 C57       -4.5582   -5.6054   16.5496 C.ar      2 RES2    0.0000
    114 H45       -5.0463   -5.0815   17.1738 H         2 RES2    0.0000
    115 C58       -4.9728   -6.9036   16.2517 C.ar      2 RES2    0.0000
    116 C59       -4.2744   -7.6496   15.3238 C.ar      2 RES2    0.0000
    117 H46       -4.5579   -8.5300   15.1080 H         2 RES2    0.0000
    118 C60       -3.1570   -7.1084   14.7106 C.ar      2 RES2    0.0000
    119 H47       -2.6833   -7.6275   14.0711 H         2 RES2    0.0000
    120 C61       -6.3633   -8.7266   16.8869 C.3       2 RES2    0.0000
    121 H48       -6.5645   -8.9978   15.9659 H         2 RES2    0.0000
    122 H49       -7.1344   -8.9190   17.4606 H         2 RES2    0.0000
    123 H50       -5.5833   -9.2228   17.2106 H         2 RES2    0.0000
    124 C62        4.9307   -1.6233    8.8816 C.2       2 RES2    0.0000
    125 H51        5.6107   -2.1194    8.4422 H         2 RES2    0.0000
    126 C63        5.0807   -0.2946    8.9598 C.2       2 RES2    0.0000
    127 H52        4.3800    0.1984    9.3711 H         2 RES2    0.0000
    128 C64        6.2109    0.4504    8.4737 C.2       2 RES2    0.0000
    129 H53        6.9131   -0.0215    8.0422 H         2 RES2    0.0000
    130 C65        6.3191    1.7795    8.6029 C.2       2 RES2    0.0000
    131 H54        5.5846    2.2192    9.0132 H         2 RES2    0.0000
    132 C66        7.4225    2.6326    8.1903 C.ar      2 RES2    0.0000
    133 C67        8.5980    2.1325    7.6203 C.ar      2 RES2    0.0000
    134 H55        8.6817    1.1979    7.4737 H         2 RES2    0.0000
    135 C68        9.6376    2.9633    7.2664 C.ar      2 RES2    0.0000
    136 H56       10.4297    2.6128    6.8764 H         2 RES2    0.0000
    137 C69        9.5026    4.3183    7.4924 C.ar      2 RES2    0.0000
    138 C70        8.3603    4.8624    8.0335 C.ar      2 RES2    0.0000
    139 H57        8.2858    5.7992    8.1658 H         2 RES2    0.0000
    140 C71        7.3244    4.0172    8.3806 C.ar      2 RES2    0.0000
    141 H58        6.5304    4.3824    8.7553 H         2 RES2    0.0000
    142 C72        2.1099   -0.6575    8.6429 C.2       2 RES2    0.0000
    143 C73        1.8329   -0.4305    6.3224 C.3       2 RES2    0.0000
    144 H59        0.8578   -0.3422    6.3579 H         2 RES2    0.0000
    145 H60        2.0908   -0.8711    5.4869 H         2 RES2    0.0000
    146 H61        2.2435    0.4589    6.3632 H         2 RES2    0.0000
    147 C74       -0.6505   -1.3152   10.1893 C.3       2 RES2    0.0000
    148 H62       -1.4420   -0.8622   10.5501 H         2 RES2    0.0000
    149 H63       -0.8306   -2.2753   10.1106 H         2 RES2    0.0000
    150 H64       -0.4376   -0.9486    9.3053 H         2 RES2    0.0000
    151 C75        1.4456    1.1745   13.9467 C.3       2 RES2    0.0000
    152 H65        2.0488    1.1379   14.7185 H         2 RES2    0.0000
    153 H66        0.5337    1.3616   14.2554 H         2 RES2    0.0000
    154 H67        1.7364    1.8854   13.3369 H         2 RES2    0.0000
    155 C76        3.0759   -3.4415   14.0717 C.3       2 RES2    0.0000
    156 H68        2.4084   -3.6330   14.7633 H         2 RES2    0.0000
    157 H69        3.8826   -3.0742   14.4896 H         2 RES2    0.0000
    158 H70        3.3008   -4.2679   13.5975 H         2 RES2    0.0000
@<TRIPOS>BOND
     1    1    6 2
     2    2    6 2
     3    3   63 2
     4    4   63 1
     5    5   36 1
     6    6   58 1
     7    7    8 2
     8    8    9 1
     9   10    8 1
    10   11   10 1
    11   12   10 2
    12   13   12 1
    13   14   13 2
    14   15   14 1
    15   16   15 2
    16   17   16 1
    17   18   16 1
    18   19   18 2
    19   20   19 1
    20   21   19 1
    21   22    7 1
    22   23    7 1
    23   24   23 1
    24   25   23 2
    25   26   25 1
    26   27   25 1
    27   28   27 1
    28   29   27 2
    29   30   29 1
    30   31   29 1
    31   32   31 ar
    32   33   32 1
    33   34   32 ar
    34   35   34 1
    35   36   34 ar
    36   37   36 ar
    37   38   37 1
    38   39   31 ar
    39   40   39 1
    40   41    5 1
    41   42   41 1
    42   43   41 1
    43   44   41 1
    44   45   12 1
    45   46   45 1
    46   47   45 2
    47   48   47 1
    48   49   47 1
    49   50   49 1
    50   51   49 2
    51   52   51 1
    52   53   51 1
    53   54   53 ar
    54   55   54 1
    55   56   54 ar
    56   57   56 1
    57   58   56 ar
    58   59   58 ar
    59   60   59 1
    60   61   53 ar
    61   62   61 1
    62   63   13 1
    63   64    4 1
    64   65   64 1
    65   66   64 1
    66   67   64 1
    67   68   15 1
    68   69   68 1
    69   70   68 1
    70   71   68 1
    71   72   18 1
    72   73   72 1
    73   74   72 1
    74   75   72 1
    75   76   21 1
    76   77   76 1
    77   78   76 1
    78   79   76 1
    79   80   85 2
    80   81   85 2
    81   82  142 2
    82   83  142 1
    83   84  115 1
    84   85  137 1
    85   86   87 2
    86   87   88 1
    87   89   87 1
    88   90   89 1
    89   91   89 2
    90   92   91 1
    91   93   92 2
    92   94   93 1
    93   95   94 2
    94   96   95 1
    95   97   95 1
    96   98   97 2
    97   99   98 1
    98  100   98 1
    99  101   86 1
   100  102   86 1
   101  103  102 1
   102  104  102 2
   103  105  104 1
   104  106  104 1
   105  107  106 1
   106  108  106 2
   107  109  108 1
   108  110  108 1
   109  111  110 ar
   110  112  111 1
   111  113  111 ar
   112  114  113 1
   113  115  113 ar
   114  116  115 ar
   115  117  116 1
   116  118  110 ar
   117  119  118 1
   118  120   84 1
   119  121  120 1
   120  122  120 1
   121  123  120 1
   122  124   91 1
   123  125  124 1
   124  126  124 2
   125  127  126 1
   126  128  126 1
   127  129  128 1
   128  130  128 2
   129  131  130 1
   130  132  130 1
   131  133  132 ar
   132  134  133 1
   133  135  133 ar
   134  136  135 1
   135  137  135 ar
   136  138  137 ar
   137  139  138 1
   138  140  132 ar
   139  141  140 1
   140  142   92 1
   141  143   83 1
   142  144  143 1
   143  145  143 1
   144  146  143 1
   145  147   94 1
   146  148  147 1
   147  149  147 1
   148  150  147 1
   149  151   97 1
   150  152  151 1
   151  153  151 1
   152  154  151 1
   153  155  100 1
   154  156  155 1
   155  157  155 1
   156  158  155 1
   157   14   22 1
   158   21   22 2
   159   37   39 ar
   160   59   61 ar
   161   93  101 1
   162  100  101 2
   163  116  118 ar
   164  138  140 ar
@<TRIPOS>SUBSTRUCTURE
     1 RES1 1
     2 RES2 80

@<TRIPOS>CRYSIN
   9.5704   12.8805   26.4300  92.5590  93.8050 105.5880   2 1

