# MOL2 file generated by ConQuest
# Please check atom types

@<TRIPOS>MOLECULE
WIQJUD
    74    77     1
SMALL
NO_CHARGES
****
Generated from CSD

@<TRIPOS>ATOM
      1 O1         3.3431   15.7624   -6.8351 O.2       1 RES1    0.0000
      2 O2         1.4496   14.8809   -7.4080 O.2       1 RES1    0.0000
      3 O3         5.4715    0.5564    5.3271 O.3       1 RES1    0.0000
      4 O4         1.8473    7.4359    3.3717 O.2       1 RES1    0.0000
      5 O5         3.8117    8.4913    3.6304 O.3       1 RES1    0.0000
      6 N1         2.4289   14.9666   -6.6592 N.pl3     1 RES1    0.0000
      7 C1         3.9885    9.3687   -1.1688 C.2       1 RES1    0.0000
      8 C2         5.1807    8.9634   -0.6583 C.2       1 RES1    0.0000
      9 H1         5.9433    9.4817   -0.8895 H         1 RES1    0.0000
     10 C3         5.4041    7.8289    0.1969 C.2       1 RES1    0.0000
     11 H2         6.2541    7.4127    0.1162 H         1 RES1    0.0000
     12 C4         4.5547    7.2728    1.1074 C.2       1 RES1    0.0000
     13 C5         3.2524    7.8780    1.4543 C.2       1 RES1    0.0000
     14 C6         2.4435    8.4980    0.5817 C.2       1 RES1    0.0000
     15 C7         1.1871    9.2126    0.9391 C.2       1 RES1    0.0000
     16 C8         0.0334    8.7803    0.4018 C.2       1 RES1    0.0000
     17 H3        -0.7568    9.2369    0.6646 H         1 RES1    0.0000
     18 C9        -0.1268    7.6896   -0.5375 C.2       1 RES1    0.0000
     19 H4        -0.9301    7.1882   -0.4625 H         1 RES1    0.0000
     20 C10        0.7286    7.3008   -1.5074 C.2       1 RES1    0.0000
     21 C11        1.9800    7.9972   -1.7796 C.2       1 RES1    0.0000
     22 H5         2.2656    8.0417   -2.6838 H         1 RES1    0.0000
     23 C12        2.7597    8.5788   -0.8602 C.2       1 RES1    0.0000
     24 C13        3.9196   10.5432   -2.0227 C.2       1 RES1    0.0000
     25 H6         4.7369   10.9887   -2.2163 H         1 RES1    0.0000
     26 C14        2.7991   11.0534   -2.5622 C.2       1 RES1    0.0000
     27 H7         1.9795   10.6471   -2.3047 H         1 RES1    0.0000
     28 C15        2.7091   12.1684   -3.5043 C.ar      1 RES1    0.0000
     29 C16        1.4963   12.3953   -4.1581 C.ar      1 RES1    0.0000
     30 H8         0.7258   11.9072   -3.8917 H         1 RES1    0.0000
     31 C17        1.3933   13.3098   -5.1806 C.ar      1 RES1    0.0000
     32 H9         0.5709   13.4344   -5.6405 H         1 RES1    0.0000
     33 C18        2.5114   14.0430   -5.5260 C.ar      1 RES1    0.0000
     34 C19        3.7107   13.9106   -4.8482 C.ar      1 RES1    0.0000
     35 H10        4.4548   14.4583   -5.0719 H         1 RES1    0.0000
     36 C20        3.8087   12.9719   -3.8452 C.ar      1 RES1    0.0000
     37 H11        4.6298   12.8672   -3.3787 H         1 RES1    0.0000
     38 C21        4.9743    6.0717    1.8294 C.2       1 RES1    0.0000
     39 H12        5.9058    5.8929    1.8751 H         1 RES1    0.0000
     40 C22        4.1489    5.2033    2.4323 C.2       1 RES1    0.0000
     41 H13        3.2182    5.3789    2.3654 H         1 RES1    0.0000
     42 C23        4.5431    4.0099    3.1847 C.ar      1 RES1    0.0000
     43 C24        3.6279    2.9705    3.3800 C.ar      1 RES1    0.0000
     44 H14        2.7519    3.0502    3.0199 H         1 RES1    0.0000
     45 C25        3.9677    1.8306    4.0825 C.ar      1 RES1    0.0000
     46 H15        3.3310    1.1345    4.1950 H         1 RES1    0.0000
     47 C26        5.2404    1.7025    4.6256 C.ar      1 RES1    0.0000
     48 C27        6.1644    2.7192    4.4533 C.ar      1 RES1    0.0000
     49 H16        7.0354    2.6394    4.8242 H         1 RES1    0.0000
     50 C28        5.8116    3.8548    3.7376 C.ar      1 RES1    0.0000
     51 H17        6.4540    4.5455    3.6213 H         1 RES1    0.0000
     52 C29        6.7267    0.4111    5.9882 C.3       1 RES1    0.0000
     53 H18        7.4515    0.4736    5.3322 H         1 RES1    0.0000
     54 H19        6.7629   -0.4619    6.4315 H         1 RES1    0.0000
     55 H20        6.8287    1.1218    6.6564 H         1 RES1    0.0000
     56 C30        2.8641    7.8776    2.9072 C.2       1 RES1    0.0000
     57 C31        3.5870    8.5008    5.0620 C.3       1 RES1    0.0000
     58 H21        2.6938    8.8569    5.2513 H         1 RES1    0.0000
     59 H22        4.2614    9.0645    5.4939 H         1 RES1    0.0000
     60 H23        3.6529    7.5873    5.4105 H         1 RES1    0.0000
     61 C32        1.2872   10.3910    1.8665 C.3       1 RES1    0.0000
     62 H24        1.5321   10.0809    2.7621 H         1 RES1    0.0000
     63 H25        0.4221   10.8514    1.9054 H         1 RES1    0.0000
     64 H26        1.9717   11.0089    1.5365 H         1 RES1    0.0000
     65 C33        0.4006    6.1041   -2.3899 C.3       1 RES1    0.0000
     66 H27       -0.4734    5.7312   -2.0798 H         1 RES1    0.0000
     67 C34        0.2599    6.4378   -3.8604 C.3       1 RES1    0.0000
     68 H28       -0.4013    7.1520   -3.9701 H         1 RES1    0.0000
     69 H29       -0.0360    5.6407   -4.3491 H         1 RES1    0.0000
     70 H30        1.1249    6.7348   -4.2127 H         1 RES1    0.0000
     71 C35        1.4592    5.0160   -2.2024 C.3       1 RES1    0.0000
     72 H31        2.2918    5.2905   -2.6434 H         1 RES1    0.0000
     73 H32        1.1407    4.1784   -2.5979 H         1 RES1    0.0000
     74 H33        1.6251    4.8829   -1.2459 H         1 RES1    0.0000
@<TRIPOS>BOND
     1    1    6 2
     2    2    6 2
     3    3   47 1
     4    4   56 2
     5    5   56 1
     6    6   33 1
     7    7    8 2
     8    8    9 1
     9   10    8 1
    10   11   10 1
    11   12   10 2
    12   13   12 1
    13   14   13 2
    14   15   14 1
    15   16   15 2
    16   17   16 1
    17   18   16 1
    18   19   18 1
    19   20   18 2
    20   21   20 1
    21   22   21 1
    22   23    7 1
    23   24    7 1
    24   25   24 1
    25   26   24 2
    26   27   26 1
    27   28   26 1
    28   29   28 ar
    29   30   29 1
    30   31   29 ar
    31   32   31 1
    32   33   31 ar
    33   34   33 ar
    34   35   34 1
    35   36   28 ar
    36   37   36 1
    37   38   12 1
    38   39   38 1
    39   40   38 2
    40   41   40 1
    41   42   40 1
    42   43   42 ar
    43   44   43 1
    44   45   43 ar
    45   46   45 1
    46   47   45 ar
    47   48   47 ar
    48   49   48 1
    49   50   42 ar
    50   51   50 1
    51   52    3 1
    52   53   52 1
    53   54   52 1
    54   55   52 1
    55   56   13 1
    56   57    5 1
    57   58   57 1
    58   59   57 1
    59   60   57 1
    60   61   15 1
    61   62   61 1
    62   63   61 1
    63   64   61 1
    64   65   20 1
    65   66   65 1
    66   67   65 1
    67   68   67 1
    68   69   67 1
    69   70   67 1
    70   71   65 1
    71   72   71 1
    72   73   71 1
    73   74   71 1
    74   14   23 1
    75   21   23 2
    76   34   36 ar
    77   48   50 ar
@<TRIPOS>SUBSTRUCTURE
     1 RES1 1

@<TRIPOS>CRYSIN
  10.8519   10.6428   25.7003  90.0000 100.4867  90.0000  14 1

