# MOL2 file generated by ConQuest
# Please check atom types

@<TRIPOS>MOLECULE
WIQMAK
    28    32     1
SMALL
NO_CHARGES
****
Generated from CSD

@<TRIPOS>ATOM
      1 O1         2.8464    1.0079   -3.8388 O.2       1 RES1    0.0000
      2 O2         4.3549    1.5417   -5.2737 O.2       1 RES1    0.0000
      3 N1         3.2967   -0.1982   -0.6845 N.3       1 RES1    0.0000
      4 N2         4.4485    1.6313   -1.2991 N.2       1 RES1    0.0000
      5 N3         3.9322    0.8598   -4.3518 N.pl3     1 RES1    0.0000
      6 C1         4.2634    0.3427   -1.4933 C.2       1 RES1    0.0000
      7 C2         2.8111    0.8550    0.0813 C.ar      1 RES1    0.0000
      8 C3         3.5426    1.9525   -0.3098 C.ar      1 RES1    0.0000
      9 C4         1.7503    0.9291    1.0527 C.ar      1 RES1    0.0000
     10 C5         0.9174   -0.1397    1.4121 C.ar      1 RES1    0.0000
     11 C6        -0.1145    0.0191    2.2984 C.ar      1 RES1    0.0000
     12 C7        -0.3454    1.2587    2.8622 C.ar      1 RES1    0.0000
     13 C8         0.4574    2.3215    2.5549 C.ar      1 RES1    0.0000
     14 C9         1.5245    2.2033    1.6381 C.ar      1 RES1    0.0000
     15 C10        2.3614    3.3545    1.3003 C.ar      1 RES1    0.0000
     16 C11        2.2317    4.6108    1.9327 C.ar      1 RES1    0.0000
     17 C12        3.0570    5.6533    1.6216 C.ar      1 RES1    0.0000
     18 C13        4.0467    5.5148    0.6616 C.ar      1 RES1    0.0000
     19 C14        4.2016    4.3218    0.0165 C.ar      1 RES1    0.0000
     20 C15        3.3719    3.2339    0.3175 C.ar      1 RES1    0.0000
     21 C16        4.9669   -0.4550   -2.5245 C.ar      1 RES1    0.0000
     22 C17        4.8065   -0.2209   -3.8832 C.ar      1 RES1    0.0000
     23 C18        5.4335   -0.9685   -4.8521 C.ar      1 RES1    0.0000
     24 C19        6.2404   -2.0075   -4.4762 C.ar      1 RES1    0.0000
     25 C20        6.4428   -2.2606   -3.1391 C.ar      1 RES1    0.0000
     26 C21        5.8254   -1.4939   -2.1778 C.ar      1 RES1    0.0000
     27 C22        2.9833   -1.6241   -0.5867 C.3       1 RES1    0.0000
     28 C23        3.5764   -2.2535    0.6654 C.3       1 RES1    0.0000
@<TRIPOS>BOND
     1    1    5 2
     2    2    5 2
     3    3    6 1
     4    4    6 2
     5    5   22 1
     6    6   21 1
     7    7    3 1
     8    8    4 1
     9    9    7 ar
    10   10    9 ar
    11   11   10 ar
    12   12   11 ar
    13   13   12 ar
    14   14    9 ar
    15   15   14 ar
    16   16   15 ar
    17   17   16 ar
    18   18   17 ar
    19   19   18 ar
    20   20    8 ar
    21   21   22 ar
    22   22   23 ar
    23   23   24 ar
    24   24   25 ar
    25   25   26 ar
    26   26   21 ar
    27   27    3 1
    28   28   27 1
    29    7    8 ar
    30   13   14 ar
    31   15   20 ar
    32   19   20 ar
@<TRIPOS>SUBSTRUCTURE
     1 RES1 1

@<TRIPOS>CRYSIN
  11.7840   11.9420   12.7065  90.0000  92.0300  90.0000 231 1

