# MOL2 file generated by ConQuest
# Please check atom types

@<TRIPOS>MOLECULE
WIQWAU01
    27    31     1
SMALL
NO_CHARGES
****
Generated from CSD

@<TRIPOS>ATOM
      1 O1         1.7220   -1.0613    8.1672 O.2       1 RES1    0.0000
      2 O2         1.5129   -0.3153    6.1842 O.2       1 RES1    0.0000
      3 N1        -0.4741   -0.1735   11.4551 N.3       1 RES1    0.0000
      4 N2         0.2647    0.6939   12.1987 N.2       1 RES1    0.0000
      5 N3        -0.3061    0.8092   13.3736 N.2       1 RES1    0.0000
      6 N4         1.1351   -0.3973    7.3277 N.pl3     1 RES1    0.0000
      7 C1        -1.5424   -0.6238   12.1740 C.2       1 RES1    0.0000
      8 C2        -1.4127    0.0188   13.3819 C.2       1 RES1    0.0000
      9 C3        -2.3421   -0.1726   14.4651 C.2       1 RES1    0.0000
     10 C4        -2.2478    0.5315   15.6674 C.2       1 RES1    0.0000
     11 C5        -3.1457    0.3102   16.6753 C.2       1 RES1    0.0000
     12 C6        -4.1491   -0.6281   16.4890 C.2       1 RES1    0.0000
     13 C7        -4.2819   -1.3142   15.3182 C.2       1 RES1    0.0000
     14 C8        -3.3737   -1.1015   14.2487 C.2       1 RES1    0.0000
     15 C9        -3.5066   -1.7962   12.9546 C.2       1 RES1    0.0000
     16 C10       -4.5366   -2.7088   12.7177 C.2       1 RES1    0.0000
     17 C11       -4.6824   -3.3385   11.5085 C.2       1 RES1    0.0000
     18 C12       -3.8130   -3.0600   10.4554 C.2       1 RES1    0.0000
     19 C13       -2.7955   -2.1807   10.6485 C.2       1 RES1    0.0000
     20 C14       -2.6030   -1.5415   11.8824 C.2       1 RES1    0.0000
     21 C15        0.0454   -0.4948   10.1295 C.3       1 RES1    0.0000
     22 C16       -0.5888    0.2957    9.0121 C.ar      1 RES1    0.0000
     23 C17       -0.0746    0.3538    7.7139 C.ar      1 RES1    0.0000
     24 C18       -0.6517    1.1211    6.7224 C.ar      1 RES1    0.0000
     25 C19       -1.7861    1.8432    6.9867 C.ar      1 RES1    0.0000
     26 C20       -2.3491    1.7859    8.2466 C.ar      1 RES1    0.0000
     27 C21       -1.7518    1.0297    9.2394 C.ar      1 RES1    0.0000
@<TRIPOS>BOND
     1    1    6 2
     2    2    6 2
     3    3    4 1
     4    4    5 2
     5    5    8 1
     6    6   23 1
     7    7    3 1
     8    8    7 2
     9    9    8 1
    10   10    9 1
    11   11   10 2
    12   12   11 1
    13   13   12 2
    14   14    9 2
    15   15   14 1
    16   16   15 1
    17   17   16 2
    18   18   17 1
    19   19   18 2
    20   20    7 1
    21   21    3 1
    22   22   21 1
    23   23   22 ar
    24   24   23 ar
    25   25   24 ar
    26   26   25 ar
    27   27   22 ar
    28   13   14 1
    29   15   20 2
    30   19   20 1
    31   26   27 ar
@<TRIPOS>SUBSTRUCTURE
     1 RES1 1

@<TRIPOS>CRYSIN
  13.7960    8.5450   14.4910  90.0000 109.0900  90.0000 231 1

