# MOL2 file generated by ConQuest
# Please check atom types

@<TRIPOS>MOLECULE
WISBOP
    29    30     1
SMALL
NO_CHARGES
****
Generated from CSD

@<TRIPOS>ATOM
      1 O1         4.2077   -2.1486    3.3693 O.2       1 RES1    0.0000
      2 O2         2.6965   -2.9404    4.6909 O.2       1 RES1    0.0000
      3 O3         0.0639    5.7552   -1.0372 O.2       1 RES1    0.0000
      4 N1         1.2598    0.4506    2.2627 N.pl3     1 RES1    0.0000
      5 N2         0.9156   -1.0338    3.8825 N.2       1 RES1    0.0000
      6 N3         3.0724   -2.1471    3.8369 N.pl3     1 RES1    0.0000
      7 C1         0.3815   -0.0335    3.2197 C.2       1 RES1    0.0000
      8 C2         2.1522   -1.1685    3.3475 C.2       1 RES1    0.0000
      9 C3         2.4057   -0.2929    2.3489 C.2       1 RES1    0.0000
     10 H1         3.2042   -0.2116    1.8219 H         1 RES1    0.0000
     11 C4         1.0215    1.5024    1.3117 C.ar      1 RES1    0.0000
     12 C5         0.5800    2.7353    1.7525 C.ar      1 RES1    0.0000
     13 H2         0.4353    2.8969    2.6937 H         1 RES1    0.0000
     14 C6         0.3489    3.7342    0.8272 C.ar      1 RES1    0.0000
     15 H3         0.0216    4.6244    1.1343 H         1 RES1    0.0000
     16 C7         0.5671    3.5153   -0.5221 C.ar      1 RES1    0.0000
     17 C8         1.0280    2.2713   -0.9402 C.ar      1 RES1    0.0000
     18 H4         1.1929    2.1112   -1.8803 H         1 RES1    0.0000
     19 C9         1.2527    1.2602   -0.0228 C.ar      1 RES1    0.0000
     20 H5         1.5544    0.4316   -0.3031 H         1 RES1    0.0000
     21 C10       -0.9683    0.5195    3.4476 C.3       1 RES1    0.0000
     22 H6        -1.3227    0.8319    2.6283 H         1 RES1    0.0000
     23 H7        -0.9155    1.2361    4.0618 H         1 RES1    0.0000
     24 H8        -1.5303   -0.1558    3.7973 H         1 RES1    0.0000
     25 C11        0.3524    4.6496   -1.4751 C.2       1 RES1    0.0000
     26 C12        0.5057    4.4201   -2.9433 C.3       1 RES1    0.0000
     27 H9        -0.1919    3.7995   -3.2534 H         1 RES1    0.0000
     28 H10        1.3924    4.0335   -3.1246 H         1 RES1    0.0000
     29 H11        0.4178    5.2765   -3.4198 H         1 RES1    0.0000
@<TRIPOS>BOND
     1    1    6 2
     2    2    6 2
     3    3   25 2
     4    4    7 1
     5    5    7 2
     6    6    8 1
     7    7   21 1
     8    8    5 1
     9    9    4 1
    10   10    9 1
    11   11    4 1
    12   12   11 ar
    13   13   12 1
    14   14   12 ar
    15   15   14 1
    16   16   14 ar
    17   17   16 ar
    18   18   17 1
    19   19   11 ar
    20   20   19 1
    21   21   22 1
    22   23   21 1
    23   24   21 1
    24   25   16 1
    25   26   25 1
    26   27   26 1
    27   28   26 1
    28   29   26 1
    29    8    9 2
    30   17   19 ar
@<TRIPOS>SUBSTRUCTURE
     1 RES1 1

@<TRIPOS>CRYSIN
   7.4930    8.2170   10.3320  90.4600 105.2400 110.5900   2 1

