# MOL2 file generated by ConQuest
# Please check atom types

@<TRIPOS>MOLECULE
WITJIS
    44    45     1
SMALL
NO_CHARGES
****
Generated from CSD

@<TRIPOS>ATOM
      1 O1         0.3645   -1.7382    2.4883 O.2       1 RES1    0.0000
      2 O2         2.9990    1.7946    1.0741 O.2       1 RES1    0.0000
      3 O3         3.9754   -4.6021    1.8060 O.3       1 RES1    0.0000
      4 O4         7.4093   -5.3469    1.6624 O.2       1 RES1    0.0000
      5 O5         6.2352   -4.3396    3.2482 O.3       1 RES1    0.0000
      6 N1         0.8422   -0.5629    2.3328 N.pl3     1 RES1    0.0000
      7 N2         2.0615    1.0820    1.6182 N.pl3     1 RES1    0.0000
      8 C1         1.9773   -0.2463    1.6538 C.2       1 RES1    0.0000
      9 C2         0.2510    0.6216    3.0323 C.3       1 RES1    0.0000
     10 C3         0.8457    1.7658    2.1849 C.3       1 RES1    0.0000
     11 C4        -1.2632    0.5502    3.0421 C.3       1 RES1    0.0000
     12 H1        -1.5837    0.3822    2.1418 H         1 RES1    0.0000
     13 H2        -1.6249    1.3917    3.3627 H         1 RES1    0.0000
     14 H3        -1.5487   -0.1681    3.6261 H         1 RES1    0.0000
     15 C5         0.7963    0.5663    4.4573 C.3       1 RES1    0.0000
     16 H4         1.7643    0.6043    4.4346 H         1 RES1    0.0000
     17 H5         0.5147   -0.2601    4.8794 H         1 RES1    0.0000
     18 H6         0.4539    1.3203    4.9636 H         1 RES1    0.0000
     19 C6        -0.0087    2.1457    0.9802 C.3       1 RES1    0.0000
     20 H7        -0.2696    1.3422    0.5031 H         1 RES1    0.0000
     21 H8         0.5020    2.7212    0.3897 H         1 RES1    0.0000
     22 H9        -0.8029    2.6141    1.2814 H         1 RES1    0.0000
     23 C7         1.2610    2.9837    2.9600 C.3       1 RES1    0.0000
     24 H10        1.9483    2.7396    3.6002 H         1 RES1    0.0000
     25 H11        0.4938    3.3439    3.4307 H         1 RES1    0.0000
     26 H12        1.6094    3.6513    2.3490 H         1 RES1    0.0000
     27 C8         2.9480   -1.2029    1.1184 C.ar      1 RES1    0.0000
     28 C9         3.0372   -2.4680    1.6560 C.ar      1 RES1    0.0000
     29 H13        2.4500   -2.7258    2.3425 H         1 RES1    0.0000
     30 C10        3.9945   -3.3693    1.1896 C.ar      1 RES1    0.0000
     31 C11        4.8552   -2.9998    0.1835 C.ar      1 RES1    0.0000
     32 H14        5.5036   -3.6018   -0.1317 H         1 RES1    0.0000
     33 C12        4.7558   -1.7336   -0.3595 C.ar      1 RES1    0.0000
     34 H15        5.3443   -1.4792   -1.0460 H         1 RES1    0.0000
     35 C13        3.8139   -0.8392    0.0831 C.ar      1 RES1    0.0000
     36 H16        3.7511    0.0127   -0.3087 H         1 RES1    0.0000
     37 C14        5.0668   -5.4977    1.5534 C.3       1 RES1    0.0000
     38 H17        5.1699   -5.6346    0.5775 H         1 RES1    0.0000
     39 C15        4.6927   -6.8076    2.2173 C.3       1 RES1    0.0000
     40 H18        3.9060   -7.1760    1.7855 H         1 RES1    0.0000
     41 H19        4.5030   -6.6511    3.1554 H         1 RES1    0.0000
     42 H20        5.4303   -7.4338    2.1364 H         1 RES1    0.0000
     43 C16        6.3560   -5.0176    2.1342 C.2       1 RES1    0.0000
     44 H21        7.1491   -4.1635    3.5872 H         1 RES1    0.0000
@<TRIPOS>BOND
     1    1    6 un
     2    2    7 un
     3    3   30 1
     4    4   43 2
     5    5   43 1
     6    6    8 un
     7    7    8 un
     8    8   27 1
     9    9    6 1
    10   10    7 1
    11   11    9 1
    12   12   11 1
    13   13   11 1
    14   14   11 1
    15   15    9 1
    16   16   15 1
    17   17   15 1
    18   18   15 1
    19   19   10 1
    20   20   19 1
    21   21   19 1
    22   22   19 1
    23   23   10 1
    24   24   23 1
    25   25   23 1
    26   26   23 1
    27   27   28 ar
    28   28   29 1
    29   30   28 ar
    30   31   30 ar
    31   32   31 1
    32   33   31 ar
    33   34   33 1
    34   35   27 ar
    35   36   35 1
    36   37    3 1
    37   38   37 1
    38   39   37 1
    39   40   39 1
    40   41   39 1
    41   42   39 1
    42   43   37 1
    43   44    5 1
    44    9   10 1
    45   33   35 ar
@<TRIPOS>SUBSTRUCTURE
     1 RES1 1

@<TRIPOS>CRYSIN
  13.2910   11.5110   11.3060  90.0000 107.2900  90.0000  14 1

