# MOL2 file generated by ConQuest
# Please check atom types

@<TRIPOS>MOLECULE
WITJEO
    44    45     1
SMALL
NO_CHARGES
****
Generated from CSD

@<TRIPOS>ATOM
      1 C1        -1.7023    3.0356    9.7413 C.2       1 RES1    0.0000
      2 C2        -0.9844    5.1023   10.6295 C.3       1 RES1    0.0000
      3 C3        -0.4467    4.0321   11.5597 C.3       1 RES1    0.0000
      4 C4        -1.7961   -2.3515    6.9635 C.3       1 RES1    0.0000
      5 H1        -2.7534   -2.5180    7.0906 H         1 RES1    0.0000
      6 C5        -1.0433   -3.5881    7.2818 C.3       1 RES1    0.0000
      7 H2        -0.1004   -3.4168    7.2095 H         1 RES1    0.0000
      8 H3        -1.2894   -4.2807    6.6651 H         1 RES1    0.0000
      9 H4        -1.2491   -3.8668    8.1770 H         1 RES1    0.0000
     10 C6        -1.5328   -2.0136    5.4878 C.2       1 RES1    0.0000
     11 C7        -2.2512    1.9919    8.9032 C.ar      1 RES1    0.0000
     12 C8        -3.4718    2.1982    8.3087 C.ar      1 RES1    0.0000
     13 H5        -3.9231    2.9969    8.4614 H         1 RES1    0.0000
     14 C9        -4.0383    1.2536    7.4962 C.ar      1 RES1    0.0000
     15 H6        -4.8651    1.4080    7.0964 H         1 RES1    0.0000
     16 C10       -3.3468    0.0338    7.2724 C.ar      1 RES1    0.0000
     17 H7        -3.7011   -0.6093    6.7001 H         1 RES1    0.0000
     18 C11       -2.1481   -0.1858    7.9124 C.ar      1 RES1    0.0000
     19 C12       -1.6104    0.7806    8.6642 C.ar      1 RES1    0.0000
     20 H8        -0.7712    0.6370    9.0430 H         1 RES1    0.0000
     21 C13        0.0769    5.7092    9.6772 C.3       1 RES1    0.0000
     22 H9         0.6795    6.2629   10.1795 H         1 RES1    0.0000
     23 H10       -0.3610    6.2400    9.0069 H         1 RES1    0.0000
     24 H11        0.5695    5.0021    9.2540 H         1 RES1    0.0000
     25 C14       -1.7399    6.2666   11.2636 C.3       1 RES1    0.0000
     26 H12       -2.4723    5.9263   11.7835 H         1 RES1    0.0000
     27 H13       -2.0765    6.8433   10.5747 H         1 RES1    0.0000
     28 H14       -1.1462    6.7612   11.8336 H         1 RES1    0.0000
     29 C15        0.9909    4.0780   11.9035 C.3       1 RES1    0.0000
     30 H15        1.5151    3.9670   11.1062 H         1 RES1    0.0000
     31 H16        1.1948    3.3734   12.5213 H         1 RES1    0.0000
     32 H17        1.1970    4.9261   12.3057 H         1 RES1    0.0000
     33 C16       -1.2973    3.8656   12.8547 C.3       1 RES1    0.0000
     34 H18       -1.0760    3.0331   13.2778 H         1 RES1    0.0000
     35 H19       -2.2297    3.8717   12.6274 H         1 RES1    0.0000
     36 H20       -1.1094    4.5907   13.4550 H         1 RES1    0.0000
     37 O1        -2.6780    4.9503    8.8973 O.2       1 RES1    0.0000
     38 O2        -0.3021    1.6577   11.0969 O.2       1 RES1    0.0000
     39 O3        -1.3825   -1.3115    7.8459 O.3       1 RES1    0.0000
     40 O4        -0.4854   -1.2511    5.3386 O.3       1 RES1    0.0000
     41 H21       -0.4346   -1.0062    4.5588 H         1 RES1    0.0000
     42 O5        -2.2455   -2.3877    4.6113 O.2       1 RES1    0.0000
     43 N1        -1.8993    4.3506    9.7168 N.pl3     1 RES1    0.0000
     44 N2        -0.7711    2.7846   10.7332 N.pl3     1 RES1    0.0000
@<TRIPOS>BOND
     1    1   11 1
     2    2    3 1
     3    3   29 1
     4    4    5 1
     5    6    4 1
     6    7    6 1
     7    8    6 1
     8    9    6 1
     9   10    4 1
    10   11   12 ar
    11   12   13 1
    12   14   12 ar
    13   15   14 1
    14   16   14 ar
    15   17   16 1
    16   18   16 ar
    17   19   11 ar
    18   20   19 1
    19   21    2 1
    20   22   21 1
    21   23   21 1
    22   24   21 1
    23   25    2 1
    24   26   25 1
    25   27   25 1
    26   28   25 1
    27   29   30 1
    28   31   29 1
    29   32   29 1
    30   33    3 1
    31   34   33 1
    32   35   33 1
    33   36   33 1
    34   37   43 un
    35   38   44 un
    36   39    4 1
    37   40   10 1
    38   41   40 1
    39   42   10 2
    40   43    1 un
    41   44    1 un
    42    2   43 1
    43    3   44 1
    44   18   19 ar
    45   18   39 1
@<TRIPOS>SUBSTRUCTURE
     1 RES1 1

@<TRIPOS>CRYSIN
   6.0040   12.0650   11.9330  90.0000 102.3600  90.0000   4 1

