# MOL2 file generated by ConQuest
# Please check atom types

@<TRIPOS>MOLECULE
WITMER
    48    48     1
SMALL
NO_CHARGES
****
Generated from CSD

@<TRIPOS>ATOM
      1 N1         5.4572    1.9718   13.4582 N.3       1 RES1    0.0000
      2 C1         6.5212    2.9072   13.8516 C.3       1 RES1    0.0000
      3 N2         6.1829    4.0617   12.9519 N.pl3     1 RES1    0.0000
      4 O1         7.0519    4.9811   12.7357 O.2       1 RES1    0.0000
      5 C2         4.9957    3.9718   12.5042 C.2       1 RES1    0.0000
      6 H1         4.6053    4.6216   11.9658 H         1 RES1    0.0000
      7 C3         4.2910    2.7377   12.9171 C.3       1 RES1    0.0000
      8 O2         5.0667    1.1863   14.5979 O.3       1 RES1    0.0000
      9 C4         4.9428   -1.1114   12.2392 C.2       1 RES1    0.0000
     10 N3         4.4874   -0.7322   13.3536 N.2       1 RES1    0.0000
     11 C5         5.3789   -0.1919   14.3523 C.3       1 RES1    0.0000
     12 H2         6.3154   -0.2987   14.0831 H         1 RES1    0.0000
     13 C6         5.1040   -0.8988   15.6829 C.3       1 RES1    0.0000
     14 N4         6.1009   -0.3127   16.6941 N.pl3     1 RES1    0.0000
     15 O3         5.6706    0.0206   17.7779 O.2       1 RES1    0.0000
     16 O4         7.2594   -0.2153   16.3775 O.2       1 RES1    0.0000
     17 C7         5.4592   -2.3745   15.5741 C.3       1 RES1    0.0000
     18 H3         6.3606   -2.4643   15.2589 H         1 RES1    0.0000
     19 H4         4.8601   -2.8033   14.9576 H         1 RES1    0.0000
     20 H5         5.3794   -2.7874   16.4375 H         1 RES1    0.0000
     21 C8         3.7026   -0.6741   16.1711 C.3       1 RES1    0.0000
     22 H6         3.5286    0.2687   16.2227 H         1 RES1    0.0000
     23 H7         3.5999   -1.0655   17.0428 H         1 RES1    0.0000
     24 H8         3.0820   -1.0814   15.5630 H         1 RES1    0.0000
     25 C9         3.9313   -1.6357   11.2475 C.3       1 RES1    0.0000
     26 H9         3.0555   -1.6095   11.6408 H         1 RES1    0.0000
     27 H10        4.1504   -2.5411   11.0160 H         1 RES1    0.0000
     28 H11        3.9445   -1.0908   10.4581 H         1 RES1    0.0000
     29 C10        6.3562   -1.0964   11.7510 C.3       1 RES1    0.0000
     30 H12        6.9279   -0.7500   12.4401 H         1 RES1    0.0000
     31 H13        6.4196   -0.5393   10.9713 H         1 RES1    0.0000
     32 H14        6.6268   -1.9896   11.5293 H         1 RES1    0.0000
     33 C11        6.5059    3.4184   15.2798 C.3       1 RES1    0.0000
     34 H15        7.2455    4.0177   15.4123 H         1 RES1    0.0000
     35 H16        6.5833    2.6778   15.8852 H         1 RES1    0.0000
     36 H17        5.6833    3.8838   15.4458 H         1 RES1    0.0000
     37 C12        7.8765    2.3585   13.4792 C.3       1 RES1    0.0000
     38 H18        8.5569    2.9821   13.7428 H         1 RES1    0.0000
     39 H19        7.9163    2.2237   12.5293 H         1 RES1    0.0000
     40 H20        8.0165    1.5224   13.9283 H         1 RES1    0.0000
     41 C13        3.1929    3.0186   13.9325 C.3       1 RES1    0.0000
     42 H21        2.7623    2.1956   14.1724 H         1 RES1    0.0000
     43 H22        2.5485    3.6169   13.5475 H         1 RES1    0.0000
     44 H23        3.5751    3.4203   14.7149 H         1 RES1    0.0000
     45 C14        3.7016    2.0046   11.7259 C.3       1 RES1    0.0000
     46 H24        3.2524    1.2116   12.0286 H         1 RES1    0.0000
     47 H25        4.4041    1.7631   11.1192 H         1 RES1    0.0000
     48 H26        3.0732    2.5758   11.2782 H         1 RES1    0.0000
@<TRIPOS>BOND
     1    1    2 1
     2    2    3 1
     3    3    4 1
     4    5    3 2
     5    6    5 1
     6    7    1 1
     7    8    1 1
     8    9   10 2
     9   10   11 1
    10   11    8 1
    11   12   11 1
    12   13   11 1
    13   14   13 1
    14   15   14 2
    15   16   14 2
    16   17   13 1
    17   18   17 1
    18   19   17 1
    19   20   17 1
    20   21   13 1
    21   22   21 1
    22   23   21 1
    23   24   21 1
    24   25    9 1
    25   26   25 1
    26   27   25 1
    27   28   25 1
    28   29    9 1
    29   30   29 1
    30   31   29 1
    31   32   29 1
    32   33    2 1
    33   34   33 1
    34   35   33 1
    35   36   33 1
    36   37    2 1
    37   38   37 1
    38   39   37 1
    39   40   37 1
    40   41    7 1
    41   42   41 1
    42   43   41 1
    43   44   41 1
    44   45    7 1
    45   46   45 1
    46   47   45 1
    47   48   45 1
    48    5    7 1
@<TRIPOS>SUBSTRUCTURE
     1 RES1 1

@<TRIPOS>CRYSIN
  13.3690    9.3630   14.7330  90.0000 108.7900  90.0000 231 1

