# MOL2 file generated by ConQuest
# Please check atom types

@<TRIPOS>MOLECULE
WITSIB
    29    30     2
SMALL
NO_CHARGES
****
Generated from CSD

@<TRIPOS>ATOM
      1 N1         0.0000    4.0088    5.2197 N.2       1 RES1    0.0000
      2 N2         0.0000    1.0219    6.8665 N.2       1 RES1    0.0000
      3 O1         0.0000    0.7148    5.5966 O.3       1 RES1    0.0000
      4 H1         0.0000   -0.1305    5.5134 H         1 RES1    0.0000
      5 O2         0.0000    1.9840    9.4992 O.2       1 RES1    0.0000
      6 O3         0.0000    3.9992    8.6054 O.3       1 RES1    0.0000
      7 C1         0.0000    3.2695    6.0999 C.2       1 RES1    0.0000
      8 C2         0.0000    2.3115    7.1338 C.2       1 RES1    0.0000
      9 C3         0.0000    2.6716    8.5749 C.2       1 RES1    0.0000
     10 C4         0.0000    4.5809    9.9921 C.3       1 RES1    0.0000
     11 H2         0.7827    4.2873   10.4642 H         1 RES1    0.0000
     12 C5         0.2312    6.0960    9.8961 C.2       1 RES1    0.0000
     13 N3         3.2560    5.8283    6.4624 N.2       2 RES2    0.0000
     14 N4         3.2560    2.7817    8.1252 N.2       2 RES2    0.0000
     15 O4         3.2560    6.0634    7.8340 O.3       2 RES2    0.0000
     16 H3         3.2560    6.9032    7.9660 H         2 RES2    0.0000
     17 O5         3.2560    4.8363    3.9026 O.2       2 RES2    0.0000
     18 O6         3.2560    2.7477    4.8012 O.3       2 RES2    0.0000
     19 C6         3.2560    3.5997    7.3322 C.2       2 RES2    0.0000
     20 C7         3.2560    4.5863    6.3000 C.2       2 RES2    0.0000
     21 C8         3.2560    4.0427    4.8844 C.2       2 RES2    0.0000
     22 C9         3.5386    2.1620    3.4769 C.2       2 RES2    0.0000
     23 C10        3.2560    0.7555    3.6521 C.3       2 RES2    0.0000
     24 H4         3.2560    0.3737    2.7719 H         2 RES2    0.0000
     25 H5         4.0400    0.4675    4.1258 H         2 RES2    0.0000
     26 H2C       -0.7827    4.2873   10.4642 H         1 RES1    0.0000
     27 C5C       -0.2312    6.0960    9.8961 C.2       1 RES1    0.0000
     28 C9C        2.9734    2.1620    3.4769 C.2       2 RES2    0.0000
     29 H5C        2.4720    0.4675    4.1258 H         2 RES2    0.0000
@<TRIPOS>BOND
     1    1    7 1
     2    2    3 1
     3    3    4 1
     4    5    9 1
     5    6    9 1
     6    7    8 1
     7    8    2 1
     8    9    8 1
     9   10    6 1
    10   11   10 1
    11   12   10 1
    12   13   15 1
    13   14   19 1
    14   15   16 1
    15   17   21 1
    16   18   21 1
    17   19   20 1
    18   20   13 1
    19   21   20 1
    20   22   18 1
    21   23   22 1
    22   24   23 1
    23   25   23 1
    24   26   10 1
    25   27   10 1
    26   28   18 1
    27   29   23 1
    28   12   27 1
    29   22   28 1
    30   23   28 1
@<TRIPOS>SUBSTRUCTURE
     1 RES1 1
     2 RES2 13

@<TRIPOS>CRYSIN
   6.5120   13.5890    8.0020  90.0000  90.0000  90.0000  26 1

