# MOL2 file generated by ConQuest
# Please check atom types

@<TRIPOS>MOLECULE
WIWLUJ
    94    98     1
SMALL
NO_CHARGES
****
Generated from CSD

@<TRIPOS>ATOM
      1 C1         8.2336   -0.8004    8.1741 C.ar      1 RES1    0.0000
      2 C2         8.1364   -1.7659    9.1592 C.ar      1 RES1    0.0000
      3 H1         8.1961   -2.6666    8.9333 H         1 RES1    0.0000
      4 C3         7.9493   -1.3972   10.4813 C.ar      1 RES1    0.0000
      5 C4         7.8632   -0.0801   10.8382 C.ar      1 RES1    0.0000
      6 H2         7.7183    0.1412   11.7298 H         1 RES1    0.0000
      7 C5         7.9857    0.9233    9.9038 C.ar      1 RES1    0.0000
      8 C6         8.1745    0.5563    8.5697 C.ar      1 RES1    0.0000
      9 C7         7.9122    2.3789   10.3249 C.3       1 RES1    0.0000
     10 H3         7.9951    2.4411   11.2886 H         1 RES1    0.0000
     11 H4         8.6521    2.8669    9.9292 H         1 RES1    0.0000
     12 C8         6.6072    3.0075    9.8891 C.ar      1 RES1    0.0000
     13 C9         5.4343    2.7172   10.5762 C.ar      1 RES1    0.0000
     14 H5         5.4600    2.1755   11.3328 H         1 RES1    0.0000
     15 C10        4.2282    3.2316   10.1377 C.ar      1 RES1    0.0000
     16 H6         3.4470    3.0397   10.6056 H         1 RES1    0.0000
     17 C11        4.1734    4.0265    9.0135 C.ar      1 RES1    0.0000
     18 H7         3.3519    4.3530    8.7248 H         1 RES1    0.0000
     19 C12        5.3025    4.3442    8.3158 C.ar      1 RES1    0.0000
     20 C13        6.5196    3.8378    8.7702 C.ar      1 RES1    0.0000
     21 C14        5.2108    5.2059    7.0633 C.3       1 RES1    0.0000
     22 H8         4.7078    6.0099    7.2664 H         1 RES1    0.0000
     23 H9         6.1036    5.4724    6.7932 H         1 RES1    0.0000
     24 C15        4.5392    4.4719    5.9177 C.ar      1 RES1    0.0000
     25 C16        3.2291    4.7493    5.5701 C.ar      1 RES1    0.0000
     26 H10        2.7740    5.4344    6.0059 H         1 RES1    0.0000
     27 C17        2.5916    4.0242    4.5903 C.ar      1 RES1    0.0000
     28 H11        1.7187    4.2350    4.3470 H         1 RES1    0.0000
     29 C18        3.2483    2.9925    3.9754 C.ar      1 RES1    0.0000
     30 H12        2.7904    2.4832    3.3458 H         1 RES1    0.0000
     31 C19        4.5708    2.6738    4.2535 C.ar      1 RES1    0.0000
     32 C20        5.2212    3.4812    5.2025 C.ar      1 RES1    0.0000
     33 C21        5.2416    1.4788    3.6051 C.3       1 RES1    0.0000
     34 H13        6.0903    1.7581    3.2282 H         1 RES1    0.0000
     35 H14        4.6831    1.1594    2.8793 H         1 RES1    0.0000
     36 C22        5.4827    0.3392    4.5863 C.ar      1 RES1    0.0000
     37 C23        4.4131   -0.3691    5.1156 C.ar      1 RES1    0.0000
     38 H15        3.5513   -0.1729    4.8256 H         1 RES1    0.0000
     39 C24        4.5964   -1.3578    6.0620 C.ar      1 RES1    0.0000
     40 H16        3.8730   -1.8529    6.3735 H         1 RES1    0.0000
     41 C25        5.8596   -1.6006    6.5366 C.ar      1 RES1    0.0000
     42 H17        5.9750   -2.2366    7.2049 H         1 RES1    0.0000
     43 C26        6.9648   -0.9317    6.0500 C.ar      1 RES1    0.0000
     44 C27        6.7632   -0.0173    5.0207 C.ar      1 RES1    0.0000
     45 C28        8.3159   -1.1432    6.7224 C.3       1 RES1    0.0000
     46 H18        8.5866   -2.0701    6.6221 H         1 RES1    0.0000
     47 H19        8.9829   -0.5839    6.2933 H         1 RES1    0.0000
     48 N1         7.8621   -2.4200   11.5132 N.pl3     1 RES1    0.0000
     49 O1         7.6379   -2.1000   12.6615 O.2       1 RES1    0.0000
     50 O2         8.0214   -3.5815   11.1804 O.2       1 RES1    0.0000
     51 C29        8.3993    5.2489    8.4347 C.3       1 RES1    0.0000
     52 H20        8.5440    5.2574    9.3932 H         1 RES1    0.0000
     53 H21        7.8905    6.0373    8.1914 H         1 RES1    0.0000
     54 C30        9.7020    5.2405    7.7209 C.2       1 RES1    0.0000
     55 O3        10.1642    4.2961    7.1755 O.2       1 RES1    0.0000
     56 O4        10.2902    6.4235    7.7784 O.3       1 RES1    0.0000
     57 C31       11.6287    6.5074    7.1782 C.3       1 RES1    0.0000
     58 H22       12.2296    5.8919    7.6274 H         1 RES1    0.0000
     59 H23       11.5849    6.2565    6.2412 H         1 RES1    0.0000
     60 C32       12.1219    7.8354    7.2985 C.3       1 RES1    0.0000
     61 H24       13.0688    7.8397    7.1368 H         1 RES1    0.0000
     62 H25       11.9471    8.1622    8.1834 H         1 RES1    0.0000
     63 H26       11.6847    8.3983    6.6556 H         1 RES1    0.0000
     64 C33        7.5540    3.5482    4.6518 C.3       1 RES1    0.0000
     65 H27        7.3218    3.1704    3.7883 H         1 RES1    0.0000
     66 H28        8.3725    3.1177    4.9472 H         1 RES1    0.0000
     67 C34        7.8204    4.9960    4.4754 C.2       1 RES1    0.0000
     68 O5         7.2781    5.8919    4.8831 O.2       1 RES1    0.0000
     69 O6         8.8363    5.1498    3.7001 O.3       1 RES1    0.0000
     70 C35        9.1664    6.5812    3.3405 C.3       1 RES1    0.0000
     71 H29        8.5945    6.8615    2.6093 H         1 RES1    0.0000
     72 H30        8.9746    7.1503    4.1024 H         1 RES1    0.0000
     73 C36       10.2698    6.7266    3.0317 C.3       1 RES1    0.0000
     74 H31       10.4895    7.6605    3.0558 H         1 RES1    0.0000
     75 H32       10.4009    6.3893    2.1414 H         1 RES1    0.0000
     76 H33       10.8392    6.2481    3.6399 H         1 RES1    0.0000
     77 C37        8.7124   -0.1598    3.6600 C.3       1 RES1    0.0000
     78 H34        8.8492   -1.0034    4.1198 H         1 RES1    0.0000
     79 H35        9.5711    0.2888    3.6118 H         1 RES1    0.0000
     80 C38        8.2563   -0.4511    2.2711 C.2       1 RES1    0.0000
     81 O7         9.2091   -0.9303    1.5666 O.3       1 RES1    0.0000
     82 O8         7.1064   -0.3499    1.8768 O.2       1 RES1    0.0000
     83 C39        8.9564   -1.2753    0.1831 C.3       1 RES1    0.0000
     84 H36        8.5683   -2.1607    0.1123 H         1 RES1    0.0000
     85 H37        8.3573   -0.6345   -0.2299 H         1 RES1    0.0000
     86 C40       10.2503   -1.2353   -0.4318 C.3       1 RES1    0.0000
     87 H38       10.5015   -0.3204   -0.5868 H         1 RES1    0.0000
     88 H39       10.2221   -1.7054   -1.2686 H         1 RES1    0.0000
     89 H40       10.8940   -1.6485    0.1470 H         1 RES1    0.0000
     90 O9         8.3518    1.4364    7.5711 O.3       1 RES1    0.0000
     91 H41        8.2204    2.1965    7.8492 H         1 RES1    0.0000
     92 O10        7.7007    4.0819    8.0570 O.3       1 RES1    0.0000
     93 O11        6.5330    3.2337    5.5638 O.3       1 RES1    0.0000
     94 O12        7.8375    0.6335    4.4350 O.3       1 RES1    0.0000
@<TRIPOS>BOND
     1    1    2 ar
     2    2    3 1
     3    4    2 ar
     4    5    4 ar
     5    6    5 1
     6    7    5 ar
     7    8    1 ar
     8    9    7 1
     9   10    9 1
    10   11    9 1
    11   12    9 1
    12   13   12 ar
    13   14   13 1
    14   15   13 ar
    15   16   15 1
    16   17   15 ar
    17   18   17 1
    18   19   17 ar
    19   20   12 ar
    20   21   19 1
    21   22   21 1
    22   23   21 1
    23   24   21 1
    24   25   24 ar
    25   26   25 1
    26   27   25 ar
    27   28   27 1
    28   29   27 ar
    29   30   29 1
    30   31   29 ar
    31   32   24 ar
    32   33   31 1
    33   34   33 1
    34   35   33 1
    35   36   33 1
    36   37   36 ar
    37   38   37 1
    38   39   37 ar
    39   40   39 1
    40   41   39 ar
    41   42   41 1
    42   43   41 ar
    43   44   36 ar
    44   45    1 1
    45   46   45 1
    46   47   45 1
    47   48    4 1
    48   49   48 2
    49   50   48 2
    50   51   52 1
    51   53   51 1
    52   54   51 1
    53   55   54 2
    54   56   54 1
    55   57   56 1
    56   58   57 1
    57   59   57 1
    58   60   57 1
    59   61   60 1
    60   62   60 1
    61   63   60 1
    62   64   65 1
    63   66   64 1
    64   67   64 1
    65   68   67 2
    66   69   67 1
    67   70   69 1
    68   71   70 1
    69   72   70 1
    70   73   70 1
    71   74   73 1
    72   75   73 1
    73   76   73 1
    74   77   78 1
    75   79   77 1
    76   80   77 1
    77   81   80 1
    78   82   80 2
    79   83   81 1
    80   84   83 1
    81   85   83 1
    82   86   83 1
    83   87   86 1
    84   88   86 1
    85   89   86 1
    86   90    8 1
    87   91   90 1
    88   92   20 1
    89   93   32 1
    90   94   44 1
    91    7    8 ar
    92   19   20 ar
    93   31   32 ar
    94   43   45 1
    95   43   44 ar
    96   51   92 1
    97   64   93 1
    98   77   94 1
@<TRIPOS>SUBSTRUCTURE
     1 RES1 1

@<TRIPOS>CRYSIN
  13.1930   21.0800   14.7300  90.0000 114.8400  90.0000 231 1

