# MOL2 file generated by ConQuest
# Please check atom types

@<TRIPOS>MOLECULE
WIWYUX
    48    51     1
SMALL
NO_CHARGES
****
Generated from CSD

@<TRIPOS>ATOM
      1 O1        -0.7628    3.3630    4.2393 O.2       1 RES1    0.0000
      2 O2         0.9338    4.4932    3.5868 O.2       1 RES1    0.0000
      3 N1         0.4338    3.5120    4.1003 N.pl3     1 RES1    0.0000
      4 N2         0.6285    1.0161    2.6315 N.2       1 RES1    0.0000
      5 C1         0.7259    1.5281    5.5545 C.3       1 RES1    0.0000
      6 C2         1.3695    2.4016    4.5163 C.3       1 RES1    0.0000
      7 C3         1.7959    1.6922    3.2045 C.3       1 RES1    0.0000
      8 C4         2.9362    0.7474    3.5240 C.ar      1 RES1    0.0000
      9 C5         4.2825    1.2436    3.5419 C.ar      1 RES1    0.0000
     10 C6         4.6296    2.5926    3.2538 C.ar      1 RES1    0.0000
     11 C7         5.9357    3.0158    3.2538 C.ar      1 RES1    0.0000
     12 C8         6.9699    2.1083    3.5532 C.ar      1 RES1    0.0000
     13 C9         6.6820    0.8180    3.8301 C.ar      1 RES1    0.0000
     14 C10        5.3401    0.3408    3.8480 C.ar      1 RES1    0.0000
     15 C11        5.0321   -1.0090    4.1384 C.ar      1 RES1    0.0000
     16 C12        3.7538   -1.4513    4.1306 C.ar      1 RES1    0.0000
     17 C13        2.7021   -0.5651    3.8189 C.ar      1 RES1    0.0000
     18 C14        0.1366    1.6018    1.6078 C.2       1 RES1    0.0000
     19 C15       -1.1041    1.2436    0.8869 C.ar      1 RES1    0.0000
     20 C16       -1.7888   -0.0040    0.9822 C.ar      1 RES1    0.0000
     21 C17       -1.3211   -1.1168    1.7502 C.ar      1 RES1    0.0000
     22 C18       -2.0189   -2.2851    1.7536 C.ar      1 RES1    0.0000
     23 C19       -3.2038   -2.4491    1.0248 C.ar      1 RES1    0.0000
     24 C20       -3.6740   -1.4140    0.2848 C.ar      1 RES1    0.0000
     25 C21       -3.0049   -0.1767    0.2355 C.ar      1 RES1    0.0000
     26 C22       -3.5089    0.9020   -0.5427 C.ar      1 RES1    0.0000
     27 C23       -2.8263    2.0830   -0.6223 C.ar      1 RES1    0.0000
     28 C24       -1.6216    2.2288    0.0875 C.ar      1 RES1    0.0000
     29 H1         1.4398    1.0439    5.9402 H         1 RES1    0.0000
     30 H2         0.4902    2.0108    6.2878 H         1 RES1    0.0000
     31 H3         0.0568    0.9646    5.0769 H         1 RES1    0.0000
     32 H4         2.1592    2.8129    4.9076 H         1 RES1    0.0000
     33 H5         2.0725    2.5466    2.6248 H         1 RES1    0.0000
     34 H6         3.9194    3.2869    3.0374 H         1 RES1    0.0000
     35 H7         6.0278    4.0169    2.9578 H         1 RES1    0.0000
     36 H8         7.9870    2.5545    3.6328 H         1 RES1    0.0000
     37 H9         7.4623    0.1411    4.0308 H         1 RES1    0.0000
     38 H10        5.8454   -1.6026    4.4120 H         1 RES1    0.0000
     39 H11        3.4405   -2.3905    4.4344 H         1 RES1    0.0000
     40 H12        1.7235   -0.9741    3.8279 H         1 RES1    0.0000
     41 H13        0.4997    2.6084    1.1425 H         1 RES1    0.0000
     42 H14       -0.4338   -1.0922    2.2738 H         1 RES1    0.0000
     43 H15       -1.6930   -3.1767    2.3097 H         1 RES1    0.0000
     44 H16       -3.8479   -3.4264    1.1829 H         1 RES1    0.0000
     45 H17       -4.5514   -1.5345   -0.3095 H         1 RES1    0.0000
     46 H18       -4.4114    0.6777   -1.0349 H         1 RES1    0.0000
     47 H19       -3.1897    2.8320   -1.2076 H         1 RES1    0.0000
     48 H20       -1.1452    3.2116   -0.1480 H         1 RES1    0.0000
@<TRIPOS>BOND
     1    1    3 2
     2    2    3 2
     3    3    6 1
     4    4    7 1
     5    5    6 1
     6    6    7 1
     7    7    8 1
     8    8    9 ar
     9    9   10 ar
    10   10   11 ar
    11   11   12 ar
    12   12   13 ar
    13   13   14 ar
    14   14    9 ar
    15   15   14 ar
    16   16   15 ar
    17   17    8 ar
    18   18    4 2
    19   19   18 1
    20   20   19 ar
    21   21   20 ar
    22   22   21 ar
    23   23   22 ar
    24   24   23 ar
    25   25   20 ar
    26   26   25 ar
    27   27   26 ar
    28   28   19 ar
    29   29    5 1
    30   30    5 1
    31   31    5 1
    32   32    6 1
    33   33    7 1
    34   34   10 1
    35   35   11 1
    36   36   12 1
    37   37   13 1
    38   38   15 1
    39   39   16 1
    40   40   17 1
    41   41   18 1
    42   42   21 1
    43   43   22 1
    44   44   23 1
    45   45   24 1
    46   46   26 1
    47   47   27 1
    48   48   28 1
    49   16   17 ar
    50   24   25 ar
    51   27   28 ar
@<TRIPOS>SUBSTRUCTURE
     1 RES1 1

@<TRIPOS>CRYSIN
  21.2820    7.9260   11.2671  90.0000  95.6570  90.0000  14 2

