# MOL2 file generated by ConQuest
# Please check atom types

@<TRIPOS>MOLECULE
WIWZAE
    94    96     2
SMALL
NO_CHARGES
****
Generated from CSD

@<TRIPOS>ATOM
      1 O1         2.5702    3.5117    8.9717 O.2       1 RES1    0.0000
      2 O2         1.9318    1.7577    7.9195 O.2       1 RES1    0.0000
      3 O3        -2.5460    9.2071    2.0030 O.3       1 RES1    0.0000
      4 O4         5.5897    1.1237    3.7301 O.3       1 RES1    0.0000
      5 O5         4.2322    7.1997    5.0582 O.2       2 RES2    0.0000
      6 O6         5.3216    8.9405    4.4235 O.2       2 RES2    0.0000
      7 O7        10.0813    1.4619   -1.3957 O.3       2 RES2    0.0000
      8 O8         2.0080    9.3919   -0.4271 O.3       2 RES2    0.0000
      9 N1         1.9305    2.9509    8.1037 N.pl3     1 RES1    0.0000
     10 N2         1.1664    5.3445    5.3759 N.2       1 RES1    0.0000
     11 N3         5.1363    7.7342    4.4533 N.pl3     2 RES2    0.0000
     12 N4         6.3267    5.3283    1.8840 N.2       2 RES2    0.0000
     13 C1         2.0431    4.6777    6.3493 C.3       1 RES1    0.0000
     14 C2         1.0909    3.7885    7.1907 C.3       1 RES1    0.0000
     15 C3         0.0851    4.5467    8.0321 C.3       1 RES1    0.0000
     16 C4        -0.8444    3.6431    8.8092 C.3       1 RES1    0.0000
     17 C5         1.0914    6.6059    5.3969 C.2       1 RES1    0.0000
     18 C6         0.2071    7.3226    4.4758 C.ar      1 RES1    0.0000
     19 C7        -0.0624    8.6730    4.6552 C.ar      1 RES1    0.0000
     20 C8        -0.9613    9.3436    3.8475 C.ar      1 RES1    0.0000
     21 C9        -1.6045    8.6671    2.8452 C.ar      1 RES1    0.0000
     22 C10       -1.3218    7.3184    2.6248 C.ar      1 RES1    0.0000
     23 C11       -0.4276    6.6720    3.4325 C.ar      1 RES1    0.0000
     24 C12       -3.1637   10.4257    2.3996 C.3       1 RES1    0.0000
     25 C13        3.0446    3.8147    5.6277 C.ar      1 RES1    0.0000
     26 C14        4.2858    3.5481    6.1836 C.ar      1 RES1    0.0000
     27 C15        5.1653    2.6538    5.5972 C.ar      1 RES1    0.0000
     28 C16        4.8226    2.0392    4.4130 C.ar      1 RES1    0.0000
     29 C17        3.6103    2.3355    3.8121 C.ar      1 RES1    0.0000
     30 C18        2.7385    3.2010    4.4179 C.ar      1 RES1    0.0000
     31 C19        6.8096    0.7134    4.3455 C.3       1 RES1    0.0000
     32 C20        5.3050    6.0014    2.7004 C.3       2 RES2    0.0000
     33 C21        6.1027    6.8572    3.7011 C.3       2 RES2    0.0000
     34 C22        6.9132    6.0570    4.7042 C.3       2 RES2    0.0000
     35 C23        7.7892    6.9191    5.6036 C.3       2 RES2    0.0000
     36 C24        6.1843    4.0936    1.6579 C.2       2 RES2    0.0000
     37 C25        7.1465    3.3667    0.8326 C.ar      2 RES2    0.0000
     38 C26        8.1274    4.0479    0.1368 C.ar      2 RES2    0.0000
     39 C27        9.0761    3.3964   -0.5921 C.ar      2 RES2    0.0000
     40 C28        9.0746    2.0053   -0.6596 C.ar      2 RES2    0.0000
     41 C29        8.1021    1.3144    0.0048 C.ar      2 RES2    0.0000
     42 C30        7.1563    1.9888    0.7433 C.ar      2 RES2    0.0000
     43 C31       10.0453    0.0644   -1.6547 C.3       2 RES2    0.0000
     44 C32        4.4460    6.8750    1.8107 C.ar      2 RES2    0.0000
     45 C33        3.0627    6.8542    1.9169 C.ar      2 RES2    0.0000
     46 C34        2.2912    7.7058    1.1527 C.ar      2 RES2    0.0000
     47 C35        2.8772    8.5794    0.2574 C.ar      2 RES2    0.0000
     48 C36        4.2452    8.5929    0.1239 C.ar      2 RES2    0.0000
     49 C37        5.0104    7.7473    0.8961 C.ar      2 RES2    0.0000
     50 C38        2.5833   10.4019   -1.2581 C.3       2 RES2    0.0000
     51 H1         2.4939    5.3364    6.9164 H         1 RES1    0.0000
     52 H2         0.6044    3.1917    6.5850 H         1 RES1    0.0000
     53 H3         0.5586    5.1202    8.6564 H         1 RES1    0.0000
     54 H4        -0.4386    5.1160    7.4489 H         1 RES1    0.0000
     55 H5        -1.6189    3.4502    8.2751 H         1 RES1    0.0000
     56 H6        -1.1127    4.0818    9.6193 H         1 RES1    0.0000
     57 H7        -0.3927    2.8229    9.0232 H         1 RES1    0.0000
     58 H8         1.6037    7.0827    6.0074 H         1 RES1    0.0000
     59 H9         0.3687    9.1342    5.3381 H         1 RES1    0.0000
     60 H10       -1.1237   10.2489    3.9819 H         1 RES1    0.0000
     61 H11       -1.7389    6.8623    1.9306 H         1 RES1    0.0000
     62 H12       -0.2400    5.7730    3.2748 H         1 RES1    0.0000
     63 H13       -3.9557   10.2235    2.9015 H         1 RES1    0.0000
     64 H14       -3.3993   10.9398    1.6241 H         1 RES1    0.0000
     65 H15       -2.5593   10.9313    2.9474 H         1 RES1    0.0000
     66 H16        4.5295    3.9758    6.9719 H         1 RES1    0.0000
     67 H17        5.9870    2.4753    5.9970 H         1 RES1    0.0000
     68 H18        3.3862    1.9498    2.9965 H         1 RES1    0.0000
     69 H19        1.9200    3.3739    4.0141 H         1 RES1    0.0000
     70 H20        7.5231    1.2928    4.0696 H         1 RES1    0.0000
     71 H21        7.0060   -0.1865    4.0760 H         1 RES1    0.0000
     72 H22        6.7179    0.7502    5.3003 H         1 RES1    0.0000
     73 H23        4.7521    5.3449    3.1710 H         2 RES2    0.0000
     74 H24        6.7158    7.4345    3.1984 H         2 RES2    0.0000
     75 H25        7.4729    5.4296    4.2232 H         2 RES2    0.0000
     76 H26        6.3056    5.5441    5.2601 H         2 RES2    0.0000
     77 H27        8.6554    7.0191    5.1990 H         2 RES2    0.0000
     78 H28        7.8852    6.4935    6.4579 H         2 RES2    0.0000
     79 H29        7.3878    7.7821    5.7210 H         2 RES2    0.0000
     80 H30        5.4590    3.6410    2.0231 H         2 RES2    0.0000
     81 H31        8.1405    4.9761    0.1633 H         2 RES2    0.0000
     82 H32        9.7289    3.8826   -1.0433 H         2 RES2    0.0000
     83 H33        8.0816    0.3857   -0.0386 H         2 RES2    0.0000
     84 H34        6.5041    1.5005    1.1913 H         2 RES2    0.0000
     85 H35       10.5122   -0.4027   -0.9581 H         2 RES2    0.0000
     86 H36       10.4707   -0.1102   -2.4977 H         2 RES2    0.0000
     87 H37        9.1354   -0.2374   -1.6877 H         2 RES2    0.0000
     88 H38        2.6553    6.2647    2.5114 H         2 RES2    0.0000
     89 H39        1.3658    7.6846    1.2388 H         2 RES2    0.0000
     90 H40        4.6517    9.1723   -0.4810 H         2 RES2    0.0000
     91 H41        5.9347    7.7609    0.7956 H         2 RES2    0.0000
     92 H42        2.6990   11.2069   -0.7473 H         2 RES2    0.0000
     93 H43        1.9942   10.5753   -1.9966 H         2 RES2    0.0000
     94 H44        3.4321   10.1048   -1.5887 H         2 RES2    0.0000
@<TRIPOS>BOND
     1    1    9 2
     2    2    9 2
     3    3   21 1
     4    4   28 1
     5    5   11 2
     6    6   11 2
     7    7   40 1
     8    8   47 1
     9    9   14 1
    10   10   13 1
    11   11   33 1
    12   12   32 1
    13   13   14 1
    14   14   15 1
    15   15   16 1
    16   16   55 1
    17   17   10 2
    18   18   17 1
    19   19   18 ar
    20   20   19 ar
    21   21   20 ar
    22   22   21 ar
    23   23   18 ar
    24   24    3 1
    25   25   13 1
    26   26   25 ar
    27   27   26 ar
    28   28   27 ar
    29   29   28 ar
    30   30   25 ar
    31   31    4 1
    32   32   33 1
    33   33   34 1
    34   34   35 1
    35   35   77 1
    36   36   12 2
    37   37   36 1
    38   38   37 ar
    39   39   38 ar
    40   40   39 ar
    41   41   40 ar
    42   42   37 ar
    43   43    7 1
    44   44   32 1
    45   45   44 ar
    46   46   45 ar
    47   47   46 ar
    48   48   47 ar
    49   49   44 ar
    50   50    8 1
    51   51   13 1
    52   52   14 1
    53   53   15 1
    54   54   15 1
    55   56   16 1
    56   57   16 1
    57   58   17 1
    58   59   19 1
    59   60   20 1
    60   61   22 1
    61   62   23 1
    62   63   24 1
    63   64   24 1
    64   65   24 1
    65   66   26 1
    66   67   27 1
    67   68   29 1
    68   69   30 1
    69   70   31 1
    70   71   31 1
    71   72   31 1
    72   73   32 1
    73   74   33 1
    74   75   34 1
    75   76   34 1
    76   78   35 1
    77   79   35 1
    78   80   36 1
    79   81   38 1
    80   82   39 1
    81   83   41 1
    82   84   42 1
    83   85   43 1
    84   86   43 1
    85   87   43 1
    86   88   45 1
    87   89   46 1
    88   90   48 1
    89   91   49 1
    90   92   50 1
    91   93   50 1
    92   94   50 1
    93   22   23 ar
    94   29   30 ar
    95   41   42 ar
    96   48   49 ar
@<TRIPOS>SUBSTRUCTURE
     1 RES1 1
     2 RES2 5

@<TRIPOS>CRYSIN
  21.8186   42.3860    8.0442  90.0000  90.0000  90.0000  61 1

