# MOL2 file generated by ConQuest
# Please check atom types

@<TRIPOS>MOLECULE
WIXCAI01
    41    43     1
SMALL
NO_CHARGES
****
Generated from CSD

@<TRIPOS>ATOM
      1 O1        10.2606    7.6664    3.2921 O.3       1 RES1    0.0000
      2 H1        11.0319    7.4392    3.1309 H         1 RES1    0.0000
      3 O2        10.3184    6.8756    7.7627 O.2       1 RES1    0.0000
      4 O3        10.1761    8.3868    9.2425 O.2       1 RES1    0.0000
      5 O4         5.3578    7.3207    3.3460 O.2       1 RES1    0.0000
      6 N1         7.5504    7.1797    3.6670 N.am      1 RES1    0.0000
      7 H2         8.2326    6.6671    3.7757 H         1 RES1    0.0000
      8 N2         9.9622    7.9722    8.1292 N.pl3     1 RES1    0.0000
      9 C1         9.8754    8.6212    2.4049 C.ar      1 RES1    0.0000
     10 C2        10.7292    9.0823    1.3857 C.ar      1 RES1    0.0000
     11 H3        11.5898    8.7383    1.3094 H         1 RES1    0.0000
     12 C3        10.2984   10.0263    0.5176 C.ar      1 RES1    0.0000
     13 H4        10.8759   10.3300   -0.1451 H         1 RES1    0.0000
     14 C4         8.9981   10.5601    0.5937 C.ar      1 RES1    0.0000
     15 C5         8.5287   11.5303   -0.3216 C.ar      1 RES1    0.0000
     16 H5         9.1068   11.8530   -0.9746 H         1 RES1    0.0000
     17 C6         7.2647   12.0002   -0.2728 C.ar      1 RES1    0.0000
     18 H6         6.9759   12.6296   -0.8940 H         1 RES1    0.0000
     19 C7         6.3955   11.5392    0.7112 C.ar      1 RES1    0.0000
     20 H7         5.5229   11.8586    0.7378 H         1 RES1    0.0000
     21 C8         6.8060   10.6239    1.6386 C.ar      1 RES1    0.0000
     22 H8         6.2108   10.3445    2.2964 H         1 RES1    0.0000
     23 C9         8.1223   10.0908    1.6192 C.ar      1 RES1    0.0000
     24 C10        8.5964    9.1205    2.5410 C.ar      1 RES1    0.0000
     25 C11        7.7424    8.6215    3.6955 C.3       1 RES1    0.0000
     26 H9         6.8560    9.0243    3.5823 H         1 RES1    0.0000
     27 C12        8.2814    9.1224    5.0310 C.ar      1 RES1    0.0000
     28 C13        8.2103   10.4843    5.2935 C.ar      1 RES1    0.0000
     29 H10        7.8492   11.0523    4.6511 H         1 RES1    0.0000
     30 C14        8.6632   11.0168    6.4858 C.ar      1 RES1    0.0000
     31 H11        8.5971   11.9314    6.6413 H         1 RES1    0.0000
     32 C15        9.2103   10.1949    7.4425 C.ar      1 RES1    0.0000
     33 H12        9.5120   10.5368    8.2533 H         1 RES1    0.0000
     34 C16        9.2983    8.8549    7.1622 C.ar      1 RES1    0.0000
     35 C17        8.8453    8.2951    5.9769 C.ar      1 RES1    0.0000
     36 H13        8.9204    7.3803    5.8242 H         1 RES1    0.0000
     37 C18        6.3552    6.6283    3.4789 C.2       1 RES1    0.0000
     38 C19        6.2862    5.1363    3.4558 C.3       1 RES1    0.0000
     39 H14        5.8711    4.8225    4.2630 H         1 RES1    0.0000
     40 H15        7.1729    4.7747    3.3901 H         1 RES1    0.0000
     41 H16        5.7684    4.8514    2.6982 H         1 RES1    0.0000
@<TRIPOS>BOND
     1    1    2 1
     2    3    8 2
     3    4    8 2
     4    5   37 2
     5    6    7 1
     6    8   34 1
     7    9    1 1
     8   10    9 ar
     9   11   10 1
    10   12   10 ar
    11   13   12 1
    12   14   12 ar
    13   15   14 ar
    14   16   15 1
    15   17   15 ar
    16   18   17 1
    17   19   17 ar
    18   20   19 1
    19   21   19 ar
    20   22   21 1
    21   23   14 ar
    22   24    9 ar
    23   25    6 1
    24   26   25 1
    25   27   25 1
    26   28   27 ar
    27   29   28 1
    28   30   28 ar
    29   31   30 1
    30   32   30 ar
    31   33   32 1
    32   34   32 ar
    33   35   27 ar
    34   36   35 1
    35   37    6 1
    36   38   37 1
    37   39   38 1
    38   40   38 1
    39   41   38 1
    40   21   23 ar
    41   23   24 ar
    42   24   25 1
    43   34   35 ar
@<TRIPOS>SUBSTRUCTURE
     1 RES1 1

@<TRIPOS>CRYSIN
   7.5261    8.8635   13.3008  74.7200  73.7540  82.6000   2 1

