# MOL2 file generated by ConQuest
# Please check atom types

@<TRIPOS>MOLECULE
WIYDUF
    49    51     1
SMALL
USER_CHARGES
****
Generated from CSD

@<TRIPOS>ATOM
      1 C1        -0.2902    0.4350    6.5243 C.3       1 RES1    0.0000
      2 H1         0.4566    0.6094    5.9142 H         1 RES1    0.0000
      3 H2        -0.5125   -0.5189    6.5052 H         1 RES1    0.0000
      4 H3        -0.0346    0.6933    7.4343 H         1 RES1    0.0000
      5 C2        -1.4789    1.2316    6.0960 C.2       1 RES1    0.0000
      6 C3        -2.7498    0.5642    5.7199 C.3       1 RES1    0.0000
      7 H4        -3.4491    0.8051    6.3646 H         1 RES1    0.0000
      8 H5        -2.6220   -0.4071    5.7242 H         1 RES1    0.0000
      9 H6        -3.0186    0.8553    4.8235 H         1 RES1    0.0000
     10 N1        -1.4023    2.5198    6.0568 N.pl3     1 RES1    1.0000
     11 C4        -0.1426    3.2926    6.2877 C.3       1 RES1    0.0000
     12 H7         0.2882    3.0018    7.1425 H         1 RES1    0.0000
     13 C5        -0.6700    4.7207    6.4243 C.3       1 RES1    0.0000
     14 H8        -0.1961    5.3168    5.7766 H         1 RES1    0.0000
     15 C6        -2.1445    4.5964    6.0249 C.2       1 RES1    0.0000
     16 N2        -2.4876    3.3252    5.7601 N.2       1 RES1   -1.0000
     17 O1        -2.9151    5.5544    5.9784 O.2       1 RES1    0.0000
     18 C7         0.8147    3.0953    5.1264 C.ar      1 RES1    0.0000
     19 C8         0.3701    2.8192    3.8388 C.ar      1 RES1    0.0000
     20 H9        -0.5621    2.7583    3.6625 H         1 RES1    0.0000
     21 C9         1.2835    2.6325    2.8064 C.ar      1 RES1    0.0000
     22 H10        0.9697    2.4466    1.9300 H         1 RES1    0.0000
     23 C10        2.6381    2.7147    3.0422 C.ar      1 RES1    0.0000
     24 H11        3.2653    2.5766    2.3429 H         1 RES1    0.0000
     25 C11        3.0532    3.0009    4.3205 C.ar      1 RES1    0.0000
     26 C12        2.1698    3.2032    5.3695 C.ar      1 RES1    0.0000
     27 H12        2.4906    3.4113    6.2389 H         1 RES1    0.0000
     28 N3         4.4901    3.0807    4.6067 N.pl3     1 RES1    0.0000
     29 O2         5.2760    2.8809    3.6935 O.2       1 RES1    0.0000
     30 O3         4.8479    3.3373    5.7450 O.2       1 RES1    0.0000
     31 N4        -0.5603    5.2690    7.7561 N.am      1 RES1    0.0000
     32 C13        0.6357    5.6876    8.2039 C.2       1 RES1    0.0000
     33 O4         1.6525    5.7181    7.5366 O.2       1 RES1    0.0000
     34 O5         0.5493    6.0731    9.4931 O.3       1 RES1    0.0000
     35 C14        1.7711    6.6269   10.0621 C.3       1 RES1    0.0000
     36 H13        2.5451    6.0882    9.7623 H         1 RES1    0.0000
     37 H14        1.7263    6.5743   11.0490 H         1 RES1    0.0000
     38 C15        1.9714    8.0571    9.6498 C.ar      1 RES1    0.0000
     39 C16        1.1532    9.0554   10.1613 C.ar      1 RES1    0.0000
     40 H15        0.4469    8.8293   10.7542 H         1 RES1    0.0000
     41 C17        1.3604   10.3770    9.8122 C.ar      1 RES1    0.0000
     42 H16        0.7868   11.0514   10.1558 H         1 RES1    0.0000
     43 C18        2.3906   10.7208    8.9707 C.ar      1 RES1    0.0000
     44 H17        2.5474   11.6328    8.7554 H         1 RES1    0.0000
     45 C19        3.1948    9.7356    8.4400 C.ar      1 RES1    0.0000
     46 H18        3.8955    9.9691    7.8427 H         1 RES1    0.0000
     47 C20        2.9874    8.4025    8.7715 C.ar      1 RES1    0.0000
     48 H19        3.5411    7.7281    8.3963 H         1 RES1    0.0000
     49 H20       -1.2299    5.1976    8.3125 H         1 RES1    0.0000
@<TRIPOS>BOND
     1    1    2 1
     2    3    1 1
     3    4    1 1
     4    5    1 1
     5    6    5 1
     6    7    6 1
     7    8    6 1
     8    9    6 1
     9   10    5 2
    10   11   10 1
    11   12   11 1
    12   13   11 1
    13   14   13 1
    14   15   13 1
    15   16   10 1
    16   17   15 2
    17   18   11 1
    18   19   18 ar
    19   20   19 1
    20   21   19 ar
    21   22   21 1
    22   23   21 ar
    23   24   23 1
    24   25   23 ar
    25   26   18 ar
    26   27   26 1
    27   28   25 1
    28   29   28 2
    29   30   28 2
    30   31   13 1
    31   32   31 1
    32   33   32 2
    33   34   32 1
    34   35   34 1
    35   36   35 1
    36   37   35 1
    37   38   35 1
    38   39   38 ar
    39   40   39 1
    40   41   39 ar
    41   42   41 1
    42   43   41 ar
    43   44   43 1
    44   45   43 ar
    45   46   45 1
    46   47   38 ar
    47   48   47 1
    48   49   31 1
    49   15   16 1
    50   25   26 ar
    51   45   47 ar
@<TRIPOS>SUBSTRUCTURE
     1 RES1 1

@<TRIPOS>CRYSIN
  15.5657    8.2240   15.9538  90.0000 110.3160  90.0000 231 1

