# MOL2 file generated by ConQuest
# Please check atom types

@<TRIPOS>MOLECULE
WIYRUS
    34    36     1
SMALL
NO_CHARGES
****
Generated from CSD

@<TRIPOS>ATOM
      1 O1         5.5555    0.7627    1.4184 O.3       1 RES1    0.0000
      2 N1         4.8733    1.1238    0.2153 N.2       1 RES1    0.0000
      3 C1         3.2424    2.6672   -0.7381 C.3       1 RES1    0.0000
      4 C2         1.7598    2.1469   -0.5462 C.3       1 RES1    0.0000
      5 H1         1.1695    2.9472   -0.4422 H         1 RES1    0.0000
      6 C3         1.5061    1.2172    0.6627 C.3       1 RES1    0.0000
      7 H2         0.6036    0.8229    0.5692 H         1 RES1    0.0000
      8 H3         2.1597    0.4744    0.6277 H         1 RES1    0.0000
      9 C4         1.6014    1.8758    2.0329 C.2       1 RES1    0.0000
     10 C5         2.9720    2.1887    2.5944 C.3       1 RES1    0.0000
     11 H4         3.4136    1.3384    2.8444 H         1 RES1    0.0000
     12 H5         2.8615    2.7233    3.4207 H         1 RES1    0.0000
     13 C6         3.8978    2.9609    1.6255 C.3       1 RES1    0.0000
     14 H6         4.7743    3.1492    2.0670 H         1 RES1    0.0000
     15 C7         3.2773    4.2835    1.0884 C.3       1 RES1    0.0000
     16 H7         2.3411    4.3787    1.3965 H         1 RES1    0.0000
     17 H8         3.7968    5.0647    1.4051 H         1 RES1    0.0000
     18 C8         3.3342    4.1809   -0.4435 C.3       1 RES1    0.0000
     19 H9         4.1820    4.5560   -0.7903 H         1 RES1    0.0000
     20 H10        2.5763    4.6662   -0.8573 H         1 RES1    0.0000
     21 C9         4.1148    2.1373    0.3756 C.2       1 RES1    0.0000
     22 C10        3.6311    2.2585   -2.1701 C.3       1 RES1    0.0000
     23 H11        4.2242    2.9356   -2.5819 H         1 RES1    0.0000
     24 H12        4.0922    1.3822   -2.1740 H         1 RES1    0.0000
     25 C11        2.2932    2.1770   -2.9167 C.3       1 RES1    0.0000
     26 H13        1.9476    3.0780   -3.1383 H         1 RES1    0.0000
     27 H14        2.3748    1.6451   -3.7474 H         1 RES1    0.0000
     28 C12        1.4049    1.4760   -1.8921 C.3       1 RES1    0.0000
     29 H15        1.5981    0.5052   -1.8644 H         1 RES1    0.0000
     30 H16        0.4481    1.6054   -2.1084 H         1 RES1    0.0000
     31 C13        0.5010    2.1517    2.7196 C.2       1 RES1    0.0000
     32 H17        0.5646    2.5522    3.5791 H         1 RES1    0.0000
     33 H18       -0.3518    1.9484    2.3523 H         1 RES1    0.0000
     34 H19        6.1063    0.0548    1.0813 H         1 RES1    0.0000
@<TRIPOS>BOND
     1    1    2 1
     2    2   21 2
     3    3    4 1
     4    4    5 1
     5    6    4 1
     6    7    6 1
     7    8    6 1
     8    9    6 1
     9   10    9 1
    10   11   10 1
    11   12   10 1
    12   13   10 1
    13   14   13 1
    14   15   13 1
    15   16   15 1
    16   17   15 1
    17   18    3 1
    18   19   18 1
    19   20   18 1
    20   21    3 1
    21   22    3 1
    22   23   22 1
    23   24   22 1
    24   25   22 1
    25   26   25 1
    26   27   25 1
    27   28    4 1
    28   29   28 1
    29   30   28 1
    30   31    9 2
    31   32   31 1
    32   33   31 1
    33   34    1 1
    34   13   21 1
    35   15   18 1
    36   25   28 1
@<TRIPOS>SUBSTRUCTURE
     1 RES1 1

@<TRIPOS>CRYSIN
  11.6690    6.8460   14.2990  90.0000  93.9570  90.0000 231 1

