# MOL2 file generated by ConQuest
# Please check atom types

@<TRIPOS>MOLECULE
WIYSAZ
   216   226     7
SMALL
NO_CHARGES
****
Generated from CSD

@<TRIPOS>ATOM
      1 O1         4.0717    5.5434    8.6343 O.3       1 RES1    0.0000
      2 H1         3.9521    4.7941    8.2721 H         1 RES1    0.0000
      3 N1         3.0626    6.4404    8.2067 N.2       1 RES1    0.0000
      4 C1         2.3007    8.7503    8.3792 C.3       1 RES1    0.0000
      5 C2         3.1952    7.5960    8.7279 C.2       1 RES1    0.0000
      6 C3         4.2626    8.0629    9.6962 C.3       1 RES1    0.0000
      7 H2         4.3969    7.3753   10.4105 H         1 RES1    0.0000
      8 C4         5.5865    8.3153    8.9620 C.3       1 RES1    0.0000
      9 H3         6.2748    8.5704    9.6258 H         1 RES1    0.0000
     10 H4         5.8791    7.4740    8.5322 H         1 RES1    0.0000
     11 C5         5.4978    9.3896    7.9173 C.2       1 RES1    0.0000
     12 C6         4.4332    9.2357    6.8664 C.3       1 RES1    0.0000
     13 H5         4.4332    8.2918    6.5681 H         1 RES1    0.0000
     14 H6         4.6898    9.7902    6.0863 H         1 RES1    0.0000
     15 C7         2.9995    9.6079    7.2610 C.3       1 RES1    0.0000
     16 H7         3.0051   10.5597    7.5670 H         1 RES1    0.0000
     17 C8         0.9087    8.4172    7.7949 C.3       1 RES1    0.0000
     18 H8         0.8864    7.4885    7.4538 H         1 RES1    0.0000
     19 H9         0.2073    8.5211    8.4847 H         1 RES1    0.0000
     20 C9         0.6965    9.4020    6.6676 C.3       1 RES1    0.0000
     21 H10        0.0360    9.0614    6.0144 H         1 RES1    0.0000
     22 H11        0.3889   10.2780    7.0117 H         1 RES1    0.0000
     23 C10        2.0557    9.5107    6.0557 C.3       1 RES1    0.0000
     24 H12        2.2466    8.6444    5.5922 H         1 RES1    0.0000
     25 C11        2.2515    9.4945    9.7237 C.3       1 RES1    0.0000
     26 H13        2.0237   10.4481    9.5876 H         1 RES1    0.0000
     27 H14        1.5777    9.0885   10.3249 H         1 RES1    0.0000
     28 C12        3.6530    9.3539   10.3126 C.3       1 RES1    0.0000
     29 H15        3.6075    9.2775   11.2992 H         1 RES1    0.0000
     30 H16        4.2055   10.1426   10.0816 H         1 RES1    0.0000
     31 C13        6.3312   10.4122    7.8943 C.2       1 RES1    0.0000
     32 H17        7.0123   10.4833    8.5536 H         1 RES1    0.0000
     33 H18        6.2513   11.0755    7.2197 H         1 RES1    0.0000
     34 C14        2.2255   10.6211    5.0339 C.3       1 RES1    0.0000
     35 H19        1.6617   10.4366    4.2538 H         1 RES1    0.0000
     36 H20        3.1633   10.6662    4.7556 H         1 RES1    0.0000
     37 H21        1.9603   11.4759    5.4332 H         1 RES1    0.0000
     38 O2         1.7243    4.5094    6.6755 O.3       2 RES2    0.0000
     39 H22        1.8628    5.2566    7.0331 H         2 RES2    0.0000
     40 N2         2.7753    3.6131    7.0279 N.2       2 RES2    0.0000
     41 C15        3.5602    1.3192    6.6844 C.3       2 RES2    0.0000
     42 C16        2.5954    2.4545    6.4962 C.2       2 RES2    0.0000
     43 C17        1.4634    2.0250    5.6060 C.3       2 RES2    0.0000
     44 H23        1.2287    2.7588    4.9682 H         2 RES2    0.0000
     45 C18        0.2353    1.6412    6.4473 C.3       2 RES2    0.0000
     46 H24       -0.0455    2.4280    6.9796 H         2 RES2    0.0000
     47 H25       -0.5093    1.4083    5.8385 H         2 RES2    0.0000
     48 C19        0.4815    0.4935    7.3742 C.2       2 RES2    0.0000
     49 C20        1.6402    0.5968    8.3440 C.3       2 RES2    0.0000
     50 H26        1.4770   -0.0284    9.0935 H         2 RES2    0.0000
     51 H27        1.6542    1.5126    8.7188 H         2 RES2    0.0000
     52 C21        3.0318    0.2917    7.7490 C.3       2 RES2    0.0000
     53 H28        2.9723   -0.5988    7.2978 H         2 RES2    0.0000
     54 C22        3.5213    0.7303    5.2649 C.3       2 RES2    0.0000
     55 H29        4.0984    1.2527    4.6531 H         2 RES2    0.0000
     56 H30        3.8284   -0.2114    5.2680 H         2 RES2    0.0000
     57 C23        2.0581    0.8197    4.8366 C.3       2 RES2    0.0000
     58 H31        1.5760   -0.0129    5.0691 H         2 RES2    0.0000
     59 H32        1.9910    0.9638    3.8592 H         2 RES2    0.0000
     60 C24       -0.2635   -0.5988    7.3467 C.2       2 RES2    0.0000
     61 H33       -0.9795   -0.6718    6.7272 H         2 RES2    0.0000
     62 H34       -0.0824   -1.3123    7.9494 H         2 RES2    0.0000
     63 C25        4.9852    1.7125    7.1387 C.3       2 RES2    0.0000
     64 C26        4.1377    0.1920    8.8044 C.3       2 RES2    0.0000
     65 C27        4.1573   -0.5676    9.8797 C.3       2 RES2    0.0000
     66 C28        5.2943    0.2961    8.0855 C.3       2 RES2    0.0000
     67 O3         1.4534    7.5062   12.5700 O.3       3 RES3    0.0000
     68 H35        1.2188    8.2867   12.7707 H         3 RES3    0.0000
     69 N3         0.3458    6.8042   12.0161 N.2       3 RES3    0.0000
     70 C29       -0.3597    4.6584   11.1095 C.3       3 RES3    0.0000
     71 C30        0.6516    5.6134   11.6908 C.2       3 RES3    0.0000
     72 C31        1.9768    4.9188   11.8070 C.3       3 RES3    0.0000
     73 H36        2.7085    5.5387   11.5241 H         3 RES3    0.0000
     74 C32        2.2286    4.4427   13.2510 C.3       3 RES3    0.0000
     75 H37        3.1287    4.0318   13.2999 H         3 RES3    0.0000
     76 H38        2.2235    5.2282   13.8537 H         3 RES3    0.0000
     77 C33        1.2157    3.4513   13.7405 C.2       3 RES3    0.0000
     78 C34       -0.2431    3.8073   13.6105 C.3       3 RES3    0.0000
     79 H39       -0.3611    4.7500   13.8919 H         3 RES3    0.0000
     80 H40       -0.7603    3.2422   14.2361 H         3 RES3    0.0000
     81 C35       -0.8338    3.6430   12.2032 C.3       3 RES3    0.0000
     82 H41       -0.5937    2.7266   11.8851 H         3 RES3    0.0000
     83 C36       -1.6624    5.2776   10.5681 C.3       3 RES3    0.0000
     84 H42       -1.8751    6.1222   11.0392 H         3 RES3    0.0000
     85 H43       -1.5909    5.4607    9.5968 H         3 RES3    0.0000
     86 C37       -2.7163    4.2222   10.8434 C.3       3 RES3    0.0000
     87 H44       -3.6255    4.6125   10.8143 H         3 RES3    0.0000
     88 H45       -2.6605    3.4845   10.1857 H         3 RES3    0.0000
     89 C38       -2.3854    3.7380   12.2154 C.3       3 RES3    0.0000
     90 H46       -2.6506    4.4456   12.8701 H         3 RES3    0.0000
     91 C39        0.5342    3.9536   10.0740 C.3       3 RES3    0.0000
     92 H47        0.1397    3.0875    9.8002 H         3 RES3    0.0000
     93 H48        0.6549    4.5183    9.2710 H         3 RES3    0.0000
     94 C40        1.8632    3.7416   10.7929 C.3       3 RES3    0.0000
     95 H49        2.6156    3.7600   10.1505 H         3 RES3    0.0000
     96 H50        1.8701    2.8709   11.2656 H         3 RES3    0.0000
     97 C41        1.6151    2.2777   14.2514 C.2       3 RES3    0.0000
     98 H51        2.5419    2.0732   14.3049 H         3 RES3    0.0000
     99 H52        0.9719    1.6497   14.5603 H         3 RES3    0.0000
    100 C42       -3.0744    2.4251   12.6193 C.3       3 RES3    0.0000
    101 H53       -4.0458    2.5543   12.6239 H         3 RES3    0.0000
    102 H54       -2.7761    2.1607   13.5141 H         3 RES3    0.0000
    103 H55       -2.8414    1.7228   11.9768 H         3 RES3    0.0000
    104 O4         9.0316    2.7469    2.5372 O.3       4 RES4    0.0000
    105 H56        8.8264    1.9531    2.3556 H         4 RES4    0.0000
    106 N4         7.9313    3.3871    3.1902 N.2       4 RES4    0.0000
    107 C43        7.1837    5.4813    4.1712 C.3       4 RES4    0.0000
    108 C44        8.1891    4.5943    3.4890 C.2       4 RES4    0.0000
    109 C45        9.4718    5.3616    3.2871 C.3       4 RES4    0.0000
    110 H57       10.2550    4.7787    3.5028 H         4 RES4    0.0000
    111 C46        9.5744    5.8615    1.8325 C.3       4 RES4    0.0000
    112 H58       10.4398    6.3275    1.7162 H         4 RES4    0.0000
    113 H59        9.5701    5.0795    1.2267 H         4 RES4    0.0000
    114 C47        8.4665    6.7941    1.4241 C.2       4 RES4    0.0000
    115 C48        7.0510    6.3658    1.6765 C.3       4 RES4    0.0000
    116 H60        6.9574    5.4214    1.3965 H         4 RES4    0.0000
    117 H61        6.4553    6.9058    1.0998 H         4 RES4    0.0000
    118 C49        6.5560    6.4898    3.1372 C.3       4 RES4    0.0000
    119 H62        6.7703    7.4161    3.4493 H         4 RES4    0.0000
    120 C50        5.9684    4.7825    4.8259 C.3       4 RES4    0.0000
    121 H63        5.7727    3.9229    4.3747 H         4 RES4    0.0000
    122 H64        6.1376    4.6081    5.7850 H         4 RES4    0.0000
    123 C51        4.8331    5.7481    4.6485 C.3       4 RES4    0.0000
    124 H65        3.9611    5.2869    4.7295 H         4 RES4    0.0000
    125 H66        4.8764    6.4712    5.3246 H         4 RES4    0.0000
    126 C52        5.0226    6.2920    3.2734 C.3       4 RES4    0.0000
    127 H67        4.7497    5.5814    2.6248 H         4 RES4    0.0000
    128 C53        9.3644    6.5165    4.3334 C.3       4 RES4    0.0000
    129 H68       10.1652    6.5376    4.9146 H         4 RES4    0.0000
    130 H69        9.2791    7.3922    3.8791 H         4 RES4    0.0000
    131 C54        8.1085    6.2063    5.1502 C.3       4 RES4    0.0000
    132 H70        8.3257    5.6281    5.9242 H         4 RES4    0.0000
    133 H71        7.6880    7.0392    5.4821 H         4 RES4    0.0000
    134 C55        8.7423    7.9561    0.8658 C.2       4 RES4    0.0000
    135 H72        8.0365    8.5414    0.6134 H         4 RES4    0.0000
    136 H73        9.6456    8.2083    0.7143 H         4 RES4    0.0000
    137 C56        4.2236    7.5577    2.9384 C.3       4 RES4    0.0000
    138 H74        3.2663    7.3776    3.0439 H         4 RES4    0.0000
    139 H75        4.4053    7.8243    2.0130 H         4 RES4    0.0000
    140 H76        4.4887    8.2821    3.5441 H         4 RES4    0.0000
    141 N5        -0.2425    9.7450   12.3875 N.2       5 RES5    0.0000
    142 C57        0.3552   11.9940   13.1363 C.3       5 RES5    0.0000
    143 C58       -0.4917   10.9975   12.3784 C.2       5 RES5    0.0000
    144 C59       -1.5824   11.7355   11.6480 C.3       5 RES5    0.0000
    145 H77       -1.6879   11.3538   10.7302 H         5 RES5    0.0000
    146 C60       -2.9134   11.5930   12.4235 C.3       5 RES5    0.0000
    147 H78       -3.6416   11.9985   11.8896 H         5 RES5    0.0000
    148 H79       -3.1195   10.6317   12.5351 H         5 RES5    0.0000
    149 C61       -2.8760   12.2399   13.7649 C.2       5 RES5    0.0000
    150 C62       -1.7795   11.8167   14.7102 C.3       5 RES5    0.0000
    151 H80       -1.6959   10.8315   14.6644 H         5 RES5    0.0000
    152 H81       -2.0583   12.0476   15.6311 H         5 RES5    0.0000
    153 C63       -0.3892   12.4300   14.4579 C.3       5 RES5    0.0000
    154 H82       -0.4976   13.4247   14.4288 H         5 RES5    0.0000
    155 C64        1.7382   11.5203   13.6028 C.3       5 RES5    0.0000
    156 H83        1.7542   10.5362   13.7160 H         5 RES5    0.0000
    157 H84        2.4376   11.7795   12.9512 H         5 RES5    0.0000
    158 C65        1.9579   12.2213   14.9412 C.3       5 RES5    0.0000
    159 H85        2.6563   11.7667   15.4750 H         5 RES5    0.0000
    160 H86        2.2117   13.1687   14.8127 H         5 RES5    0.0000
    161 C66        0.5924   12.1007   15.5989 C.3       5 RES5    0.0000
    162 H87        0.4559   11.1453   15.8620 H         5 RES5    0.0000
    163 C67        0.3643   13.1286   12.1023 C.3       5 RES5    0.0000
    164 H88        0.5996   13.9899   12.5305 H         5 RES5    0.0000
    165 H89        1.0154   12.9414   11.3818 H         5 RES5    0.0000
    166 C68       -1.0629   13.1740   11.5455 C.3       5 RES5    0.0000
    167 H90       -1.0601   13.4787   10.6032 H         5 RES5    0.0000
    168 H91       -1.6272   13.7884   12.0778 H         5 RES5    0.0000
    169 C69       -3.7775   13.1336   14.1275 C.2       5 RES5    0.0000
    170 H92       -4.4733   13.3780   13.5279 H         5 RES5    0.0000
    171 H93       -3.7324   13.5310   14.9902 H         5 RES5    0.0000
    172 C70        0.4107   12.9654   16.8410 C.3       5 RES5    0.0000
    173 H94        1.0959   12.7347   17.5018 H         5 RES5    0.0000
    174 H95       -0.4775   12.8068   17.2219 H         5 RES5    0.0000
    175 H96        0.4987   13.9105   16.5962 H         5 RES5    0.0000
    176 O5        -1.1906    9.0475   11.5826 O.3       5 RES5    0.0000
    177 H97       -1.0186    8.2251   11.5960 H         5 RES5    0.0000
    178 O6         6.5053    1.0937    3.6311 O.3       6 RES6    0.0000
    179 H98        6.6702    1.9173    3.6420 H         6 RES6    0.0000
    180 N6         7.4846    0.4213    2.8379 N.2       6 RES6    0.0000
    181 C71        8.1084   -1.8092    2.0459 C.3       6 RES6    0.0000
    182 C72        7.2532   -0.8380    2.8038 C.2       6 RES6    0.0000
    183 C73        6.1393   -1.5896    3.4997 C.3       6 RES6    0.0000
    184 H99        6.0145   -1.2262    4.4236 H         6 RES6    0.0000
    185 C74        4.8329   -1.4387    2.7028 C.3       6 RES6    0.0000
    186 H100       4.0941   -1.8541    3.2152 H         6 RES6    0.0000
    187 H101       4.6265   -0.4764    2.6034 H         6 RES6    0.0000
    188 C75        4.8949   -2.0705    1.3353 C.2       6 RES6    0.0000
    189 C76        6.0110   -1.6141    0.4191 C.3       6 RES6    0.0000
    190 H102       6.0838   -0.6295    0.4834 H         6 RES6    0.0000
    191 H103       5.7578   -1.8320   -0.5139 H         6 RES6    0.0000
    192 C77        7.3961   -2.2233    0.6987 C.3       6 RES6    0.0000
    193 H104       7.2871   -3.2169    0.7128 H         6 RES6    0.0000
    194 C78        9.5072   -1.3450    1.6214 C.3       6 RES6    0.0000
    195 H105       9.5396   -0.3593    1.5403 H         6 RES6    0.0000
    196 H106      10.1872   -1.6342    2.2806 H         6 RES6    0.0000
    197 C79        9.7447   -2.0071    0.2738 C.3       6 RES6    0.0000
    198 H107      10.4491   -1.5332   -0.2371 H         6 RES6    0.0000
    199 H108      10.0072   -2.9554    0.3839 H         6 RES6    0.0000
    200 C80        8.4082   -1.8911   -0.4099 C.3       6 RES6    0.0000
    201 H109       8.2790   -0.9314   -0.6623 H         6 RES6    0.0000
    202 C81        8.0970   -2.9716    3.0623 C.3       6 RES6    0.0000
    203 H110       8.3454   -3.8235    2.6248 H         6 RES6    0.0000
    204 H111       8.7297   -2.7955    3.8041 H         6 RES6    0.0000
    205 C82        6.6590   -3.0259    3.5778 C.3       6 RES6    0.0000
    206 H112       6.6356   -3.3539    4.5123 H         6 RES6    0.0000
    207 H113       6.1093   -3.6268    3.0149 H         6 RES6    0.0000
    208 C83        4.0302   -2.9723    0.9499 C.2       6 RES6    0.0000
    209 H114       3.3372   -3.2476    1.5388 H         6 RES6    0.0000
    210 H115       4.0945   -3.3531    0.0826 H         6 RES6    0.0000
    211 C84        8.2460   -2.7274   -1.6749 C.3       6 RES6    0.0000
    212 H116       8.3982   -3.6712   -1.4623 H         6 RES6    0.0000
    213 H117       8.8976   -2.4336   -2.3464 H         6 RES6    0.0000
    214 H118       7.3393   -2.6128   -2.0267 H         6 RES6    0.0000
    215 C85        3.8199    0.6528   10.0954 Du        7 SUP7    0.0000
    216 C86        5.2570    1.1549    8.3333 Du        7 SUP7    0.0000
@<TRIPOS>BOND
     1    1    2 1
     2    3    1 1
     3    4    5 1
     4    5    3 2
     5    6    5 1
     6    7    6 1
     7    8    6 1
     8    9    8 1
     9   10    8 1
    10   11    8 1
    11   12   11 1
    12   13   12 1
    13   14   12 1
    14   15    4 1
    15   16   15 1
    16   17    4 1
    17   18   17 1
    18   19   17 1
    19   20   17 1
    20   21   20 1
    21   22   20 1
    22   23   15 1
    23   24   23 1
    24   25    4 1
    25   26   25 1
    26   27   25 1
    27   28    6 1
    28   29   28 1
    29   30   28 1
    30   31   11 2
    31   32   31 1
    32   33   31 1
    33   34   23 1
    34   35   34 1
    35   36   34 1
    36   37   34 1
    37   38   39 1
    38   40   38 1
    39   41   42 1
    40   42   40 2
    41   43   42 1
    42   44   43 1
    43   45   43 1
    44   46   45 1
    45   47   45 1
    46   48   45 1
    47   49   48 1
    48   50   49 1
    49   51   49 1
    50   52   41 1
    51   53   52 1
    52   54   41 1
    53   55   54 1
    54   56   54 1
    55   57   43 1
    56   58   57 1
    57   59   57 1
    58   60   48 2
    59   61   60 1
    60   62   60 1
    61   63   41 1
    62   64   52 1
    63   65   64 1
    64   66   63 1
    65   67   68 1
    66   69   67 1
    67   70   71 1
    68   71   69 2
    69   72   71 1
    70   73   72 1
    71   74   72 1
    72   75   74 1
    73   76   74 1
    74   77   74 1
    75   78   77 1
    76   79   78 1
    77   80   78 1
    78   81   70 1
    79   82   81 1
    80   83   70 1
    81   84   83 1
    82   85   83 1
    83   86   83 1
    84   87   86 1
    85   88   86 1
    86   89   81 1
    87   90   89 1
    88   91   70 1
    89   92   91 1
    90   93   91 1
    91   94   72 1
    92   95   94 1
    93   96   94 1
    94   97   77 2
    95   98   97 1
    96   99   97 1
    97  100   89 1
    98  101  100 1
    99  102  100 1
   100  103  100 1
   101  104  105 1
   102  106  104 1
   103  107  108 1
   104  108  106 2
   105  109  108 1
   106  110  109 1
   107  111  109 1
   108  112  111 1
   109  113  111 1
   110  114  111 1
   111  115  114 1
   112  116  115 1
   113  117  115 1
   114  118  107 1
   115  119  118 1
   116  120  107 1
   117  121  120 1
   118  122  120 1
   119  123  120 1
   120  124  123 1
   121  125  123 1
   122  126  118 1
   123  127  126 1
   124  128  109 1
   125  129  128 1
   126  130  128 1
   127  131  107 1
   128  132  131 1
   129  133  131 1
   130  134  114 2
   131  135  134 1
   132  136  134 1
   133  137  126 1
   134  138  137 1
   135  139  137 1
   136  140  137 1
   137  141  143 2
   138  142  143 1
   139  143  144 1
   140  144  145 1
   141  146  144 1
   142  147  146 1
   143  148  146 1
   144  149  146 1
   145  150  149 1
   146  151  150 1
   147  152  150 1
   148  153  142 1
   149  154  153 1
   150  155  142 1
   151  156  155 1
   152  157  155 1
   153  158  155 1
   154  159  158 1
   155  160  158 1
   156  161  153 1
   157  162  161 1
   158  163  142 1
   159  164  163 1
   160  165  163 1
   161  166  144 1
   162  167  166 1
   163  168  166 1
   164  169  149 2
   165  170  169 1
   166  171  169 1
   167  172  161 1
   168  173  172 1
   169  174  172 1
   170  175  172 1
   171  176  141 1
   172  177  176 1
   173  178  179 1
   174  180  178 1
   175  181  182 1
   176  182  180 2
   177  183  182 1
   178  184  183 1
   179  185  183 1
   180  186  185 1
   181  187  185 1
   182  188  185 1
   183  189  188 1
   184  190  189 1
   185  191  189 1
   186  192  181 1
   187  193  192 1
   188  194  181 1
   189  195  194 1
   190  196  194 1
   191  197  194 1
   192  198  197 1
   193  199  197 1
   194  200  192 1
   195  201  200 1
   196  202  181 1
   197  203  202 1
   198  204  202 1
   199  205  183 1
   200  206  205 1
   201  207  205 1
   202  208  188 2
   203  209  208 1
   204  210  208 1
   205  211  200 1
   206  212  211 1
   207  213  211 1
   208  214  211 1
   209   12   15 1
   210   20   23 1
   211   25   28 1
   212   49   52 1
   213   54   57 1
   214   64   66 1
   215   78   81 1
   216   86   89 1
   217   91   94 1
   218  115  118 1
   219  123  126 1
   220  128  131 1
   221  150  153 1
   222  158  161 1
   223  163  166 1
   224  189  192 1
   225  197  200 1
   226  202  205 1
@<TRIPOS>SUBSTRUCTURE
     1 RES1 1
     2 RES2 38
     3 RES3 67
     4 RES4 104
     5 RES5 141
     6 RES6 178
     7 SUP7 215

@<TRIPOS>CRYSIN
   8.9939   14.0240   16.0750 104.0440 100.6820  90.8270   1 1

