# MOL2 file generated by ConQuest
# Please check atom types

@<TRIPOS>MOLECULE
WIYSED
    74    78     2
SMALL
NO_CHARGES
****
Generated from CSD

@<TRIPOS>ATOM
      1 O1         3.0880   -1.2431    7.2015 O.3       1 RES1    0.0000
      2 N1         2.6193   -2.1183    6.1782 N.2       1 RES1    0.0000
      3 C1         1.0221   -2.3356    4.3242 C.3       1 RES1    0.0000
      4 C2         1.6860   -1.6146    5.4790 C.2       1 RES1    0.0000
      5 C3         1.0955   -0.2244    5.5882 C.3       1 RES1    0.0000
      6 H1         0.9097   -0.0096    6.5466 H         1 RES1    0.0000
      7 C4         2.0793    0.7862    5.0160 C.3       1 RES1    0.0000
      8 H2         1.7143    1.6957    5.1514 H         1 RES1    0.0000
      9 H3         2.9270    0.7246    5.5241 H         1 RES1    0.0000
     10 C5         2.3824    0.6012    3.5484 C.2       1 RES1    0.0000
     11 C6         2.8056   -0.7873    3.0844 C.3       1 RES1    0.0000
     12 H4         3.5000   -1.1207    3.7069 H         1 RES1    0.0000
     13 H5         3.2286   -0.6983    2.1941 H         1 RES1    0.0000
     14 C7         1.7024   -1.8561    2.9836 C.3       1 RES1    0.0000
     15 H6         0.9846   -1.5012    2.3841 H         1 RES1    0.0000
     16 C8        -0.4036   -1.7885    4.4712 C.3       1 RES1    0.0000
     17 H7        -0.9106   -1.9076    3.6303 H         1 RES1    0.0000
     18 H8        -0.8825   -2.2569    5.2008 H         1 RES1    0.0000
     19 C9        -0.2466   -0.3083    4.7977 C.3       1 RES1    0.0000
     20 H9        -0.1178    0.1785    3.9337 H         1 RES1    0.0000
     21 C10        1.1336   -3.8623    4.3315 C.3       1 RES1    0.0000
     22 H10        0.3035   -4.2738    4.6822 H         1 RES1    0.0000
     23 H11        1.8969   -4.1562    4.8890 H         1 RES1    0.0000
     24 C11        1.3543   -4.2448    2.8502 C.3       1 RES1    0.0000
     25 H12        1.7918   -5.1292    2.7715 H         1 RES1    0.0000
     26 H13        0.4982   -4.2610    2.3537 H         1 RES1    0.0000
     27 C12        2.2544   -3.1452    2.3484 C.3       1 RES1    0.0000
     28 H14        2.2226   -3.0895    1.3595 H         1 RES1    0.0000
     29 H15        3.1908   -3.3018    2.6298 H         1 RES1    0.0000
     30 C13        2.2854    1.5902    2.6686 C.2       1 RES1    0.0000
     31 H16        2.0168    2.4562    2.9542 H         1 RES1    0.0000
     32 H17        2.4848    1.4331    1.7532 H         1 RES1    0.0000
     33 C14       -1.4306    0.3316    5.5105 C.3       1 RES1    0.0000
     34 H18       -2.2038    0.3493    4.9089 H         1 RES1    0.0000
     35 H19       -1.1985    1.2472    5.7719 H         1 RES1    0.0000
     36 H20       -1.6515   -0.1901    6.3104 H         1 RES1    0.0000
     37 O2         4.4440   -4.1832    6.6800 O.3       2 RES2    0.0000
     38 N2         4.7127   -3.4051    7.8474 N.2       2 RES2    0.0000
     39 C15        5.7732   -3.4321   10.0352 C.3       2 RES2    0.0000
     40 C16        5.3859   -4.0460    8.7103 C.2       2 RES2    0.0000
     41 C17        5.8556   -5.4795    8.6578 C.3       2 RES2    0.0000
     42 H21        5.1480   -6.0521    8.2431 H         2 RES2    0.0000
     43 C18        7.1442   -5.5877    7.8505 C.3       2 RES2    0.0000
     44 H22        7.4117   -6.5398    7.8022 H         2 RES2    0.0000
     45 H23        6.9698   -5.2766    6.9277 H         2 RES2    0.0000
     46 C19        8.2783   -4.7973    8.4206 C.2       2 RES2    0.0000
     47 C20        8.0467   -3.3171    8.6725 C.3       2 RES2    0.0000
     48 H24        7.5529   -2.9450    7.8999 H         2 RES2    0.0000
     49 H25        8.9274   -2.8667    8.7051 H         2 RES2    0.0000
     50 C21        7.2656   -2.9534    9.9701 C.3       2 RES2    0.0000
     51 H26        7.7557   -3.3349   10.7543 H         2 RES2    0.0000
     52 C22        5.5568   -4.6484   10.9286 C.3       2 RES2    0.0000
     53 H27        6.0694   -4.5509   11.7695 H         2 RES2    0.0000
     54 H28        4.5970   -4.7404   11.1543 H         2 RES2    0.0000
     55 C23        6.0344   -5.8652   10.1591 C.3       2 RES2    0.0000
     56 H29        7.0118   -5.9835   10.3365 H         2 RES2    0.0000
     57 C24        4.9732   -2.1761   10.4383 C.3       2 RES2    0.0000
     58 H30        4.0564   -2.2099   10.0667 H         2 RES2    0.0000
     59 H31        4.9162   -2.0980   11.4241 H         2 RES2    0.0000
     60 C25        5.7475   -1.0188    9.8525 C.3       2 RES2    0.0000
     61 H32        5.5089   -0.1665   10.2955 H         2 RES2    0.0000
     62 H33        5.5866   -0.9352    8.8793 H         2 RES2    0.0000
     63 C26        7.1853   -1.4062   10.1412 C.3       2 RES2    0.0000
     64 H34        7.4351   -1.1462   11.0640 H         2 RES2    0.0000
     65 H35        7.7992   -0.9552    9.5082 H         2 RES2    0.0000
     66 C27        9.4494   -5.3640    8.7240 C.2       2 RES2    0.0000
     67 H36        9.5793   -6.2939    8.5791 H         2 RES2    0.0000
     68 H37       10.1527   -4.8369    9.0851 H         2 RES2    0.0000
     69 C28        5.3278   -7.1611   10.5160 C.3       2 RES2    0.0000
     70 H38        5.5455   -7.4078   11.4388 H         2 RES2    0.0000
     71 H39        5.6221   -7.8721    9.9092 H         2 RES2    0.0000
     72 H40        4.3586   -7.0388   10.4310 H         2 RES2    0.0000
     73 H41        3.9823   -3.7663    6.3199 H         2 RES2    0.0000
     74 H42        3.7293   -1.6926    7.5482 H         1 RES1    0.0000
@<TRIPOS>BOND
     1    1    2 1
     2    2    4 2
     3    3    4 1
     4    4    5 1
     5    5    6 1
     6    7    5 1
     7    8    7 1
     8    9    7 1
     9   10    7 1
    10   11   10 1
    11   12   11 1
    12   13   11 1
    13   14    3 1
    14   15   14 1
    15   16    3 1
    16   17   16 1
    17   18   16 1
    18   19    5 1
    19   20   19 1
    20   21    3 1
    21   22   21 1
    22   23   21 1
    23   24   21 1
    24   25   24 1
    25   26   24 1
    26   27   14 1
    27   28   27 1
    28   29   27 1
    29   30   10 2
    30   31   30 1
    31   32   30 1
    32   33   19 1
    33   34   33 1
    34   35   33 1
    35   36   33 1
    36   37   38 1
    37   38   40 2
    38   39   40 1
    39   40   41 1
    40   41   42 1
    41   43   41 1
    42   44   43 1
    43   45   43 1
    44   46   43 1
    45   47   46 1
    46   48   47 1
    47   49   47 1
    48   50   39 1
    49   51   50 1
    50   52   39 1
    51   53   52 1
    52   54   52 1
    53   55   41 1
    54   56   55 1
    55   57   39 1
    56   58   57 1
    57   59   57 1
    58   60   57 1
    59   61   60 1
    60   62   60 1
    61   63   50 1
    62   64   63 1
    63   65   63 1
    64   66   46 2
    65   67   66 1
    66   68   66 1
    67   69   55 1
    68   70   69 1
    69   71   69 1
    70   72   69 1
    71   73   37 1
    72   74    1 1
    73   11   14 1
    74   16   19 1
    75   24   27 1
    76   47   50 1
    77   52   55 1
    78   60   63 1
@<TRIPOS>SUBSTRUCTURE
     1 RES1 1
     2 RES2 37

@<TRIPOS>CRYSIN
   7.5728    8.5560   11.0351 106.1300  91.7570 109.9200   1 1

