# MOL2 file generated by ConQuest
# Please check atom types

@<TRIPOS>MOLECULE
WIYSIH
    92    84     3
SMALL
NO_CHARGES
****
Generated from CSD

@<TRIPOS>ATOM
      1 O1         1.9546    7.2476    9.8014 O.3       1 RES1    0.0000
      2 H1         2.4170    6.7805   10.3233 H         1 RES1    0.0000
      3 O2         3.2695    4.3322    9.2063 O.3       2 RES2    0.0000
      4 H2         2.6777    4.7311    8.7630 H         2 RES2    0.0000
      5 N1         1.4229    6.4232    8.7718 N.2       1 RES1    0.0000
      6 N2         3.4590    4.9925   10.4412 N.2       2 RES2    0.0000
      7 C1         4.4938    4.8151   12.6369 C.3       2 RES2    0.0000
      8 C2         4.1647    4.3162   11.2623 C.2       2 RES2    0.0000
      9 C3         4.7738    2.9442   11.0483 C.3       2 RES2    0.0000
     10 H3         4.1304    2.3599   10.5537 H         2 RES2    0.0000
     11 C4         6.0919    3.0550   10.2610 C.3       2 RES2    0.0000
     12 H4         6.4577    2.1465   10.1158 H         2 RES2    0.0000
     13 H5         5.9043    3.4512    9.3734 H         2 RES2    0.0000
     14 C5         7.1290    3.8940   10.9631 C.2       2 RES2    0.0000
     15 C6         6.7593    5.3028   11.3474 C.3       2 RES2    0.0000
     16 H6         6.2456    5.7029   10.6017 H         2 RES2    0.0000
     17 H7         7.5943    5.8269   11.4457 H         2 RES2    0.0000
     18 C7         5.9411    5.4571   12.6314 C.3       2 RES2    0.0000
     19 H8         6.4591    5.0137   13.3629 H         2 RES2    0.0000
     20 C8         4.4327    3.4876   13.4121 C.3       2 RES2    0.0000
     21 H9         4.9781    3.5459   14.2364 H         2 RES2    0.0000
     22 H10        3.4976    3.2820   13.6676 H         2 RES2    0.0000
     23 C9         4.9837    2.3980   12.4851 C.3       2 RES2    0.0000
     24 H11        5.9661    2.3127   12.6489 H         2 RES2    0.0000
     25 C10        3.5721    5.8971   13.2330 C.3       2 RES2    0.0000
     26 H12        3.0916    6.3848   12.5179 H         2 RES2    0.0000
     27 H13        2.9088    5.4948   13.8488 H         2 RES2    0.0000
     28 C11        4.5148    6.8282   13.9853 C.3       2 RES2    0.0000
     29 H14        4.0997    7.7159   14.1283 H         2 RES2    0.0000
     30 H15        4.7702    6.4449   14.8620 H         2 RES2    0.0000
     31 C12        5.7052    6.9285   13.0714 C.3       2 RES2    0.0000
     32 H16        6.4957    7.2447   13.5966 H         2 RES2    0.0000
     33 C13        8.3218    3.3932   11.2481 C.2       2 RES2    0.0000
     34 H17        8.9643    3.9245   11.7034 H         2 RES2    0.0000
     35 H18        8.5346    2.5016   10.9969 H         2 RES2    0.0000
     36 C14        4.3388    1.0358   12.7166 C.3       2 RES2    0.0000
     37 H19        3.3695    1.1070   12.5932 H         2 RES2    0.0000
     38 H20        4.5307    0.7344   13.6293 H         2 RES2    0.0000
     39 H21        4.7031    0.3890   12.0768 H         2 RES2    0.0000
     40 C15        5.4498    7.8995   11.9152 C.3       2 RES2    0.0000
     41 H22        4.7170    7.5602   11.3594 H         2 RES2    0.0000
     42 H23        6.2613    7.9812   11.3714 H         2 RES2    0.0000
     43 H24        5.2073    8.7789   12.2733 H         2 RES2    0.0000
     44 C16       -0.0569    6.4116    6.8338 C.3       1 RES1    0.0000
     45 C17        0.6188    7.0636    8.0075 C.2       1 RES1    0.0000
     46 C18        0.2298    8.5085    8.0763 C.3       1 RES1    0.0000
     47 H25        0.0337    8.7666    9.0229 H         1 RES1    0.0000
     48 C19        1.3639    9.3803    7.5162 C.3       1 RES1    0.0000
     49 H26        1.0935   10.3315    7.5762 H         1 RES1    0.0000
     50 H27        2.1674    9.2605    8.0817 H         1 RES1    0.0000
     51 C20        1.7305    9.0716    6.0848 C.2       1 RES1    0.0000
     52 C21        2.0092    7.6356    5.7005 C.3       1 RES1    0.0000
     53 H28        2.5832    7.2332    6.3992 H         1 RES1    0.0000
     54 H29        2.5257    7.6349    4.8554 H         1 RES1    0.0000
     55 C22        0.7717    6.7331    5.5116 C.3       1 RES1    0.0000
     56 H30        0.1543    7.2028    4.8816 H         1 RES1    0.0000
     57 C23       -1.4023    7.1428    6.8709 C.3       1 RES1    0.0000
     58 H31       -1.9945    6.7489    7.5598 H         1 RES1    0.0000
     59 H32       -1.8548    7.0865    5.9931 H         1 RES1    0.0000
     60 C24       -1.0688    8.6051    7.2159 C.3       1 RES1    0.0000
     61 H33       -0.8488    9.0856    6.3676 H         1 RES1    0.0000
     62 C25       -0.1572    4.8807    6.8764 C.3       1 RES1    0.0000
     63 H34        0.6009    4.4850    7.3753 H         1 RES1    0.0000
     64 H35       -1.0072    4.5890    7.2923 H         1 RES1    0.0000
     65 C26       -0.1052    4.5070    5.4166 C.3       1 RES1    0.0000
     66 H36       -0.9446    4.7552    4.9536 H         1 RES1    0.0000
     67 H37        0.0555    3.5369    5.3008 H         1 RES1    0.0000
     68 C27        1.0812    5.3341    4.9001 C.3       1 RES1    0.0000
     69 H38        1.0207    5.3970    3.9044 H         1 RES1    0.0000
     70 C28        1.8392   10.0306    5.1884 C.2       1 RES1    0.0000
     71 H39        1.6855   10.9337    5.4395 H         1 RES1    0.0000
     72 H40        2.0699    9.8191    4.2920 H         1 RES1    0.0000
     73 C29       -2.2087    9.3498    7.9092 C.3       1 RES1    0.0000
     74 H41       -2.9459    9.4784    7.2771 H         1 RES1    0.0000
     75 H42       -1.8873   10.2223    8.2193 H         1 RES1    0.0000
     76 H43       -2.5224    8.8261    8.6757 H         1 RES1    0.0000
     77 C30        2.4176    4.7742    5.2670 C.3       1 RES1    0.0000
     78 H44        3.1238    5.3470    4.9012 H         1 RES1    0.0000
     79 H45        2.5055    3.8708    4.8969 H         1 RES1    0.0000
     80 H46        2.4990    4.7364    6.2431 H         1 RES1    0.0000
     81 C31        1.1239    4.3525    6.0990 Du        3 SUP3    0.0000
     82 H47        1.9518    4.4525    6.6329 Du        3 SUP3    0.0000
     83 H48        1.0230    3.4100    5.8129 Du        3 SUP3    0.0000
     84 C32        2.3641    5.2055    4.0332 Du        3 SUP3    0.0000
     85 H49        2.3088    5.8238    3.2744 Du        3 SUP3    0.0000
     86 H50        2.4430    4.2870    3.7013 Du        3 SUP3    0.0000
     87 H51        3.1490    5.4259    4.5770 Du        3 SUP3    0.0000
     88 C33       -0.1572    4.8807    6.8764 Du        3 SUP3    0.0000
     89 H52       -0.9871    4.5722    6.4331 Du        3 SUP3    0.0000
     90 H53       -0.1563    4.5566    7.8121 Du        3 SUP3    0.0000
     91 C34        1.0812    5.3341    4.9001 Du        3 SUP3    0.0000
     92 H54        0.3029    5.0771    4.3269 Du        3 SUP3    0.0000
@<TRIPOS>BOND
     1    1    2 1
     2    3    4 1
     3    5    1 1
     4    6    3 1
     5    7    8 1
     6    8    6 2
     7    9    8 1
     8   10    9 1
     9   11    9 1
    10   12   11 1
    11   13   11 1
    12   14   11 1
    13   15   14 1
    14   16   15 1
    15   17   15 1
    16   18    7 1
    17   19   18 1
    18   20    7 1
    19   21   20 1
    20   22   20 1
    21   23    9 1
    22   24   23 1
    23   25    7 1
    24   26   25 1
    25   27   25 1
    26   28   25 1
    27   29   28 1
    28   30   28 1
    29   31   18 1
    30   32   31 1
    31   33   14 2
    32   34   33 1
    33   35   33 1
    34   36   23 1
    35   37   36 1
    36   38   36 1
    37   39   36 1
    38   40   31 1
    39   41   40 1
    40   42   40 1
    41   43   40 1
    42   44   45 1
    43   45    5 2
    44   46   45 1
    45   47   46 1
    46   48   46 1
    47   49   48 1
    48   50   48 1
    49   51   48 1
    50   52   51 1
    51   53   52 1
    52   54   52 1
    53   55   44 1
    54   56   55 1
    55   57   44 1
    56   58   57 1
    57   59   57 1
    58   60   46 1
    59   61   60 1
    60   62   44 1
    61   63   62 1
    62   64   62 1
    63   65   62 1
    64   66   65 1
    65   67   65 1
    66   68   55 1
    67   69   68 1
    68   70   51 2
    69   71   70 1
    70   72   70 1
    71   73   60 1
    72   74   73 1
    73   75   73 1
    74   76   73 1
    75   77   68 1
    76   78   77 1
    77   79   77 1
    78   80   77 1
    79   15   18 1
    80   20   23 1
    81   28   31 1
    82   52   55 1
    83   57   60 1
    84   65   68 1
@<TRIPOS>SUBSTRUCTURE
     1 RES1 1
     2 RES2 3
     3 SUP3 81

@<TRIPOS>CRYSIN
   7.6253    8.7566   11.3598 102.1720  95.5980 109.5130   1 1

