# MOL2 file generated by ConQuest
# Please check atom types

@<TRIPOS>MOLECULE
WIZCUD
    43    45     1
SMALL
USER_CHARGES
****
Generated from CSD

@<TRIPOS>ATOM
      1 O1         3.5660    2.6037   19.9128 O.3       1 RES1    0.0000
      2 O2         1.9055    2.2767   21.3710 O.2       1 RES1   -1.0000
      3 O3         6.2734    0.2753   17.5724 O.2       1 RES1    0.0000
      4 O4         7.3067    1.2766   15.8633 O.3       1 RES1    0.0000
      5 O5         1.3144   -1.2580   19.2069 O.2       1 RES1    0.0000
      6 N1         2.4348    1.8510   20.3450 N.pl3     1 RES1    1.0000
      7 C1         4.2445    1.7958   18.9120 C.3       1 RES1    0.0000
      8 C2         3.1964    0.7562   18.4495 C.3       1 RES1    0.0000
      9 C3         2.1966    0.8282   19.5569 C.2       1 RES1    0.0000
     10 C4         4.7659    2.7286   17.8819 C.2       1 RES1    0.0000
     11 C5         5.7164    2.5079   16.9937 C.2       1 RES1    0.0000
     12 C6         6.4372    1.2388   16.8748 C.2       1 RES1    0.0000
     13 C7         8.1241    0.1086   15.6827 C.3       1 RES1    0.0000
     14 C8         2.5684    0.9914   17.0821 C.ar      1 RES1    0.0000
     15 C9         2.8249    0.1220   16.0415 C.ar      1 RES1    0.0000
     16 C10        2.2587    0.3276   14.7944 C.ar      1 RES1    0.0000
     17 C11        1.4339    1.4003   14.5782 C.ar      1 RES1    0.0000
     18 C12        1.1774    2.2703   15.6028 C.ar      1 RES1    0.0000
     19 C13        1.7385    2.0706   16.8557 C.ar      1 RES1    0.0000
     20 C14        1.1665   -0.1905   19.7825 C.2       1 RES1    0.0000
     21 C15       -0.0217    0.0540   20.6452 C.ar      1 RES1    0.0000
     22 C16       -0.4523   -0.9566   21.4836 C.ar      1 RES1    0.0000
     23 C17       -1.6127   -0.8021   22.2102 C.ar      1 RES1    0.0000
     24 C18       -2.3671    0.3462   22.0699 C.ar      1 RES1    0.0000
     25 C19       -1.9412    1.3521   21.2343 C.ar      1 RES1    0.0000
     26 C20       -0.7572    1.2174   20.5311 C.ar      1 RES1    0.0000
     27 H1         4.9456    1.3300   19.3467 H         1 RES1    0.0000
     28 H2         3.6163   -0.0755   18.4449 H         1 RES1    0.0000
     29 H3         4.3981    3.5545   17.8819 H         1 RES1    0.0000
     30 H4         5.9986    3.1712   16.3625 H         1 RES1    0.0000
     31 H5         8.6511   -0.0401   16.4697 H         1 RES1    0.0000
     32 H6         7.5758   -0.6540   15.5327 H         1 RES1    0.0000
     33 H7         8.7067    0.2283   14.9425 H         1 RES1    0.0000
     34 H8         3.3860   -0.6331   16.1853 H         1 RES1    0.0000
     35 H9         2.4420   -0.2672   14.0835 H         1 RES1    0.0000
     36 H10        1.0783    1.5333   13.7134 H         1 RES1    0.0000
     37 H11        0.6288    3.0260   15.4392 H         1 RES1    0.0000
     38 H12        1.5435    2.6601   17.5293 H         1 RES1    0.0000
     39 H13        0.0764   -1.7424   21.5343 H         1 RES1    0.0000
     40 H14       -1.9135   -1.4985   22.8296 H         1 RES1    0.0000
     41 H15       -3.1835    0.4646   22.5959 H         1 RES1    0.0000
     42 H16       -2.4681    2.1548   21.1154 H         1 RES1    0.0000
     43 H17       -0.4477    1.8934   19.9818 H         1 RES1    0.0000
@<TRIPOS>BOND
     1    1    6 1
     2    2    6 1
     3    3   12 2
     4    4   12 1
     5    5   20 2
     6    6    9 2
     7    7    1 1
     8    8    7 1
     9    9    8 1
    10   10    7 1
    11   11   10 2
    12   12   11 1
    13   13    4 1
    14   14    8 1
    15   15   14 ar
    16   16   15 ar
    17   17   16 ar
    18   18   17 ar
    19   19   14 ar
    20   20    9 1
    21   21   20 1
    22   22   21 ar
    23   23   22 ar
    24   24   23 ar
    25   25   24 ar
    26   26   21 ar
    27   27    7 1
    28   28    8 1
    29   29   10 1
    30   30   11 1
    31   31   13 1
    32   32   13 1
    33   33   13 1
    34   34   15 1
    35   35   16 1
    36   36   17 1
    37   37   18 1
    38   38   19 1
    39   39   22 1
    40   40   23 1
    41   41   24 1
    42   42   25 1
    43   43   26 1
    44   18   19 ar
    45   25   26 ar
@<TRIPOS>SUBSTRUCTURE
     1 RES1 1

@<TRIPOS>CRYSIN
  15.1970    5.8080   19.5635  90.0000  95.3210  90.0000  14 1

