# MOL2 file generated by ConQuest
# Please check atom types

@<TRIPOS>MOLECULE
WIZLAT
    30    31     1
SMALL
NO_CHARGES
****
Generated from CSD

@<TRIPOS>ATOM
      1 O1         2.5984    3.3966    7.3823 O.2       1 RES1    0.0000
      2 O2         4.4510    6.6920    8.6941 O.2       1 RES1    0.0000
      3 O3         5.1806    2.5658    0.7512 O.3       1 RES1    0.0000
      4 N1         4.9897    5.4081    4.7730 N.2       1 RES1    0.0000
      5 N2         3.5389    3.6013    5.3200 N.am      1 RES1    0.0000
      6 N3         3.8670    5.6259    8.3099 N.2       1 RES1    0.0000
      7 N4         5.4574    7.0373    6.3008 N.3       1 RES1    0.0000
      8 N5         4.6475    3.7049    3.2712 N.3       1 RES1    0.0000
      9 C1         4.4066    4.2656    4.4843 C.2       1 RES1    0.0000
     10 C2         2.6108    2.5525    4.8472 C.3       1 RES1    0.0000
     11 C3         3.3372    4.0370    6.6507 C.2       1 RES1    0.0000
     12 C4         4.0410    5.2478    7.0176 C.2       1 RES1    0.0000
     13 C5         4.8186    5.9218    6.0171 C.2       1 RES1    0.0000
     14 C6         5.0804    2.2953    3.1479 C.3       1 RES1    0.0000
     15 C7         4.6291    1.7798    1.8005 C.3       1 RES1    0.0000
     16 C8         4.8098    3.9477    0.8722 C.3       1 RES1    0.0000
     17 C9         5.2509    4.5180    2.2055 C.3       1 RES1    0.0000
     18 H1         2.5225    2.6096    3.8737 H         1 RES1    0.0000
     19 H2         1.7331    2.6822    5.2632 H         1 RES1    0.0000
     20 H3         2.9617    1.6715    5.0928 H         1 RES1    0.0000
     21 H4         5.9695    7.4181    5.6943 H         1 RES1    0.0000
     22 H5         5.3735    7.4026    7.0968 H         1 RES1    0.0000
     23 H6         4.6781    1.7524    3.8717 H         1 RES1    0.0000
     24 H7         6.0656    2.2346    3.2231 H         1 RES1    0.0000
     25 H8         4.9167    0.8381    1.6933 H         1 RES1    0.0000
     26 H9         3.6408    1.8072    1.7494 H         1 RES1    0.0000
     27 H10        3.8269    4.0334    0.7860 H         1 RES1    0.0000
     28 H11        5.2275    4.4656    0.1383 H         1 RES1    0.0000
     29 H12        6.2374    4.4942    2.2757 H         1 RES1    0.0000
     30 H13        4.9545    5.4597    2.2867 H         1 RES1    0.0000
@<TRIPOS>BOND
     1    1   11 2
     2    2    6 2
     3    3   15 1
     4    4    9 2
     5    5    9 1
     6    6   12 1
     7    7   13 1
     8    8    9 1
     9   10    5 1
    10   11    5 1
    11   12   11 1
    12   13    4 1
    13   14    8 1
    14   15   14 1
    15   16    3 1
    16   17    8 1
    17   18   10 1
    18   19   10 1
    19   20   10 1
    20   21    7 1
    21   22    7 1
    22   23   14 1
    23   24   14 1
    24   25   15 1
    25   26   15 1
    26   27   16 1
    27   28   16 1
    28   29   17 1
    29   30   17 1
    30   12   13 2
    31   16   17 1
@<TRIPOS>SUBSTRUCTURE
     1 RES1 1

@<TRIPOS>CRYSIN
   8.9122   11.9051   10.4111  90.0000 105.6490  90.0000 231 1

