# MOL2 file generated by ConQuest
# Please check atom types

@<TRIPOS>MOLECULE
WIZTOQ
    53    54     1
SMALL
NO_CHARGES
****
Generated from CSD

@<TRIPOS>ATOM
      1 O1        12.3037   10.0512    7.0214 O.2       1 RES1    0.0000
      2 O2        10.9072   11.3118    6.0667 O.2       1 RES1    0.0000
      3 O3         4.4430    0.8280    2.8214 O.3       1 RES1    0.0000
      4 N1        11.2991   10.2207    6.3868 N.pl3     1 RES1    0.0000
      5 C1        10.5023    9.0437    5.9973 C.ar      1 RES1    0.0000
      6 C2        10.9694    7.8051    6.3521 C.ar      1 RES1    0.0000
      7 C3        10.2246    6.7065    5.9546 C.ar      1 RES1    0.0000
      8 C4         9.0236    6.8433    5.2692 C.ar      1 RES1    0.0000
      9 C5         8.6253    8.1252    4.9362 C.ar      1 RES1    0.0000
     10 C6         9.3326    9.2258    5.3208 C.ar      1 RES1    0.0000
     11 C7         8.2783    5.6454    4.9016 C.2       1 RES1    0.0000
     12 C8         7.0879    5.5846    4.2767 C.2       1 RES1    0.0000
     13 C9         6.3943    4.3525    3.9421 C.ar      1 RES1    0.0000
     14 C10        6.9141    3.0774    4.1630 C.ar      1 RES1    0.0000
     15 C11        6.2477    1.9271    3.7985 C.ar      1 RES1    0.0000
     16 C12        5.0119    2.0320    3.1648 C.ar      1 RES1    0.0000
     17 C13        4.4609    3.2755    2.9221 C.ar      1 RES1    0.0000
     18 C14        5.1355    4.4247    3.2994 C.ar      1 RES1    0.0000
     19 C15        3.1715    0.8044    2.1674 C.3       1 RES1    0.0000
     20 C16        2.8631   -0.6489    1.9335 C.3       1 RES1    0.0000
     21 C17        1.5097   -0.8865    1.2417 C.3       1 RES1    0.0000
     22 C18        1.2846   -2.3730    1.0208 C.3       1 RES1    0.0000
     23 C19       -0.0492   -2.7117    0.3314 C.3       1 RES1    0.0000
     24 C20       -0.2674   -4.2134    0.1588 C.3       1 RES1    0.0000
     25 C21       -1.5538   -4.5692   -0.5491 C.3       1 RES1    0.0000
     26 C22       -1.7509   -6.0617   -0.7571 C.3       1 RES1    0.0000
     27 H1        11.7549    7.7059    6.8399 H         1 RES1    0.0000
     28 H2        10.5376    5.8545    6.1513 H         1 RES1    0.0000
     29 H3         7.8513    8.2420    4.4347 H         1 RES1    0.0000
     30 H4         9.0240   10.0819    5.1257 H         1 RES1    0.0000
     31 H5         8.6695    4.8319    5.1233 H         1 RES1    0.0000
     32 H6         6.6802    6.3868    4.0436 H         1 RES1    0.0000
     33 H7         7.7455    2.9995    4.5734 H         1 RES1    0.0000
     34 H8         6.6179    1.0911    3.9735 H         1 RES1    0.0000
     35 H9         3.6332    3.3416    2.5044 H         1 RES1    0.0000
     36 H10        4.7555    5.2577    3.1277 H         1 RES1    0.0000
     37 H11        3.2119    1.2850    1.3256 H         1 RES1    0.0000
     38 H12        2.4924    1.2127    2.7269 H         1 RES1    0.0000
     39 H13        2.8641   -1.1101    2.7866 H         1 RES1    0.0000
     40 H14        3.5662   -1.0340    1.3885 H         1 RES1    0.0000
     41 H15        0.7955   -0.5284    1.7916 H         1 RES1    0.0000
     42 H16        1.4953   -0.4258    0.3886 H         1 RES1    0.0000
     43 H17        1.3145   -2.8246    1.8795 H         1 RES1    0.0000
     44 H18        2.0116   -2.7220    0.4814 H         1 RES1    0.0000
     45 H19       -0.7779   -2.3456    0.8563 H         1 RES1    0.0000
     46 H20       -0.0695   -2.2886   -0.5410 H         1 RES1    0.0000
     47 H21        0.4765   -4.5810   -0.3427 H         1 RES1    0.0000
     48 H22       -0.2671   -4.6304    1.0345 H         1 RES1    0.0000
     49 H23       -1.5669   -4.1286   -1.4127 H         1 RES1    0.0000
     50 H24       -2.2998   -4.2274   -0.0323 H         1 RES1    0.0000
     51 H25       -2.4000   -6.3906   -0.1306 H         1 RES1    0.0000
     52 H26       -0.9162   -6.5160   -0.6217 H         1 RES1    0.0000
     53 H27       -2.0602   -6.2233   -1.6521 H         1 RES1    0.0000
@<TRIPOS>BOND
     1    1    4 2
     2    2    4 2
     3    3   16 1
     4    4    5 1
     5    5    6 ar
     6    6    7 ar
     7    7    8 ar
     8    8    9 ar
     9    9   10 ar
    10   10    5 ar
    11   11    8 1
    12   12   11 2
    13   13   12 1
    14   14   13 ar
    15   15   14 ar
    16   16   15 ar
    17   17   16 ar
    18   18   13 ar
    19   19    3 1
    20   20   19 1
    21   21   20 1
    22   22   21 1
    23   23   22 1
    24   24   23 1
    25   25   24 1
    26   26   25 1
    27   27    6 1
    28   28    7 1
    29   29    9 1
    30   30   10 1
    31   31   11 1
    32   32   12 1
    33   33   14 1
    34   34   15 1
    35   35   17 1
    36   36   18 1
    37   37   19 1
    38   38   19 1
    39   39   20 1
    40   40   20 1
    41   41   21 1
    42   42   21 1
    43   43   22 1
    44   44   22 1
    45   45   23 1
    46   46   23 1
    47   47   24 1
    48   48   24 1
    49   49   25 1
    50   50   25 1
    51   51   26 1
    52   52   26 1
    53   53   26 1
    54   17   18 ar
@<TRIPOS>SUBSTRUCTURE
     1 RES1 1

@<TRIPOS>CRYSIN
   6.3669   38.0164    8.0759  90.0000  93.2255  90.0000  14 1

