# MOL2 file generated by ConQuest
# Please check atom types

@<TRIPOS>MOLECULE
WIZWOR
    77    63     2
SMALL
USER_CHARGES
****
Generated from CSD

@<TRIPOS>ATOM
      1 O1         6.7767    7.0681   10.2329 O.2       1 RES1    0.0000
      2 O2         4.0013    8.6658   13.6954 O.2       1 RES1   -1.0000
      3 O3         6.4573   14.7805    6.4083 O.2       1 RES1    0.0000
      4 O4         2.3558   15.5832    8.3162 O.2       1 RES1    0.0000
      5 N1         5.9345    9.1955   10.2266 N.am      1 RES1    0.0000
      6 N2         4.6183    9.9851   11.9487 N.pl3     1 RES1    1.0000
      7 N3         5.3563   15.3298    6.7089 N.pl3     1 RES1    0.0000
      8 N4         3.3754   15.6913    7.5773 N.3       1 RES1    0.0000
      9 C1         5.1480    3.7656   13.7267 C.ar      1 RES1    0.0000
     10 H1         5.0845    2.9137   14.0941 H         1 RES1    0.0000
     11 C2         5.5318    4.8151   14.5033 C.ar      1 RES1    0.0000
     12 H2         5.7332    4.6753   15.4008 H         1 RES1    0.0000
     13 C3         5.6251    6.1059   13.9626 C.ar      1 RES1    0.0000
     14 H3         5.8859    6.8202   14.4991 H         1 RES1    0.0000
     15 C4         5.3235    6.3123   12.6121 C.ar      1 RES1    0.0000
     16 C5         4.9555    5.2191   11.8481 C.ar      1 RES1    0.0000
     17 H4         4.7730    5.3360   10.9442 H         1 RES1    0.0000
     18 C6         4.8544    3.9632   12.3950 C.ar      1 RES1    0.0000
     19 H5         4.5875    3.2457   11.8669 H         1 RES1    0.0000
     20 C7         5.3483    7.6840   12.0213 C.2       1 RES1    0.0000
     21 C8         6.0595    7.8719   10.8273 C.2       1 RES1    0.0000
     22 C9         5.2253   10.1696   10.7752 C.2       1 RES1    0.0000
     23 C10        4.6302    8.7106   12.6392 C.2       1 RES1    0.0000
     24 C11        6.6289    9.3746    8.9445 C.3       1 RES1    0.0000
     25 H6         7.0861    8.5632    8.7107 H         1 RES1    0.0000
     26 H7         7.2657   10.0888    9.0217 H         1 RES1    0.0000
     27 H8         5.9891    9.5886    8.2598 H         1 RES1    0.0000
     28 C12        3.8833   11.0673   12.5995 C.3       1 RES1    0.0000
     29 H9         3.5173   10.7517   13.4282 H         1 RES1    0.0000
     30 H10        3.1721   11.3622   12.0276 H         1 RES1    0.0000
     31 H11        4.4794   11.8001   12.7728 H         1 RES1    0.0000
     32 C13        5.0279   11.4529   10.0216 C.ar      1 RES1    0.0000
     33 C14        6.0794   12.3364    9.8150 C.ar      1 RES1    0.0000
     34 H12        6.9096   12.1715   10.1990 H         1 RES1    0.0000
     35 C15        5.8909   13.4579    9.0364 C.ar      1 RES1    0.0000
     36 H13        6.6001   14.0379    8.8819 H         1 RES1    0.0000
     37 C16        4.6500   13.7244    8.4832 C.ar      1 RES1    0.0000
     38 C17        3.5937   12.8628    8.7253 C.ar      1 RES1    0.0000
     39 H14        2.7505   13.0528    8.3809 H         1 RES1    0.0000
     40 C18        3.7900   11.7281    9.4747 C.ar      1 RES1    0.0000
     41 H15        3.0838   11.1394    9.6125 H         1 RES1    0.0000
     42 C19        4.4735   14.9006    7.6211 C.2       1 RES1    0.0000
     43 C20        4.8554   16.5235    5.9804 C.3       1 RES1    0.0000
     44 C21        3.6085   16.9265    6.7903 C.3       1 RES1    0.0000
     45 C22        5.9236   17.5970    5.8238 C.3       1 RES1    0.0000
     46 H16        6.1686   17.9334    6.6901 H         1 RES1    0.0000
     47 H17        5.5794   18.3156    5.2895 H         1 RES1    0.0000
     48 H18        6.6953   17.2202    5.3980 H         1 RES1    0.0000
     49 C23        4.5211   16.0440    4.5714 C.3       1 RES1    0.0000
     50 H19        3.8466   15.3615    4.6173 H         1 RES1    0.0000
     51 H20        5.3106   15.6858    4.1602 H         1 RES1    0.0000
     52 H21        4.1938   16.7812    4.0516 H         1 RES1    0.0000
     53 C24        2.3577   17.3415    6.0681 C.3       1 RES1    0.0000
     54 H22        1.6763   17.5599    6.7089 H         1 RES1    0.0000
     55 H23        2.0552   16.6196    5.5128 H         1 RES1    0.0000
     56 H24        2.5422   18.1092    5.5233 H         1 RES1    0.0000
     57 C25        3.9398   18.0917    7.8444 C.3       1 RES1    0.0000
     58 H25        4.7363   17.8657    8.3308 H         1 RES1    0.0000
     59 H26        3.2068   18.1856    8.4581 H         1 RES1    0.0000
     60 H27        4.0737   18.9184    7.3748 H         1 RES1    0.0000
     61 C26        3.3179   16.4219    6.1871 Du        2 SUP2    0.0000
     62 C27        5.5566   17.6199    6.7193 Du        2 SUP2    0.0000
     63 H28        5.2819   17.6123    7.6399 Du        2 SUP2    0.0000
     64 H29        5.3325   18.4663    6.3248 Du        2 SUP2    0.0000
     65 H30        6.5059   17.4845    6.6672 Du        2 SUP2    0.0000
     66 C28        5.2829   16.5377    4.5547 Du        2 SUP2    0.0000
     67 H31        4.8335   15.8355    4.0788 Du        2 SUP2    0.0000
     68 H32        6.2321   16.4022    4.5025 Du        2 SUP2    0.0000
     69 H33        5.0587   17.3840    4.1602 Du        2 SUP2    0.0000
     70 C29        2.5670   15.6465    5.1788 Du        2 SUP2    0.0000
     71 H34        3.0045   14.8045    5.0327 Du        2 SUP2    0.0000
     72 H35        2.5333   16.1391    4.3564 Du        2 SUP2    0.0000
     73 H36        1.6733   15.4914    5.4961 Du        2 SUP2    0.0000
     74 C30        2.7396   17.7870    6.5252 Du        2 SUP2    0.0000
     75 H37        3.2921   18.2140    7.1827 Du        2 SUP2    0.0000
     76 H38        1.8519   17.6800    6.8717 Du        2 SUP2    0.0000
     77 H39        2.7109   18.3276    5.7320 Du        2 SUP2    0.0000
@<TRIPOS>BOND
     1    1   21 2
     2    2   23 1
     3    3    7 1
     4    4    8 1
     5    5   21 1
     6    6   22 2
     7    7   42 2
     8    8   42 1
     9    9   10 1
    10   11    9 ar
    11   12   11 1
    12   13   11 ar
    13   14   13 1
    14   15   13 ar
    15   16   15 ar
    16   17   16 1
    17   18    9 ar
    18   19   18 1
    19   20   15 1
    20   21   20 1
    21   22    5 1
    22   23    6 1
    23   24    5 1
    24   25   24 1
    25   26   24 1
    26   27   24 1
    27   28    6 1
    28   29   28 1
    29   30   28 1
    30   31   28 1
    31   32   22 1
    32   33   32 ar
    33   34   33 1
    34   35   33 ar
    35   36   35 1
    36   37   35 ar
    37   38   37 ar
    38   39   38 1
    39   40   32 ar
    40   41   40 1
    41   42   37 1
    42   43    7 1
    43   44    8 1
    44   45   43 1
    45   46   45 1
    46   47   45 1
    47   48   45 1
    48   49   43 1
    49   50   49 1
    50   51   49 1
    51   52   49 1
    52   53   44 1
    53   54   53 1
    54   55   53 1
    55   56   53 1
    56   57   44 1
    57   58   57 1
    58   59   57 1
    59   60   57 1
    60   16   18 ar
    61   20   23 2
    62   38   40 ar
    63   43   44 1
@<TRIPOS>SUBSTRUCTURE
     1 RES1 1
     2 SUP2 61

@<TRIPOS>CRYSIN
   9.9190   10.9210   20.8740  90.0000  90.0000  90.0000  19 1

