# MOL2 file generated by ConQuest
# Please check atom types

@<TRIPOS>MOLECULE
WOBHUQ
    35    36     1
SMALL
NO_CHARGES
****
Generated from CSD

@<TRIPOS>ATOM
      1 N1         2.6689    2.8527   31.4065 N.2       1 RES1    0.0000
      2 N2         2.5960    5.0153   36.5854 N.pl3     1 RES1    0.0000
      3 O1         3.6404    5.2532   37.1537 O.2       1 RES1    0.0000
      4 O2         1.5172    5.2281   37.0939 O.2       1 RES1    0.0000
      5 O3         3.9809    1.7432   22.7353 O.3       1 RES1    0.0000
      6 C1         2.7115    3.4173   32.6985 C.ar      1 RES1    0.0000
      7 C2         3.8809    3.7015   33.3708 C.ar      1 RES1    0.0000
      8 H1         4.7171    3.5335   33.0212 H         1 RES1    0.0000
      9 C3         3.8434    4.2296   34.6441 C.ar      1 RES1    0.0000
     10 H2         4.6130    4.4150   35.1170 H         1 RES1    0.0000
     11 C4         2.6272    4.4606   35.2372 C.ar      1 RES1    0.0000
     12 C5         1.4505    4.1757   34.5901 C.ar      1 RES1    0.0000
     13 H3         0.6248    4.3542   35.0449 H         1 RES1    0.0000
     14 C6         1.4995    3.6338   33.3283 C.ar      1 RES1    0.0000
     15 H4         0.7289    3.3740   32.8951 H         1 RES1    0.0000
     16 C7         3.4977    3.2395   30.5314 C.2       1 RES1    0.0000
     17 H5         4.1444    3.9211   30.7057 H         1 RES1    0.0000
     18 C8         3.4519    2.7090   29.1821 C.2       1 RES1    0.0000
     19 H6         2.7907    2.0365   29.0421 H         1 RES1    0.0000
     20 C9         4.2131    3.1308   28.1785 C.2       1 RES1    0.0000
     21 H7         4.8837    3.7843   28.4119 H         1 RES1    0.0000
     22 C10        4.1204    2.7265   26.7760 C.ar      1 RES1    0.0000
     23 C11        5.0659    3.1665   25.8545 C.ar      1 RES1    0.0000
     24 H8         5.7584    3.7083   26.1433 H         1 RES1    0.0000
     25 C12        4.9930    2.8215   24.5300 C.ar      1 RES1    0.0000
     26 H9         5.6438    3.1384   23.9430 H         1 RES1    0.0000
     27 C13        3.9674    2.0221   24.0716 C.ar      1 RES1    0.0000
     28 C14        3.0073    1.5738   24.9621 C.ar      1 RES1    0.0000
     29 H10        2.3221    0.9955   24.6957 H         1 RES1    0.0000
     30 C15        3.0916    1.9355   26.2895 C.ar      1 RES1    0.0000
     31 H11        2.4158    1.6262   26.8995 H         1 RES1    0.0000
     32 C16        2.9729    0.8997   22.2124 C.3       1 RES1    0.0000
     33 H12        3.1760    0.7979   21.2711 H         1 RES1    0.0000
     34 H13        2.1034    1.2614   22.3586 H         1 RES1    0.0000
     35 H14        3.0094   -0.0304   22.6575 H         1 RES1    0.0000
@<TRIPOS>BOND
     1    1    6 1
     2    2    3 2
     3    4    2 2
     4    5   27 1
     5    6    7 ar
     6    7    8 1
     7    9    7 ar
     8   10    9 1
     9   11    2 1
    10   12   11 ar
    11   13   12 1
    12   14    6 ar
    13   15   14 1
    14   16    1 2
    15   17   16 1
    16   18   16 1
    17   19   18 1
    18   20   18 2
    19   21   20 1
    20   22   20 1
    21   23   22 ar
    22   24   23 1
    23   25   23 ar
    24   26   25 1
    25   27   25 ar
    26   28   27 ar
    27   29   28 1
    28   30   22 ar
    29   31   30 1
    30   32    5 1
    31   33   32 1
    32   34   32 1
    33   35   32 1
    34    9   11 ar
    35   12   14 ar
    36   28   30 ar
@<TRIPOS>SUBSTRUCTURE
     1 RES1 1

@<TRIPOS>CRYSIN
  10.4130    7.5990   36.0100  90.0000  90.0000  90.0000  61 1

