# MOL2 file generated by ConQuest
# Please check atom types

@<TRIPOS>MOLECULE
WOBJUT
    85    82     3
SMALL
NO_CHARGES
****
Generated from CSD

@<TRIPOS>ATOM
      1 O1         1.7365    3.6734   10.3429 O.3       1 RES1    0.0000
      2 N1         0.7429    4.5859    9.8648 N.2       1 RES1    0.0000
      3 C1        -1.5831    5.2667   10.0821 C.3       1 RES1    0.0000
      4 C2        -0.3699    4.4502   10.4700 C.2       1 RES1    0.0000
      5 C3        -0.7155    3.4871   11.5687 C.3       1 RES1    0.0000
      6 H1         0.0938    3.3165   12.1310 H         1 RES1    0.0000
      7 C4        -1.2107    2.1555   10.9532 C.3       1 RES1    0.0000
      8 H2        -0.4306    1.6910   10.5578 H         1 RES1    0.0000
      9 H3        -1.5520    1.5850   11.6882 H         1 RES1    0.0000
     10 C5        -2.2845    2.2491    9.8971 C.2       1 RES1    0.0000
     11 C6        -1.9946    3.0880    8.6723 C.3       1 RES1    0.0000
     12 H4        -2.5349    2.7435    7.9178 H         1 RES1    0.0000
     13 H5        -1.0412    2.9778    8.4314 H         1 RES1    0.0000
     14 C7        -2.2878    4.5827    8.8437 C.3       1 RES1    0.0000
     15 H6        -3.2740    4.6730    8.9822 H         1 RES1    0.0000
     16 C8        -2.4798    5.1831   11.3508 C.3       1 RES1    0.0000
     17 H7        -2.6336    6.0890   11.7206 H         1 RES1    0.0000
     18 H8        -3.3576    4.7848   11.1230 H         1 RES1    0.0000
     19 C9        -1.7520    4.3061   12.3827 C.3       1 RES1    0.0000
     20 H9        -1.2421    4.9173   12.9878 H         1 RES1    0.0000
     21 C10       -1.2632    6.7068    9.5829 C.3       1 RES1    0.0000
     22 H10       -1.5961    7.3792   10.2278 H         1 RES1    0.0000
     23 H11       -0.2863    6.8269    9.4742 H         1 RES1    0.0000
     24 C11       -1.9727    6.8567    8.2395 C.3       1 RES1    0.0000
     25 H12       -2.9081    7.1573    8.3642 H         1 RES1    0.0000
     26 H13       -1.5004    7.5051    7.6597 H         1 RES1    0.0000
     27 C12       -1.9235    5.4564    7.6449 C.3       1 RES1    0.0000
     28 H14       -0.9793    5.2560    7.3825 H         1 RES1    0.0000
     29 C13       -3.4150    1.5643   10.0034 C.2       1 RES1    0.0000
     30 H15       -4.0574    1.5957    9.3038 H         1 RES1    0.0000
     31 H16       -3.5825    1.0417   10.7786 H         1 RES1    0.0000
     32 C14       -2.6949    3.4822   13.2555 C.3       1 RES1    0.0000
     33 H17       -3.2673    4.0834   13.7751 H         1 RES1    0.0000
     34 H18       -2.1695    2.9224   13.8651 H         1 RES1    0.0000
     35 H19       -3.2510    2.9116   12.6854 H         1 RES1    0.0000
     36 C15       -2.8163    5.2551    6.4264 C.3       1 RES1    0.0000
     37 H20       -3.7492    5.4265    6.6733 H         1 RES1    0.0000
     38 H21       -2.7277    4.3343    6.1045 H         1 RES1    0.0000
     39 H22       -2.5467    5.8770    5.7181 H         1 RES1    0.0000
     40 O2         4.7357    1.4344    4.2273 O.3       2 RES2    0.0000
     41 N2         3.7556    0.5060    3.7772 N.2       2 RES2    0.0000
     42 C16        1.4765   -0.2791    4.1220 C.3       2 RES2    0.0000
     43 C17        2.6539    0.6169    4.4037 C.2       2 RES2    0.0000
     44 C18        2.2974    1.5850    5.5105 C.3       2 RES2    0.0000
     45 H23        3.0723    1.6819    6.1357 H         2 RES2    0.0000
     46 C19        1.9355    2.9605    4.9177 C.3       2 RES2    0.0000
     47 H24        1.7587    3.5956    5.6569 H         2 RES2    0.0000
     48 H25        2.7060    3.3033    4.4005 H         2 RES2    0.0000
     49 C20        0.7376    2.9000    4.0285 C.2       2 RES2    0.0000
     50 C21        0.7527    1.9568    2.8634 C.3       2 RES2    0.0000
     51 H26        1.6457    2.0015    2.4396 H         2 RES2    0.0000
     52 H27        0.0930    2.2756    2.1972 H         2 RES2    0.0000
     53 C22        0.4388    0.4654    3.1839 C.3       2 RES2    0.0000
     54 H28       -0.4410    0.4513    3.6577 H         2 RES2    0.0000
     55 C23        0.9485   -0.4563    5.5561 C.3       2 RES2    0.0000
     56 H29        1.4679   -1.1502    6.0337 H         2 RES2    0.0000
     57 H30       -0.0036   -0.7262    5.5441 H         2 RES2    0.0000
     58 C24        1.1120    0.9126    6.2504 C.3       2 RES2    0.0000
     59 H31        0.2879    1.4525    6.0805 H         2 RES2    0.0000
     60 C25        1.7971   -1.5957    3.3945 C.3       2 RES2    0.0000
     61 H32        1.8891   -2.3410    4.0393 H         2 RES2    0.0000
     62 H33        2.6368   -1.5154    2.8765 H         2 RES2    0.0000
     63 C26        0.2932   -0.4339    1.9500 C.3       2 RES2    0.0000
     64 H34       -0.6603   -0.4025    1.6512 H         2 RES2    0.0000
     65 C27       -0.3328    3.6677    4.2601 C.2       2 RES2    0.0000
     66 H35       -0.3386    4.2631    5.0005 H         2 RES2    0.0000
     67 H36       -1.0881    3.6171    3.6853 H         2 RES2    0.0000
     68 C28        1.3318    0.8322    7.7617 C.3       2 RES2    0.0000
     69 H37        0.5352    0.4521    8.1878 H         2 RES2    0.0000
     70 H38        1.4941    1.7307    8.1170 H         2 RES2    0.0000
     71 H39        2.1062    0.2617    7.9490 H         2 RES2    0.0000
     72 C29        0.5860   -1.8284    2.4516 C.3       2 RES2    0.0000
     73 H40        0.8218   -2.4354    1.7064 H         2 RES2    0.0000
     74 H41       -0.1868   -2.2027    2.9437 H         2 RES2    0.0000
     75 C30        1.1804   -0.0563    0.7596 C.3       2 RES2    0.0000
     76 H42        1.0691   -0.7180    0.0456 H         2 RES2    0.0000
     77 H43        2.1188   -0.0389    1.0440 H         2 RES2    0.0000
     78 H44        0.9233    0.8289    0.4272 H         2 RES2    0.0000
     79 C31        1.5854   -1.2554    1.9512 Du        3 SUP3    0.0000
     80 H45        1.4852   -2.0744    1.4040 Du        3 SUP3    0.0000
     81 H46        2.3430   -0.7238    1.5972 Du        3 SUP3    0.0000
     82 C32       -0.0440    0.1896    0.6384 Du        3 SUP3    0.0000
     83 H47        0.6617    0.8198    0.3852 Du        3 SUP3    0.0000
     84 H48       -0.8965    0.6674    0.7128 Du        3 SUP3    0.0000
     85 H49       -0.1201   -0.5076   -0.0456 Du        3 SUP3    0.0000
@<TRIPOS>BOND
     1    1    2 1
     2    2    4 2
     3    3    4 1
     4    4    5 1
     5    5    6 1
     6    7    5 1
     7    8    7 1
     8    9    7 1
     9   10    7 1
    10   11   10 1
    11   12   11 1
    12   13   11 1
    13   14    3 1
    14   15   14 1
    15   16    3 1
    16   17   16 1
    17   18   16 1
    18   19    5 1
    19   20   19 1
    20   21    3 1
    21   22   21 1
    22   23   21 1
    23   24   21 1
    24   25   24 1
    25   26   24 1
    26   27   14 1
    27   28   27 1
    28   29   10 2
    29   30   29 1
    30   31   29 1
    31   32   19 1
    32   33   32 1
    33   34   32 1
    34   35   32 1
    35   36   27 1
    36   37   36 1
    37   38   36 1
    38   39   36 1
    39   40   41 1
    40   41   43 2
    41   42   43 1
    42   43   44 1
    43   44   45 1
    44   46   44 1
    45   47   46 1
    46   48   46 1
    47   49   46 1
    48   50   49 1
    49   51   50 1
    50   52   50 1
    51   53   42 1
    52   54   53 1
    53   55   42 1
    54   56   55 1
    55   57   55 1
    56   58   44 1
    57   59   58 1
    58   60   42 1
    59   61   60 1
    60   62   60 1
    61   63   53 1
    62   64   63 1
    63   65   49 2
    64   66   65 1
    65   67   65 1
    66   68   58 1
    67   69   68 1
    68   70   68 1
    69   71   68 1
    70   72   60 1
    71   73   72 1
    72   74   72 1
    73   75   63 1
    74   76   75 1
    75   77   75 1
    76   78   75 1
    77   11   14 1
    78   16   19 1
    79   24   27 1
    80   50   53 1
    81   55   58 1
    82   63   72 1
@<TRIPOS>SUBSTRUCTURE
     1 RES1 1
     2 RES2 40
     3 SUP3 79

@<TRIPOS>CRYSIN
  13.5370    8.2810   13.6480  90.0000 118.4460  90.0000   4 1

