# MOL2 file generated by ConQuest
# Please check atom types

@<TRIPOS>MOLECULE
WOBJEC
    39    40     1
SMALL
NO_CHARGES
****
Generated from CSD

@<TRIPOS>ATOM
      1 N1         2.9237    5.2919   -1.0521 N.2       1 RES1    0.0000
      2 N2         4.9177    5.5015   -6.2987 N.pl3     1 RES1    0.0000
      3 N3        -1.9404    5.4850    6.3350 N.3       1 RES1    0.0000
      4 O1         4.3448    4.9098   -7.1815 O.2       1 RES1    0.0000
      5 O2         5.9637    6.0861   -6.4760 O.2       1 RES1    0.0000
      6 C1         3.3246    5.3740   -2.4005 C.ar      1 RES1    0.0000
      7 C2         2.6611    4.7523   -3.4489 C.ar      1 RES1    0.0000
      8 H1         1.9029    4.2501   -3.2851 H         1 RES1    0.0000
      9 C3         3.1717    4.7962   -4.7258 C.ar      1 RES1    0.0000
     10 H2         2.6967    4.3373   -5.4638 H         1 RES1    0.0000
     11 C4         4.3450    5.4826   -4.9465 C.ar      1 RES1    0.0000
     12 C5         5.0194    6.1332   -3.9353 C.ar      1 RES1    0.0000
     13 H3         5.8186    6.5980   -4.1228 H         1 RES1    0.0000
     14 C6         4.5026    6.0678   -2.6720 C.ar      1 RES1    0.0000
     15 H4         4.9300    6.5325   -1.9339 H         1 RES1    0.0000
     16 C7         1.6855    5.2883   -0.7533 C.2       1 RES1    0.0000
     17 H5         0.9455    5.3611   -1.4559 H         1 RES1    0.0000
     18 C8         1.2405    5.1762    0.6114 C.2       1 RES1    0.0000
     19 H6         1.9289    5.0036    1.2330 H         1 RES1    0.0000
     20 C9        -0.0201    5.3623    1.0033 C.2       1 RES1    0.0000
     21 H7        -0.6475    5.6139    0.3885 H         1 RES1    0.0000
     22 C10       -0.5083    5.3612    2.3772 C.ar      1 RES1    0.0000
     23 C11       -1.7425    5.9319    2.6872 C.ar      1 RES1    0.0000
     24 H8        -2.2360    6.2641    1.9474 H         1 RES1    0.0000
     25 C12       -2.2102    6.0056    3.9779 C.ar      1 RES1    0.0000
     26 H9        -3.0441    6.4239    4.1380 H         1 RES1    0.0000
     27 C13       -1.4755    5.4716    5.0450 C.ar      1 RES1    0.0000
     28 C14       -0.2321    4.8915    4.7291 C.ar      1 RES1    0.0000
     29 H10        0.3331    4.5118    5.4368 H         1 RES1    0.0000
     30 C15        0.2303    4.8483    3.4404 C.ar      1 RES1    0.0000
     31 H11        1.0830    4.4678    3.2800 H         1 RES1    0.0000
     32 C16       -1.0703    5.1001    7.4382 C.3       1 RES1    0.0000
     33 H12       -1.5275    5.1770    8.2760 H         1 RES1    0.0000
     34 H13       -0.2408    5.6274    7.4315 H         1 RES1    0.0000
     35 H14       -0.7802    4.1676    7.3335 H         1 RES1    0.0000
     36 C17       -3.1441    6.2065    6.6715 C.3       1 RES1    0.0000
     37 H15       -3.4376    6.0401    7.5328 H         1 RES1    0.0000
     38 H16       -3.8952    5.9847    6.0634 H         1 RES1    0.0000
     39 H17       -2.9510    7.1969    6.6208 H         1 RES1    0.0000
@<TRIPOS>BOND
     1    1    6 1
     2    2    4 2
     3    3   27 1
     4    5    2 2
     5    6    7 ar
     6    7    8 1
     7    9    7 ar
     8   10    9 1
     9   11    2 1
    10   12   11 ar
    11   13   12 1
    12   14    6 ar
    13   15   14 1
    14   16    1 2
    15   17   16 1
    16   18   16 1
    17   19   18 1
    18   20   18 2
    19   21   20 1
    20   22   20 1
    21   23   22 ar
    22   24   23 1
    23   25   23 ar
    24   26   25 1
    25   27   25 ar
    26   28   27 ar
    27   29   28 1
    28   30   22 ar
    29   31   30 1
    30   32    3 1
    31   33   32 1
    32   34   32 1
    33   35   32 1
    34   36    3 1
    35   37   36 1
    36   38   36 1
    37   39   36 1
    38    9   11 ar
    39   12   14 ar
    40   28   30 ar
@<TRIPOS>SUBSTRUCTURE
     1 RES1 1

@<TRIPOS>CRYSIN
   6.1650    7.2730   17.1580  90.7000 100.1000  91.3700   2 1

