# MOL2 file generated by ConQuest
# Please check atom types

@<TRIPOS>MOLECULE
WOBJIG
    42    43     1
SMALL
NO_CHARGES
****
Generated from CSD

@<TRIPOS>ATOM
      1 N1         5.6087   -2.0470   -0.9676 N.2       1 RES1    0.0000
      2 N2        10.4624   -3.8847   -3.0677 N.pl3     1 RES1    0.0000
      3 N3        -2.0450   -1.1379    3.3493 N.3       1 RES1    0.0000
      4 O1        11.3253   -4.2792   -2.3033 O.2       1 RES1    0.0000
      5 O2        10.5900   -3.8563   -4.2767 O.2       1 RES1    0.0000
      6 C1         6.8051   -2.5885   -1.4634 C.ar      1 RES1    0.0000
      7 C2         7.8114   -3.0296   -0.6377 C.ar      1 RES1    0.0000
      8 H1         7.6849   -3.0319    0.2836 H         1 RES1    0.0000
      9 C3         9.0008   -3.4647   -1.1657 C.ar      1 RES1    0.0000
     10 H2         9.6766   -3.7768   -0.6085 H         1 RES1    0.0000
     11 C4         9.1812   -3.4354   -2.5125 C.ar      1 RES1    0.0000
     12 C5         8.1808   -3.0239   -3.3624 C.ar      1 RES1    0.0000
     13 H3         8.3114   -3.0491   -4.2827 H         1 RES1    0.0000
     14 C6         6.9848   -2.5727   -2.8444 C.ar      1 RES1    0.0000
     15 C7         4.9606   -2.6363   -0.0332 C.2       1 RES1    0.0000
     16 H4         5.2786   -3.4468    0.2937 H         1 RES1    0.0000
     17 C8         3.7765   -2.0923    0.5180 C.2       1 RES1    0.0000
     18 H5         3.4969   -1.2611    0.2082 H         1 RES1    0.0000
     19 C9         3.0330   -2.6912    1.4524 C.2       1 RES1    0.0000
     20 H6         3.3626   -3.4931    1.7883 H         1 RES1    0.0000
     21 C10        1.7808   -2.2396    1.9995 C.ar      1 RES1    0.0000
     22 C11        1.0433   -3.0316    2.8716 C.ar      1 RES1    0.0000
     23 H7         1.4143   -3.8337    3.1602 H         1 RES1    0.0000
     24 C12       -0.1881   -2.6939    3.3232 C.ar      1 RES1    0.0000
     25 H8        -0.6433   -3.2743    3.8895 H         1 RES1    0.0000
     26 C13       -0.7951   -1.4649    2.9450 C.ar      1 RES1    0.0000
     27 C14       -0.0427   -0.6516    2.0921 C.ar      1 RES1    0.0000
     28 H9        -0.4003    0.1606    1.8145 H         1 RES1    0.0000
     29 C15        1.1883   -1.0065    1.6596 C.ar      1 RES1    0.0000
     30 H10        1.6604   -0.4165    1.1185 H         1 RES1    0.0000
     31 C16       -2.7286    0.0063    2.7982 C.3       1 RES1    0.0000
     32 H11       -3.6064    0.0703    3.1783 H         1 RES1    0.0000
     33 H12       -2.7996   -0.0932    1.8457 H         1 RES1    0.0000
     34 H13       -2.2353    0.8026    2.9973 H         1 RES1    0.0000
     35 C17       -2.8371   -2.0397    4.1580 C.3       1 RES1    0.0000
     36 H14       -3.6811   -1.6272    4.3652 H         1 RES1    0.0000
     37 H15       -2.3707   -2.2289    4.9747 H         1 RES1    0.0000
     38 H16       -2.9849   -2.8558    3.6752 H         1 RES1    0.0000
     39 C18        5.9085   -2.0634   -3.7577 C.3       1 RES1    0.0000
     40 H17        5.5952   -1.2105   -3.4399 H         1 RES1    0.0000
     41 H18        5.1790   -2.6875   -3.7718 H         1 RES1    0.0000
     42 H19        6.2612   -1.9653   -4.6458 H         1 RES1    0.0000
@<TRIPOS>BOND
     1    1    6 1
     2    2    4 2
     3    3   26 1
     4    5    2 2
     5    6    7 ar
     6    7    8 1
     7    9    7 ar
     8   10    9 1
     9   11    2 1
    10   12   11 ar
    11   13   12 1
    12   14    6 ar
    13   15    1 2
    14   16   15 1
    15   17   15 1
    16   18   17 1
    17   19   17 2
    18   20   19 1
    19   21   19 1
    20   22   21 ar
    21   23   22 1
    22   24   22 ar
    23   25   24 1
    24   26   24 ar
    25   27   26 ar
    26   28   27 1
    27   29   21 ar
    28   30   29 1
    29   31    3 1
    30   32   31 1
    31   33   31 1
    32   34   31 1
    33   35    3 1
    34   36   35 1
    35   37   35 1
    36   38   35 1
    37   39   14 1
    38   40   39 1
    39   41   39 1
    40   42   39 1
    41    9   11 ar
    42   12   14 ar
    43   27   29 ar
@<TRIPOS>SUBSTRUCTURE
     1 RES1 1

@<TRIPOS>CRYSIN
   8.4380    9.6090   10.5460  72.9500  86.1300  89.8100   2 1

