# MOL2 file generated by ConQuest
# Please check atom types

@<TRIPOS>MOLECULE
WOBKAA
    80    84     2
SMALL
NO_CHARGES
****
Generated from CSD

@<TRIPOS>ATOM
      1 O1         5.8021    4.0477   18.4992 O.3       1 RES1    0.0000
      2 N1         6.2366    2.6966   18.6207 N.2       1 RES1    0.0000
      3 C1         6.1562    0.5096   17.5761 C.3       1 RES1    0.0000
      4 C2         5.8179    1.9709   17.6612 C.2       1 RES1    0.0000
      5 C3         4.9693    2.3555   16.4865 C.3       1 RES1    0.0000
      6 H1         4.2936    3.0333   16.7751 H         1 RES1    0.0000
      7 C4         5.8382    2.9482   15.3629 C.3       1 RES1    0.0000
      8 H2         5.2836    3.0051   14.5445 H         1 RES1    0.0000
      9 H3         6.0804    3.8729   15.6182 H         1 RES1    0.0000
     10 C5         7.1166    2.2111   15.0105 C.2       1 RES1    0.0000
     11 C6         7.2423    0.7206   15.1988 C.3       1 RES1    0.0000
     12 H4         8.0335    0.4018   14.6953 H         1 RES1    0.0000
     13 H5         6.4436    0.2826   14.8124 H         1 RES1    0.0000
     14 C7         7.3828    0.2852   16.6643 C.3       1 RES1    0.0000
     15 H6         8.1297    0.8249   17.0519 H         1 RES1    0.0000
     16 C8         4.8538   -0.0396   16.9794 C.3       1 RES1    0.0000
     17 H7         5.0405   -0.8517   16.4442 H         1 RES1    0.0000
     18 H8         4.2224   -0.2799   17.7024 H         1 RES1    0.0000
     19 C9         4.2446    1.0494   16.0886 C.3       1 RES1    0.0000
     20 H9         4.4674    0.8410   15.1365 H         1 RES1    0.0000
     21 C10        6.6054   -0.2006   18.8561 C.3       1 RES1    0.0000
     22 H10        7.1480    0.4058   19.4197 H         1 RES1    0.0000
     23 H11        5.8225   -0.5062   19.3792 H         1 RES1    0.0000
     24 C11        7.4392   -1.3914   18.3902 C.3       1 RES1    0.0000
     25 H12        6.9382   -2.2351   18.5239 H         1 RES1    0.0000
     26 H13        8.2831   -1.4423   18.9066 H         1 RES1    0.0000
     27 C12        7.7405   -1.1814   16.8923 C.3       1 RES1    0.0000
     28 H14        7.1036   -1.7436   16.3654 H         1 RES1    0.0000
     29 C13        8.1565    2.8927   14.5394 C.2       1 RES1    0.0000
     30 H15        8.9634    2.4400   14.3262 H         1 RES1    0.0000
     31 H16        8.0918    3.8314   14.4162 H         1 RES1    0.0000
     32 C14        2.7268    1.1397   16.2232 C.3       1 RES1    0.0000
     33 H17        2.3931    1.8762   15.6699 H         1 RES1    0.0000
     34 H18        2.4911    1.3017   17.1599 H         1 RES1    0.0000
     35 H19        2.3220    0.2986   15.9243 H         1 RES1    0.0000
     36 C15        9.1492   -1.5691   16.4993 C.3       1 RES1    0.0000
     37 H20        9.7898   -1.0593   17.0384 H         1 RES1    0.0000
     38 H21        9.2888   -1.3713   15.5506 H         1 RES1    0.0000
     39 H22        9.2795   -2.5271   16.6558 H         1 RES1    0.0000
     40 O2         7.7494    3.1439   20.9205 O.3       2 RES2    0.0000
     41 N2         6.9019    4.2758   21.0457 N.2       2 RES2    0.0000
     42 C16        6.2421    6.0759   22.5319 C.3       2 RES2    0.0000
     43 C17        7.0066    4.8272   22.1880 C.2       2 RES2    0.0000
     44 C18        7.8533    4.4157   23.3534 C.3       2 RES2    0.0000
     45 H23        7.9004    3.4176   23.3901 H         2 RES2    0.0000
     46 C19        9.2768    4.9847   23.2461 C.3       2 RES2    0.0000
     47 H24        9.6964    4.9282   24.1419 H         2 RES2    0.0000
     48 H25        9.7953    4.3979   22.6406 H         2 RES2    0.0000
     49 C20        9.4210    6.4106   22.7509 C.2       2 RES2    0.0000
     50 C21        8.3848    7.4519   23.0930 C.3       2 RES2    0.0000
     51 H26        8.7712    8.3512   22.9422 H         2 RES2    0.0000
     52 H27        8.1574    7.3763   24.0541 H         2 RES2    0.0000
     53 C22        7.1046    7.3140   22.2647 C.3       2 RES2    0.0000
     54 H28        7.3930    7.2544   21.3081 H         2 RES2    0.0000
     55 C23        5.9528    5.8485   24.0296 C.3       2 RES2    0.0000
     56 H29        5.9510    6.7120   24.5132 H         2 RES2    0.0000
     57 H30        5.0673    5.4224   24.1464 H         2 RES2    0.0000
     58 C24        7.0593    4.9338   24.5803 C.3       2 RES2    0.0000
     59 H31        7.6721    5.4773   25.1547 H         2 RES2    0.0000
     60 C25        4.9989    6.4130   21.7101 C.3       2 RES2    0.0000
     61 H32        4.2289    5.8509   21.9789 H         2 RES2    0.0000
     62 H33        5.1662    6.2902   20.7432 H         2 RES2    0.0000
     63 C26        4.7512    7.8886   22.0455 C.3       2 RES2    0.0000
     64 H34        4.1559    7.9695   22.8319 H         2 RES2    0.0000
     65 H35        4.3269    8.3512   21.2789 H         2 RES2    0.0000
     66 C27        6.1358    8.5077   22.3502 C.3       2 RES2    0.0000
     67 H36        6.1349    8.8561   23.2866 H         2 RES2    0.0000
     68 C28       10.4516    6.7308   21.9872 C.2       2 RES2    0.0000
     69 H37       10.5404    7.6160   21.6548 H         2 RES2    0.0000
     70 H38       11.1042    6.0746   21.7718 H         2 RES2    0.0000
     71 C29        6.4991    3.7832   25.4109 C.3       2 RES2    0.0000
     72 H39        5.9556    3.2020   24.8374 H         2 RES2    0.0000
     73 H40        5.9417    4.1421   26.1338 H         2 RES2    0.0000
     74 H41        7.2377    3.2663   25.7939 H         2 RES2    0.0000
     75 C30        6.5278    9.6383   21.4040 C.3       2 RES2    0.0000
     76 H42        6.4834    9.3194   20.4776 H         2 RES2    0.0000
     77 H43        7.4410    9.9314   21.6052 H         2 RES2    0.0000
     78 H44        5.9103   10.3908   21.5197 H         2 RES2    0.0000
     79 H45        6.0822    4.3336   19.3950 H         1 RES1    0.0000
     80 H46        7.4225    2.7319   20.1625 H         2 RES2    0.0000
@<TRIPOS>BOND
     1    1    2 1
     2    2    4 2
     3    3    4 1
     4    4    5 1
     5    5    6 1
     6    7    5 1
     7    8    7 1
     8    9    7 1
     9   10    7 1
    10   11   10 1
    11   12   11 1
    12   13   11 1
    13   14    3 1
    14   15   14 1
    15   16    3 1
    16   17   16 1
    17   18   16 1
    18   19    5 1
    19   20   19 1
    20   21    3 1
    21   22   21 1
    22   23   21 1
    23   24   21 1
    24   25   24 1
    25   26   24 1
    26   27   14 1
    27   28   27 1
    28   29   10 2
    29   30   29 1
    30   31   29 1
    31   32   19 1
    32   33   32 1
    33   34   32 1
    34   35   32 1
    35   36   27 1
    36   37   36 1
    37   38   36 1
    38   39   36 1
    39   40   41 1
    40   41   43 2
    41   42   43 1
    42   43   44 1
    43   44   45 1
    44   46   44 1
    45   47   46 1
    46   48   46 1
    47   49   46 1
    48   50   49 1
    49   51   50 1
    50   52   50 1
    51   53   42 1
    52   54   53 1
    53   55   42 1
    54   56   55 1
    55   57   55 1
    56   58   44 1
    57   59   58 1
    58   60   42 1
    59   61   60 1
    60   62   60 1
    61   63   60 1
    62   64   63 1
    63   65   63 1
    64   66   53 1
    65   67   66 1
    66   68   49 2
    67   69   68 1
    68   70   68 1
    69   71   58 1
    70   72   71 1
    71   73   71 1
    72   74   71 1
    73   75   66 1
    74   76   75 1
    75   77   75 1
    76   78   75 1
    77   79    1 1
    78   80   40 1
    79   11   14 1
    80   16   19 1
    81   24   27 1
    82   50   53 1
    83   55   58 1
    84   63   66 1
@<TRIPOS>SUBSTRUCTURE
     1 RES1 1
     2 RES2 40

@<TRIPOS>CRYSIN
   9.2435   13.3919   22.5078  90.0000  90.0000  90.0000  19 1

