# MOL2 file generated by ConQuest
# Please check atom types

@<TRIPOS>MOLECULE
WOBLII
    50    50     1
SMALL
NO_CHARGES
****
Generated from CSD

@<TRIPOS>ATOM
      1 O1         2.1145    2.7269    1.9423 O.3       1 RES1    0.0000
      2 O2         4.9357    4.8082    1.1902 O.2       1 RES1    0.0000
      3 O3         1.4806    2.9591    7.0844 O.2       1 RES1    0.0000
      4 N1         1.5662    0.9914    6.0478 N.am      1 RES1    0.0000
      5 N2         2.7232    5.1374    0.8256 N.am      1 RES1    0.0000
      6 H1         1.7666    4.7715    0.8096 H         1 RES1    0.0000
      7 N3         1.7041    3.3923    3.1673 N.3       1 RES1    0.0000
      8 H2         0.9587    3.9916    2.8035 H         1 RES1    0.0000
      9 C1         3.7734    4.4228    1.2211 C.2       1 RES1    0.0000
     10 C2         2.1980    1.6425    4.8728 C.3       1 RES1    0.0000
     11 H3         2.8961    2.2642    5.1663 H         1 RES1    0.0000
     12 C3         1.2474    1.7503    7.1210 C.2       1 RES1    0.0000
     13 C4         1.1321    2.3869    4.0650 C.3       1 RES1    0.0000
     14 H4         0.6259    1.7469    3.5415 H         1 RES1    0.0000
     15 H5         0.5176    2.8228    4.6761 H         1 RES1    0.0000
     16 C5         2.8196    6.4932    0.2826 C.3       1 RES1    0.0000
     17 H6         3.7584    6.7719    0.2479 H         1 RES1    0.0000
     18 C6         0.5429    1.1608    8.3606 C.3       1 RES1    0.0000
     19 C7         1.4763   -0.4726    5.8785 C.3       1 RES1    0.0000
     20 H7         0.5763   -0.7903    6.0531 H         1 RES1    0.0000
     21 H8         2.0946   -0.9325    6.4689 H         1 RES1    0.0000
     22 C8         3.4745    3.0178    1.7052 C.3       1 RES1    0.0000
     23 H9         3.8106    2.3892    1.0465 H         1 RES1    0.0000
     24 H10        3.9673    2.8664    2.5281 H         1 RES1    0.0000
     25 C9         2.8185    0.4622    4.1485 C.3       1 RES1    0.0000
     26 H11        2.8912    0.6377    3.1973 H         1 RES1    0.0000
     27 H12        3.7002    0.2627    4.4999 H         1 RES1    0.0000
     28 C10        1.0524   -0.2042    8.8494 C.3       1 RES1    0.0000
     29 H13        1.9750   -0.1296    9.1016 H         1 RES1    0.0000
     30 H14        0.9652   -0.8499    8.1433 H         1 RES1    0.0000
     31 H15        0.5343   -0.4863    9.6056 H         1 RES1    0.0000
     32 C11        1.8560   -0.6744    4.4189 C.3       1 RES1    0.0000
     33 H16        2.2847   -1.5347    4.2851 H         1 RES1    0.0000
     34 H17        1.0767   -0.6159    3.8444 H         1 RES1    0.0000
     35 C12        0.7298    2.1564    9.5062 C.3       1 RES1    0.0000
     36 H18        1.6632    2.2298    9.7185 H         1 RES1    0.0000
     37 H19        0.2494    1.8501   10.2776 H         1 RES1    0.0000
     38 H20        0.3937    3.0155    9.2421 H         1 RES1    0.0000
     39 C13        2.0332    7.4383    1.1632 C.3       1 RES1    0.0000
     40 H21        2.4452    7.4865    2.0296 H         1 RES1    0.0000
     41 H22        1.1332    7.1160    1.2558 H         1 RES1    0.0000
     42 H23        2.0214    8.3112    0.7656 H         1 RES1    0.0000
     43 C14       -0.9232    1.0759    7.9929 C.3       1 RES1    0.0000
     44 H24       -1.0384    0.4404    7.2813 H         1 RES1    0.0000
     45 H25       -1.2312    1.9373    7.7054 H         1 RES1    0.0000
     46 H26       -1.4289    0.7937    8.7574 H         1 RES1    0.0000
     47 C15        2.2406    6.4978   -1.0883 C.3       1 RES1    0.0000
     48 H27        2.7662    5.9346   -1.6606 H         1 RES1    0.0000
     49 H28        2.2406    7.3936   -1.4320 H         1 RES1    0.0000
     50 H29        1.3390    6.1686   -1.0547 H         1 RES1    0.0000
@<TRIPOS>BOND
     1    1    7 1
     2    2    9 2
     3    3   12 2
     4    4   10 1
     5    5    6 1
     6    7    8 1
     7    9    5 1
     8   10   11 1
     9   12    4 1
    10   13    7 1
    11   14   13 1
    12   15   13 1
    13   16    5 1
    14   17   16 1
    15   18   12 1
    16   19    4 1
    17   20   19 1
    18   21   19 1
    19   22    1 1
    20   23   22 1
    21   24   22 1
    22   25   10 1
    23   26   25 1
    24   27   25 1
    25   28   18 1
    26   29   28 1
    27   30   28 1
    28   31   28 1
    29   32   19 1
    30   33   32 1
    31   34   32 1
    32   35   18 1
    33   36   35 1
    34   37   35 1
    35   38   35 1
    36   39   16 1
    37   40   39 1
    38   41   39 1
    39   42   39 1
    40   43   18 1
    41   44   43 1
    42   45   43 1
    43   46   43 1
    44   47   16 1
    45   48   47 1
    46   49   47 1
    47   50   47 1
    48    9   22 1
    49   10   13 1
    50   25   32 1
@<TRIPOS>SUBSTRUCTURE
     1 RES1 1

@<TRIPOS>CRYSIN
   5.3860   11.4700   27.5390  90.0000  90.0000  90.0000  19 1

