# MOL2 file generated by ConQuest
# Please check atom types

@<TRIPOS>MOLECULE
WOBXUI
   102   108     2
SMALL
NO_CHARGES
****
Generated from CSD

@<TRIPOS>ATOM
      1 C1         0.4073   13.7482    5.3703 C.ar      1 RES1    0.0000
      2 H1         0.6081   14.2788    6.1323 H         1 RES1    0.0000
      3 C2        -0.1956   12.5047    5.5311 C.ar      1 RES1    0.0000
      4 H2        -0.4003   12.1809    6.4008 H         1 RES1    0.0000
      5 C3        -0.4971   11.7356    4.4121 C.ar      1 RES1    0.0000
      6 H3        -0.8920   10.8779    4.5212 H         1 RES1    0.0000
      7 C4        -0.2243   12.2107    3.1393 C.ar      1 RES1    0.0000
      8 H4        -0.4531   11.6873    2.3799 H         1 RES1    0.0000
      9 C5         0.3840   13.4531    2.9705 C.ar      1 RES1    0.0000
     10 H5         0.5698   13.7780    2.0977 H         1 RES1    0.0000
     11 C6         0.7192   14.2171    4.0919 C.ar      1 RES1    0.0000
     12 C7         1.4189   15.5329    3.9511 C.2       1 RES1    0.0000
     13 C8         2.6158   15.6153    3.0926 C.2       1 RES1    0.0000
     14 C9         3.1486   16.9582    2.6683 C.3       1 RES1    0.0000
     15 H6         2.8228   17.6507    3.2970 H         1 RES1    0.0000
     16 H7         2.7987   17.1753    1.7681 H         1 RES1    0.0000
     17 C10        4.6712   16.9894    2.6353 C.3       1 RES1    0.0000
     18 H8         4.9698   17.8213    2.1892 H         1 RES1    0.0000
     19 H9         5.0165   17.0010    3.5630 H         1 RES1    0.0000
     20 C11        5.2512   15.7935    1.9008 C.2       1 RES1    0.0000
     21 C12        4.5534   14.6476    1.9949 C.2       1 RES1    0.0000
     22 C13        3.3040   14.5140    2.7194 C.2       1 RES1    0.0000
     23 H10        2.9699   13.6509    2.9319 H         1 RES1    0.0000
     24 C14        6.5774   15.9169    1.2616 C.ar      1 RES1    0.0000
     25 C15        7.5398   16.7346    1.8659 C.ar      1 RES1    0.0000
     26 H11        7.3365   17.1898    2.6746 H         1 RES1    0.0000
     27 C16        8.7964   16.8802    1.2803 C.ar      1 RES1    0.0000
     28 H12        9.4454   17.4366    1.6921 H         1 RES1    0.0000
     29 C17        9.1100   16.2171    0.1003 C.ar      1 RES1    0.0000
     30 H13        9.9721   16.3151   -0.2878 H         1 RES1    0.0000
     31 C18        8.1574   15.4127   -0.5090 C.ar      1 RES1    0.0000
     32 H14        8.3695   14.9540   -1.3139 H         1 RES1    0.0000
     33 C19        6.8873   15.2748    0.0573 C.ar      1 RES1    0.0000
     34 H15        6.2315   14.7434   -0.3775 H         1 RES1    0.0000
     35 C20        5.4332   12.4797    2.2098 C.2       1 RES1    0.0000
     36 C21        6.0628   11.3501    1.4572 C.ar      1 RES1    0.0000
     37 C22        6.6558   11.5661    0.2205 C.ar      1 RES1    0.0000
     38 H16        6.5451   12.3987   -0.2205 H         1 RES1    0.0000
     39 C23        7.4149   10.5578   -0.3732 C.ar      1 RES1    0.0000
     40 H17        7.8305   10.6892   -1.2167 H         1 RES1    0.0000
     41 C24        7.5438    9.3567    0.3047 C.ar      1 RES1    0.0000
     42 C25        6.9301    9.1005    1.5164 C.ar      1 RES1    0.0000
     43 H18        7.0211    8.2573    1.9432 H         1 RES1    0.0000
     44 C26        6.1796   10.1113    2.0871 C.ar      1 RES1    0.0000
     45 H19        5.7399    9.9596    2.9157 H         1 RES1    0.0000
     46 N1         8.3872    8.3071   -0.3078 N.pl3     1 RES1    0.0000
     47 O1         1.0364   16.5020    4.5947 O.2       1 RES1    0.0000
     48 O2         5.0409   13.4723    1.3825 O.3       1 RES1    0.0000
     49 O3         5.3560   12.5283    3.4135 O.2       1 RES1    0.0000
     50 O4         8.5726    7.2770    0.3289 O.2       1 RES1    0.0000
     51 O5         8.8654    8.5129   -1.4205 O.2       1 RES1    0.0000
     52 C27       -4.6614    4.3127    9.6529 C.ar      2 RES2    0.0000
     53 H20       -4.3837    3.8401   10.4291 H         2 RES2    0.0000
     54 C28       -5.4350    5.4593    9.7756 C.ar      2 RES2    0.0000
     55 H21       -5.6653    5.7856   10.6378 H         2 RES2    0.0000
     56 C29       -5.8706    6.1268    8.6505 C.ar      2 RES2    0.0000
     57 H22       -6.4165    6.8999    8.7383 H         2 RES2    0.0000
     58 C30       -5.5098    5.6691    7.3833 C.ar      2 RES2    0.0000
     59 H23       -5.8060    6.1340    6.6107 H         2 RES2    0.0000
     60 C31       -4.7174    4.5316    7.2449 C.ar      2 RES2    0.0000
     61 H24       -4.4703    4.2249    6.3815 H         2 RES2    0.0000
     62 C32       -4.2910    3.8503    8.3813 C.ar      2 RES2    0.0000
     63 C33       -3.4998    2.5865    8.2847 C.2       2 RES2    0.0000
     64 C34       -2.3163    2.5316    7.4038 C.2       2 RES2    0.0000
     65 C35       -1.7402    1.1930    7.0157 C.3       2 RES2    0.0000
     66 H25       -2.0855    0.9364    6.1235 H         2 RES2    0.0000
     67 H26       -2.0379    0.5081    7.6661 H         2 RES2    0.0000
     68 C36       -0.2143    1.2195    6.9758 C.3       2 RES2    0.0000
     69 H27        0.1343    1.2522    7.9016 H         2 RES2    0.0000
     70 H28        0.1150    0.3847    6.5547 H         2 RES2    0.0000
     71 C37        0.3153    2.4177    6.1989 C.2       2 RES2    0.0000
     72 C38       -0.4335    3.5349    6.2363 C.2       2 RES2    0.0000
     73 C39       -1.6831    3.6423    6.9752 C.2       2 RES2    0.0000
     74 H29       -2.0531    4.4971    7.1565 H         2 RES2    0.0000
     75 C40        1.6416    2.2957    5.5460 C.ar      2 RES2    0.0000
     76 C41        1.9879    2.9770    4.3685 C.ar      2 RES2    0.0000
     77 H30        1.3592    3.5606    3.9586 H         2 RES2    0.0000
     78 C42        3.2512    2.8053    3.7929 C.ar      2 RES2    0.0000
     79 H31        3.4771    3.2775    3.0010 H         2 RES2    0.0000
     80 C43        4.1734    1.9505    4.3679 C.ar      2 RES2    0.0000
     81 H32        5.0274    1.8293    3.9686 H         2 RES2    0.0000
     82 C44        3.8417    1.2638    5.5398 C.ar      2 RES2    0.0000
     83 H33        4.4726    0.6787    5.9429 H         2 RES2    0.0000
     84 C45        2.5888    1.4370    6.1142 C.ar      2 RES2    0.0000
     85 H34        2.3704    0.9618    6.9079 H         2 RES2    0.0000
     86 C46        0.2896    5.7849    6.2650 C.2       2 RES2    0.0000
     87 C47        0.7072    6.9039    5.3803 C.ar      2 RES2    0.0000
     88 C48        0.6372    6.8218    3.9947 C.ar      2 RES2    0.0000
     89 H35        0.2717    6.0469    3.5823 H         2 RES2    0.0000
     90 C49        1.0999    7.8730    3.2116 C.ar      2 RES2    0.0000
     91 H36        1.0516    7.8182    2.2646 H         2 RES2    0.0000
     92 C50        1.6342    9.0058    3.8147 C.ar      2 RES2    0.0000
     93 C51        1.7051    9.0878    5.2002 C.ar      2 RES2    0.0000
     94 H37        2.0696    9.8616    5.6127 H         2 RES2    0.0000
     95 C52        1.2415    8.0367    5.9834 C.ar      2 RES2    0.0000
     96 H38        1.2898    8.0940    6.9303 H         2 RES2    0.0000
     97 N2         2.1550   10.0718    2.9879 N.pl3     2 RES2    0.0000
     98 O6         0.2536    5.8335    7.4649 O.2       2 RES2    0.0000
     99 O7         1.8602   10.0544    1.7918 O.2       2 RES2    0.0000
    100 O8         2.8341   10.9273    3.5243 O.2       2 RES2    0.0000
    101 O9        -3.8210    1.6242    8.9595 O.2       2 RES2    0.0000
    102 O10       -0.0301    4.6873    5.5329 O.3       2 RES2    0.0000
@<TRIPOS>BOND
     1    1    2 1
     2    3    1 ar
     3    4    3 1
     4    5    3 ar
     5    6    5 1
     6    7    5 ar
     7    8    7 1
     8    9    7 ar
     9   10    9 1
    10   11    1 ar
    11   12   11 1
    12   13   12 1
    13   14   13 1
    14   15   14 1
    15   16   14 1
    16   17   14 1
    17   18   17 1
    18   19   17 1
    19   20   17 1
    20   21   20 2
    21   22   13 2
    22   23   22 1
    23   24   20 1
    24   25   24 ar
    25   26   25 1
    26   27   25 ar
    27   28   27 1
    28   29   27 ar
    29   30   29 1
    30   31   29 ar
    31   32   31 1
    32   33   24 ar
    33   34   33 1
    34   35   36 1
    35   36   37 ar
    36   37   38 1
    37   39   37 ar
    38   40   39 1
    39   41   39 ar
    40   42   41 ar
    41   43   42 1
    42   44   36 ar
    43   45   44 1
    44   46   41 1
    45   47   12 2
    46   48   21 1
    47   49   35 2
    48   50   46 2
    49   51   46 2
    50   52   53 1
    51   54   52 ar
    52   55   54 1
    53   56   54 ar
    54   57   56 1
    55   58   56 ar
    56   59   58 1
    57   60   58 ar
    58   61   60 1
    59   62   52 ar
    60   63   62 1
    61   64   63 1
    62   65   64 1
    63   66   65 1
    64   67   65 1
    65   68   65 1
    66   69   68 1
    67   70   68 1
    68   71   68 1
    69   72   71 2
    70   73   64 2
    71   74   73 1
    72   75   71 1
    73   76   75 ar
    74   77   76 1
    75   78   76 ar
    76   79   78 1
    77   80   78 ar
    78   81   80 1
    79   82   80 ar
    80   83   82 1
    81   84   75 ar
    82   85   84 1
    83   86   87 1
    84   87   88 ar
    85   88   89 1
    86   90   88 ar
    87   91   90 1
    88   92   90 ar
    89   93   92 ar
    90   94   93 1
    91   95   87 ar
    92   96   95 1
    93   97   92 1
    94   98   86 2
    95   99   97 2
    96  100   97 2
    97  101   63 2
    98  102   72 1
    99    9   11 ar
   100   21   22 1
   101   31   33 ar
   102   35   48 1
   103   42   44 ar
   104   60   62 ar
   105   72   73 1
   106   82   84 ar
   107   86  102 1
   108   93   95 ar
@<TRIPOS>SUBSTRUCTURE
     1 RES1 1
     2 RES2 52

@<TRIPOS>CRYSIN
   9.0790   36.2960    6.5673  90.0000 108.4410  90.0000   7 1

