# MOL2 file generated by ConQuest
# Please check atom types

@<TRIPOS>MOLECULE
WOBYAP
   138   142     3
SMALL
NO_CHARGES
****
Generated from CSD

@<TRIPOS>ATOM
      1 C1         5.6627   -3.4008    3.2621 C.3       1 RES1    0.0000
      2 H1         4.7167   -3.6385    3.0426 H         1 RES1    0.0000
      3 C2         6.5859   -3.2909    2.0622 C.3       1 RES1    0.0000
      4 H2         6.9411   -2.3676    2.0116 H         1 RES1    0.0000
      5 H3         6.0639   -3.4587    1.2379 H         1 RES1    0.0000
      6 C3         7.7553   -4.2707    2.1179 C.3       1 RES1    0.0000
      7 H4         8.3845   -4.0760    1.3782 H         1 RES1    0.0000
      8 H5         7.4181   -5.1945    1.9990 H         1 RES1    0.0000
      9 C4         8.4907   -4.1641    3.4552 C.3       1 RES1    0.0000
     10 H6         9.2830   -4.7585    3.4420 H         1 RES1    0.0000
     11 H7         8.8074   -3.2348    3.5824 H         1 RES1    0.0000
     12 C5         7.5823   -4.5545    4.6220 C.3       1 RES1    0.0000
     13 H8         7.5184   -5.5427    4.6529 H         1 RES1    0.0000
     14 H9         8.0100   -4.2587    5.4644 H         1 RES1    0.0000
     15 C6         6.1779   -3.9835    4.5700 C.3       1 RES1    0.0000
     16 H10        5.5017   -4.5317    5.0614 H         1 RES1    0.0000
     17 C7         5.8291   -2.5089    4.4888 C.3       1 RES1    0.0000
     18 C8         6.8626   -1.4148    4.5193 C.ar      1 RES1    0.0000
     19 C9         7.8937   -1.3908    5.4543 C.ar      1 RES1    0.0000
     20 H11        7.9973   -2.1175    6.0564 H         1 RES1    0.0000
     21 C10        8.7725   -0.3180    5.5171 C.ar      1 RES1    0.0000
     22 H12        9.4810   -0.3231    6.1499 H         1 RES1    0.0000
     23 C11        8.6181    0.7624    4.6589 C.ar      1 RES1    0.0000
     24 H13        9.2178    1.4984    4.7015 H         1 RES1    0.0000
     25 C12        7.5827    0.7598    3.7393 C.ar      1 RES1    0.0000
     26 H14        7.4654    1.5010    3.1577 H         1 RES1    0.0000
     27 C13        6.7163   -0.3184    3.6639 C.ar      1 RES1    0.0000
     28 H15        6.0147   -0.3132    3.0246 H         1 RES1    0.0000
     29 C14        4.5773   -2.0381    5.1693 C.2       1 RES1    0.0000
     30 C15        4.6368   -1.7470    6.6516 C.3       1 RES1    0.0000
     31 H16        5.1353   -0.9036    6.7941 H         1 RES1    0.0000
     32 H17        5.1362   -2.4732    7.1018 H         1 RES1    0.0000
     33 C16        3.2591   -1.6217    7.2927 C.3       1 RES1    0.0000
     34 H18        2.8856   -2.5274    7.4346 H         1 RES1    0.0000
     35 H19        3.3535   -1.1907    8.1795 H         1 RES1    0.0000
     36 C17        2.2890   -0.8135    6.4499 C.2       1 RES1    0.0000
     37 C18        2.4060   -0.9739    5.1272 C.2       1 RES1    0.0000
     38 C19        3.4917   -1.6857    4.4815 C.2       1 RES1    0.0000
     39 H20        3.4285   -1.9028    3.5590 H         1 RES1    0.0000
     40 C20        0.7602   -1.1388    3.4492 C.2       1 RES1    0.0000
     41 C21       -0.0646   -0.3619    2.4834 C.ar      1 RES1    0.0000
     42 C22       -0.9570   -1.0932    1.6962 C.ar      1 RES1    0.0000
     43 H21       -1.0017   -2.0378    1.7849 H         1 RES1    0.0000
     44 C23       -1.7767   -0.4459    0.7877 C.ar      1 RES1    0.0000
     45 H22       -2.3977   -0.9319    0.2573 H         1 RES1    0.0000
     46 C24       -1.6660    0.9269    0.6747 C.ar      1 RES1    0.0000
     47 C25       -0.7801    1.6780    1.4261 C.ar      1 RES1    0.0000
     48 H23       -0.7232    2.6198    1.3153 H         1 RES1    0.0000
     49 C26        0.0248    1.0185    2.3486 C.ar      1 RES1    0.0000
     50 H24        0.6350    1.5102    2.8860 H         1 RES1    0.0000
     51 C27        1.2369   -0.0045    7.1041 C.ar      1 RES1    0.0000
     52 C28        0.5912   -0.4861    8.2429 C.ar      1 RES1    0.0000
     53 H25        0.8395   -1.3298    8.6042 H         1 RES1    0.0000
     54 C29       -0.4131    0.2556    8.8557 C.ar      1 RES1    0.0000
     55 H26       -0.8580   -0.0922    9.6208 H         1 RES1    0.0000
     56 C30       -0.7680    1.4964    8.3582 C.ar      1 RES1    0.0000
     57 H27       -1.4552    1.9990    8.7787 H         1 RES1    0.0000
     58 C31       -0.1160    2.0046    7.2417 C.ar      1 RES1    0.0000
     59 H28       -0.3514    2.8602    6.9020 H         1 RES1    0.0000
     60 C32        0.8766    1.2618    6.6253 C.ar      1 RES1    0.0000
     61 H29        1.3211    1.6175    5.8639 H         1 RES1    0.0000
     62 N1        -2.5398    1.6086   -0.2933 N.pl3     1 RES1    0.0000
     63 O1         1.5001   -0.3272    4.2447 O.3       1 RES1    0.0000
     64 O2         0.7715   -2.3398    3.5190 O.2       1 RES1    0.0000
     65 O3        -2.2628    2.7557   -0.6267 O.2       1 RES1    0.0000
     66 O4        -3.5114    1.0040   -0.7330 O.2       1 RES1    0.0000
     67 C33        5.2347    4.7415    6.2016 C.3       2 RES2    0.0000
     68 H30        5.0732    5.5427    6.7779 H         2 RES2    0.0000
     69 C34        6.6166    4.6358    5.5925 C.3       2 RES2    0.0000
     70 H31        6.9464    5.5375    5.3529 H         2 RES2    0.0000
     71 H32        6.5782    4.0900    4.7681 H         2 RES2    0.0000
     72 C35        7.5725    3.9831    6.6073 C.3       2 RES2    0.0000
     73 H33        7.7654    4.6294    7.3321 H         2 RES2    0.0000
     74 H34        8.4276    3.7699    6.1553 H         2 RES2    0.0000
     75 C36        6.9921    2.6939    7.2229 C.3       2 RES2    0.0000
     76 H35        7.6456    1.9593    7.1126 H         2 RES2    0.0000
     77 H36        6.8513    2.8329    8.1921 H         2 RES2    0.0000
     78 C37        5.6649    2.2868    6.5757 C.3       2 RES2    0.0000
     79 H37        5.8022    2.0829    5.6174 H         2 RES2    0.0000
     80 H38        5.3046    1.4777    7.0190 H         2 RES2    0.0000
     81 C38        4.6952    3.4394    6.7289 C.3       2 RES2    0.0000
     82 H39        4.2248    3.4933    7.6092 H         2 RES2    0.0000
     83 C39        3.9813    4.1178    5.5571 C.3       2 RES2    0.0000
     84 C40        4.0706    3.5213    4.1781 C.ar      2 RES2    0.0000
     85 C41        4.4082    4.3055    3.0807 C.ar      2 RES2    0.0000
     86 H40        4.6120    5.2247    3.2099 H         2 RES2    0.0000
     87 C42        4.4519    3.7722    1.8031 C.ar      2 RES2    0.0000
     88 H41        4.6701    4.3270    1.0634 H         2 RES2    0.0000
     89 C43        4.1783    2.4325    1.6062 C.ar      2 RES2    0.0000
     90 H42        4.2324    2.0563    0.7359 H         2 RES2    0.0000
     91 C44        3.8235    1.6407    2.6865 C.ar      2 RES2    0.0000
     92 H43        3.6210    0.7219    2.5550 H         2 RES2    0.0000
     93 C45        3.7641    2.1860    3.9584 C.ar      2 RES2    0.0000
     94 H44        3.5100    1.6376    4.6907 H         2 RES2    0.0000
     95 C46        2.7026    4.8319    5.8658 C.2       2 RES2    0.0000
     96 C47        2.5917    5.6624    7.1359 C.3       2 RES2    0.0000
     97 H45        2.9531    6.5683    6.9650 H         2 RES2    0.0000
     98 H46        3.1391    5.2452    7.8467 H         2 RES2    0.0000
     99 C48        1.1427    5.7803    7.6182 C.3       2 RES2    0.0000
    100 H47        0.8155    4.8914    7.9042 H         2 RES2    0.0000
    101 H48        1.1003    6.3908    8.3954 H         2 RES2    0.0000
    102 C49        0.2683    6.3099    6.5123 C.2       2 RES2    0.0000
    103 C50        0.5561    5.8148    5.2973 C.2       2 RES2    0.0000
    104 C51        1.7335    5.0312    4.9720 C.2       2 RES2    0.0000
    105 H49        1.8153    4.6524    4.1042 H         2 RES2    0.0000
    106 C52       -1.0501    5.1618    3.6856 C.2       2 RES2    0.0000
    107 C53       -1.8559    5.6721    2.5363 C.ar      2 RES2    0.0000
    108 C54       -2.7558    4.7999    1.9270 C.ar      2 RES2    0.0000
    109 H50       -2.8748    3.9261    2.2797 H         2 RES2    0.0000
    110 C55       -3.4747    5.1925    0.8181 C.ar      2 RES2    0.0000
    111 H51       -4.0823    4.5970    0.3958 H         2 RES2    0.0000
    112 C56       -3.2905    6.4685    0.3375 C.ar      2 RES2    0.0000
    113 C57       -2.4309    7.3678    0.9351 C.ar      2 RES2    0.0000
    114 H52       -2.3353    8.2467    0.5884 H         2 RES2    0.0000
    115 C58       -1.7098    6.9688    2.0467 C.ar      2 RES2    0.0000
    116 H53       -1.1175    7.5765    2.4740 H         2 RES2    0.0000
    117 C59       -0.9176    7.1246    6.8652 C.ar      2 RES2    0.0000
    118 C60       -1.4765    7.0011    8.1452 C.ar      2 RES2    0.0000
    119 H54       -1.0936    6.3873    8.7607 H         2 RES2    0.0000
    120 C61       -2.5731    7.7527    8.5324 C.ar      2 RES2    0.0000
    121 H55       -2.9410    7.6440    9.4012 H         2 RES2    0.0000
    122 C62       -3.1339    8.6627    7.6532 C.ar      2 RES2    0.0000
    123 H56       -3.8866    9.1803    7.9150 H         2 RES2    0.0000
    124 C63       -2.5898    8.8126    6.3930 C.ar      2 RES2    0.0000
    125 H57       -2.9713    9.4374    5.7883 H         2 RES2    0.0000
    126 C64       -1.4914    8.0589    6.0004 C.ar      2 RES2    0.0000
    127 H58       -1.1248    8.1803    5.1315 H         2 RES2    0.0000
    128 N2        -4.0075    6.8720   -0.8827 N.pl3     2 RES2    0.0000
    129 O5        -0.2750    6.1409    4.1990 O.3       2 RES2    0.0000
    130 O6        -1.0818    4.0338    4.1018 O.2       2 RES2    0.0000
    131 O7        -3.7282    7.9606   -1.3896 O.2       2 RES2    0.0000
    132 O8        -4.8391    6.1066   -1.3486 O.2       2 RES2    0.0000
    133 C65        2.3053    5.0523    7.3429 Du        3 SUP3    0.0000
    134 H59        1.8163    4.2564    7.6703 Du        3 SUP3    0.0000
    135 H60        3.1256    5.1496    7.8880 Du        3 SUP3    0.0000
    136 C66        1.4643    6.2398    7.5228 Du        3 SUP3    0.0000
    137 H61        2.0250    7.0495    7.4130 Du        3 SUP3    0.0000
    138 H62        1.1065    6.2427    8.4458 Du        3 SUP3    0.0000
@<TRIPOS>BOND
     1    1    2 1
     2    3    1 1
     3    4    3 1
     4    5    3 1
     5    6    3 1
     6    7    6 1
     7    8    6 1
     8    9    6 1
     9   10    9 1
    10   11    9 1
    11   12    9 1
    12   13   12 1
    13   14   12 1
    14   15    1 1
    15   16   15 1
    16   17    1 1
    17   18   17 1
    18   19   18 ar
    19   20   19 1
    20   21   19 ar
    21   22   21 1
    22   23   21 ar
    23   24   23 1
    24   25   23 ar
    25   26   25 1
    26   27   18 ar
    27   28   27 1
    28   29   17 1
    29   30   29 1
    30   31   30 1
    31   32   30 1
    32   33   30 1
    33   34   33 1
    34   35   33 1
    35   36   33 1
    36   37   36 2
    37   38   29 2
    38   39   38 1
    39   40   41 1
    40   41   42 ar
    41   42   43 1
    42   44   42 ar
    43   45   44 1
    44   46   44 ar
    45   47   46 ar
    46   48   47 1
    47   49   41 ar
    48   50   49 1
    49   51   36 1
    50   52   51 ar
    51   53   52 1
    52   54   52 ar
    53   55   54 1
    54   56   54 ar
    55   57   56 1
    56   58   56 ar
    57   59   58 1
    58   60   51 ar
    59   61   60 1
    60   62   46 1
    61   63   37 1
    62   64   40 2
    63   65   62 2
    64   66   62 2
    65   67   68 1
    66   69   67 1
    67   70   69 1
    68   71   69 1
    69   72   69 1
    70   73   72 1
    71   74   72 1
    72   75   72 1
    73   76   75 1
    74   77   75 1
    75   78   75 1
    76   79   78 1
    77   80   78 1
    78   81   67 1
    79   82   81 1
    80   83   67 1
    81   84   83 1
    82   85   84 ar
    83   86   85 1
    84   87   85 ar
    85   88   87 1
    86   89   87 ar
    87   90   89 1
    88   91   89 ar
    89   92   91 1
    90   93   84 ar
    91   94   93 1
    92   95   83 1
    93   96   95 1
    94   97   96 1
    95   98   96 1
    96   99   96 1
    97  100   99 1
    98  101   99 1
    99  102   99 1
   100  103  102 2
   101  104   95 2
   102  105  104 1
   103  106  107 1
   104  107  108 ar
   105  108  109 1
   106  110  108 ar
   107  111  110 1
   108  112  110 ar
   109  113  112 ar
   110  114  113 1
   111  115  107 ar
   112  116  115 1
   113  117  102 1
   114  118  117 ar
   115  119  118 1
   116  120  118 ar
   117  121  120 1
   118  122  120 ar
   119  123  122 1
   120  124  122 ar
   121  125  124 1
   122  126  117 ar
   123  127  126 1
   124  128  112 1
   125  129  103 1
   126  130  106 2
   127  131  128 2
   128  132  128 2
   129   12   15 1
   130   15   17 1
   131   25   27 ar
   132   37   38 1
   133   40   63 1
   134   47   49 ar
   135   58   60 ar
   136   78   81 1
   137   81   83 1
   138   91   93 ar
   139  103  104 1
   140  106  129 1
   141  113  115 ar
   142  124  126 ar
@<TRIPOS>SUBSTRUCTURE
     1 RES1 1
     2 RES2 67
     3 SUP3 133

@<TRIPOS>CRYSIN
  11.0748   12.7661   19.1210 102.8020 101.8020 101.9140   2 1

