# MOL2 file generated by ConQuest
# Please check atom types

@<TRIPOS>MOLECULE
WODJIK
    76    68     2
SMALL
NO_CHARGES
****
Generated from CSD

@<TRIPOS>ATOM
      1 N1         2.5485   10.4627    1.2799 N.ar      1 RES1    0.0000
      2 C1         2.3342    9.1473    0.9377 C.ar      1 RES1    0.0000
      3 C2         2.8489    8.1398    1.7744 C.ar      1 RES1    0.0000
      4 C3         2.7377    6.7925    1.3987 C.ar      1 RES1    0.0000
      5 N2         3.2965    5.8441    2.2225 N.ar      1 RES1    0.0000
      6 C4         3.2074    4.5983    1.8376 C.ar      1 RES1    0.0000
      7 C5         2.5878    4.1381    0.6482 C.ar      1 RES1    0.0000
      8 H1         2.5599    3.2120    0.4357 H         1 RES1    0.0000
      9 C6         2.0308    5.0687   -0.1838 C.ar      1 RES1    0.0000
     10 C7         2.0802    6.4479    0.1767 C.ar      1 RES1    0.0000
     11 C8         1.5290    7.4471   -0.6178 C.ar      1 RES1    0.0000
     12 H2         1.0691    7.2127   -1.4159 H         1 RES1    0.0000
     13 C9         1.6447    8.7771   -0.2592 C.ar      1 RES1    0.0000
     14 C10        1.1137    9.8290   -1.0756 C.ar      1 RES1    0.0000
     15 C11        1.3219   11.1278   -0.7121 C.ar      1 RES1    0.0000
     16 H3         0.9827   11.8439   -1.2351 H         1 RES1    0.0000
     17 C12        2.0594   11.3725    0.4696 C.ar      1 RES1    0.0000
     18 C13        3.8639    3.6094    2.7655 C.2       1 RES1    0.0000
     19 O1         4.4032    3.9055    3.7902 O.2       1 RES1    0.0000
     20 O2         3.7864    2.3604    2.2963 O.3       1 RES1    0.0000
     21 C14        4.4062    1.3505    3.1326 C.3       1 RES1    0.0000
     22 H4         5.3675    1.5285    3.2020 H         1 RES1    0.0000
     23 H5         4.2662    0.4667    2.7337 H         1 RES1    0.0000
     24 H6         4.0045    1.3749    4.0254 H         1 RES1    0.0000
     25 O3         1.4394    4.8122   -1.3560 O.3       1 RES1    0.0000
     26 C15        1.4093    3.4495   -1.8252 C.3       1 RES1    0.0000
     27 H7         0.6875    2.9462   -1.3723 H         1 RES1    0.0000
     28 H8         2.2722    3.0023   -1.6337 H         1 RES1    0.0000
     29 C16        0.5214    3.3582   -3.0517 C.3       1 RES1    0.0000
     30 H9        -0.4249    3.5901   -2.8274 H         1 RES1    0.0000
     31 C17        0.6239    1.9228   -3.5963 C.3       1 RES1    0.0000
     32 H10        0.1352    1.8593   -4.4436 H         1 RES1    0.0000
     33 H11        0.2351    1.2996   -2.9494 H         1 RES1    0.0000
     34 H12        1.5653    1.6954   -3.7444 H         1 RES1    0.0000
     35 C18        1.0948    4.3344   -4.0701 C.3       1 RES1    0.0000
     36 H13        2.0129    4.0745   -4.2912 H         1 RES1    0.0000
     37 H14        1.0930    5.2397   -3.6921 H         1 RES1    0.0000
     38 H15        0.5458    4.3196   -4.8815 H         1 RES1    0.0000
     39 O4         0.4539    9.4010   -2.1606 O.3       1 RES1    0.0000
     40 C19        0.0893   10.3370   -3.1972 C.3       1 RES1    0.0000
     41 H16        0.8750   10.8766   -3.4656 H         1 RES1    0.0000
     42 H17       -0.6188   10.9490   -2.8753 H         1 RES1    0.0000
     43 C20       -0.4127    9.5202   -4.3650 C.3       1 RES1    0.0000
     44 H18       -1.2224    9.0085   -4.0777 H         1 RES1    0.0000
     45 C21        0.6470    8.5380   -4.8340 C.3       1 RES1    0.0000
     46 H19        1.4685    9.0247   -5.0536 H         1 RES1    0.0000
     47 H20        0.3248    8.0648   -5.6286 H         1 RES1    0.0000
     48 H21        0.8317    7.8920   -4.1213 H         1 RES1    0.0000
     49 C22       -0.8072   10.4755   -5.4870 C.3       1 RES1    0.0000
     50 H22       -0.0199   10.9830   -5.7767 H         1 RES1    0.0000
     51 H23       -1.4935   11.0952   -5.1625 H         1 RES1    0.0000
     52 H24       -1.1618    9.9625   -6.2429 H         1 RES1    0.0000
     53 C23        2.3879   12.7895    0.8678 C.2       1 RES1    0.0000
     54 O5         3.3381   13.1131    1.5189 O.2       1 RES1    0.0000
     55 O6         1.4821   13.6526    0.3853 O.3       1 RES1    0.0000
     56 C24        1.7284   15.0383    0.7225 C.3       1 RES1    0.0000
     57 H25        1.7648   15.1357    1.6969 H         1 RES1    0.0000
     58 H26        1.0050   15.5950    0.3659 H         1 RES1    0.0000
     59 H27        2.5813   15.3218    0.3333 H         1 RES1    0.0000
     60 C25        3.5550    8.4801    3.0544 C.3       1 RES1    0.0000
     61 H28        4.3356    7.8876    3.1933 H         1 RES1    0.0000
     62 H29        3.8646    9.4205    3.0452 H         1 RES1    0.0000
     63 O7         2.5484    8.2716    4.1014 O.3       1 RES1    0.0000
     64 N3         3.0704    8.3126    5.3868 N.pl3     1 RES1    0.0000
     65 O8         4.2562    8.4941    5.5206 O.2       1 RES1    0.0000
     66 O9         2.2283    8.1618    6.2411 O.2       1 RES1    0.0000
     67 C26        1.1515    3.4971   -3.3719 Du        2 SUP2    0.0000
     68 H30        1.9946    3.7156   -3.8621 Du        2 SUP2    0.0000
     69 C27        0.0627    4.4762   -3.7248 Du        2 SUP2    0.0000
     70 H31       -0.7597    4.2369   -3.2478 Du        2 SUP2    0.0000
     71 H32       -0.1003    4.4511   -4.6898 Du        2 SUP2    0.0000
     72 H33        0.3397    5.3800   -3.4634 Du        2 SUP2    0.0000
     73 C28        0.6786    2.0764   -3.7183 Du        2 SUP2    0.0000
     74 H34       -0.1077    1.8534   -3.1781 Du        2 SUP2    0.0000
     75 H35        1.3982    1.4384   -3.5266 Du        2 SUP2    0.0000
     76 H36        0.4474    2.0321   -4.6680 Du        2 SUP2    0.0000
@<TRIPOS>BOND
     1    1    2 ar
     2    2    3 ar
     3    3    4 ar
     4    4    5 ar
     5    5    6 ar
     6    6    7 ar
     7    7    8 1
     8    9    7 ar
     9   10    4 ar
    10   11   10 ar
    11   12   11 1
    12   13    2 ar
    13   14   13 ar
    14   15   14 ar
    15   16   15 1
    16   17    1 ar
    17   18    6 1
    18   19   18 2
    19   20   18 1
    20   21   20 1
    21   22   21 1
    22   23   21 1
    23   24   21 1
    24   25    9 1
    25   26   25 1
    26   27   26 1
    27   28   26 1
    28   29   26 1
    29   30   29 1
    30   31   29 1
    31   32   31 1
    32   33   31 1
    33   34   31 1
    34   35   29 1
    35   36   35 1
    36   37   35 1
    37   38   35 1
    38   39   14 1
    39   40   39 1
    40   41   40 1
    41   42   40 1
    42   43   40 1
    43   44   43 1
    44   45   43 1
    45   46   45 1
    46   47   45 1
    47   48   45 1
    48   49   43 1
    49   50   49 1
    50   51   49 1
    51   52   49 1
    52   53   17 1
    53   54   53 2
    54   55   53 1
    55   56   55 1
    56   57   56 1
    57   58   56 1
    58   59   56 1
    59   60    3 1
    60   61   60 1
    61   62   60 1
    62   63   60 1
    63   64   63 1
    64   65   64 2
    65   66   64 2
    66    9   10 ar
    67   11   13 ar
    68   15   17 ar
@<TRIPOS>SUBSTRUCTURE
     1 RES1 1
     2 SUP2 67

@<TRIPOS>CRYSIN
   7.7900   14.7680   21.7950  90.0000  91.9340  90.0000 231 1

