# MOL2 file generated by ConQuest
# Please check atom types

@<TRIPOS>MOLECULE
WOFDUQ
    79    82     1
SMALL
NO_CHARGES
****
Generated from CSD

@<TRIPOS>ATOM
      1 O1         6.8919    4.2162    4.4881 O.2       1 RES1    0.0000
      2 O2         4.7942    5.0859    4.2322 O.3       1 RES1    0.0000
      3 O3         7.8786    6.3239    2.9815 O.3       1 RES1    0.0000
      4 N1         4.2411    4.0245    5.0857 N.3       1 RES1    0.0000
      5 N2         8.1640    7.7223    3.3025 N.3       1 RES1    0.0000
      6 C1         6.1357    5.0148    4.0225 C.2       1 RES1    0.0000
      7 C2         6.4737    6.1050    3.0006 C.3       1 RES1    0.0000
      8 C3         5.9658    5.5659    1.6576 C.ar      1 RES1    0.0000
      9 C4         4.7067    5.9788    1.1268 C.ar      1 RES1    0.0000
     10 C5         4.2534    5.3663   -0.0715 C.ar      1 RES1    0.0000
     11 C6         5.0494    4.3807   -0.7072 C.ar      1 RES1    0.0000
     12 C7         6.2543    4.0269   -0.1796 C.ar      1 RES1    0.0000
     13 C8         6.7172    4.6235    1.0060 C.ar      1 RES1    0.0000
     14 C9         3.4853    3.1044    4.1814 C.3       1 RES1    0.0000
     15 C10        2.8399    2.0717    5.1079 C.3       1 RES1    0.0000
     16 C11        1.9956    2.6907    6.2029 C.3       1 RES1    0.0000
     17 C12        2.8542    3.6419    7.0278 C.3       1 RES1    0.0000
     18 C13        3.5291    4.7433    6.1759 C.3       1 RES1    0.0000
     19 C14        4.5172    2.4088    3.2866 C.3       1 RES1    0.0000
     20 C15        2.4301    3.7737    3.2628 C.3       1 RES1    0.0000
     21 C16        4.6053    5.4278    7.0341 C.3       1 RES1    0.0000
     22 C17        2.5147    5.7872    5.7357 C.3       1 RES1    0.0000
     23 C18        8.9757    7.7215    4.5533 C.3       1 RES1    0.0000
     24 C19        9.3470    9.1799    4.8330 C.3       1 RES1    0.0000
     25 C20       10.0256    9.8676    3.6617 C.3       1 RES1    0.0000
     26 C21        9.1045    9.7877    2.4634 C.3       1 RES1    0.0000
     27 C22        8.7297    8.3541    2.0788 C.3       1 RES1    0.0000
     28 C23       10.2084    6.8063    4.5501 C.3       1 RES1    0.0000
     29 C24        8.0513    7.2479    5.6753 C.3       1 RES1    0.0000
     30 C25        9.9096    7.6057    1.4399 C.3       1 RES1    0.0000
     31 C26        7.5951    8.4132    1.0410 C.3       1 RES1    0.0000
     32 C27        3.8951    6.9692    1.7307 C.ar      1 RES1    0.0000
     33 C28        2.7016    7.3526    1.1649 C.ar      1 RES1    0.0000
     34 C29        2.2501    6.7328   -0.0222 C.ar      1 RES1    0.0000
     35 C30        2.9911    5.7672   -0.6214 C.ar      1 RES1    0.0000
     36 H1         5.9976    6.9532    3.2326 H         1 RES1    0.0000
     37 H2         4.7426    3.9654   -1.5050 H         1 RES1    0.0000
     38 H3         6.7859    3.3728   -0.6166 H         1 RES1    0.0000
     39 H4         7.5616    4.3703    1.3604 H         1 RES1    0.0000
     40 H5         2.2726    1.4672    4.5660 H         1 RES1    0.0000
     41 H6         3.5531    1.5239    5.5227 H         1 RES1    0.0000
     42 H7         1.6287    1.9791    6.7846 H         1 RES1    0.0000
     43 H8         1.2375    3.1851    5.8009 H         1 RES1    0.0000
     44 H9         3.5553    3.1204    7.4934 H         1 RES1    0.0000
     45 H10        2.2885    4.0692    7.7175 H         1 RES1    0.0000
     46 H11        5.2183    2.0134    3.8445 H         1 RES1    0.0000
     47 H12        4.9152    3.0645    2.6763 H         1 RES1    0.0000
     48 H13        4.0767    1.7044    2.7669 H         1 RES1    0.0000
     49 H14        1.6488    4.0309    3.7952 H         1 RES1    0.0000
     50 H15        2.1554    3.1412    2.5651 H         1 RES1    0.0000
     51 H16        2.8181    4.5708    2.8464 H         1 RES1    0.0000
     52 H17        5.0087    6.1633    6.5256 H         1 RES1    0.0000
     53 H18        5.2977    4.7760    7.2693 H         1 RES1    0.0000
     54 H19        4.1964    5.7816    7.8510 H         1 RES1    0.0000
     55 H20        2.9011    6.3374    5.0221 H         1 RES1    0.0000
     56 H21        2.2798    6.3566    6.4970 H         1 RES1    0.0000
     57 H22        1.7094    5.3399    5.4019 H         1 RES1    0.0000
     58 H23        8.5253    9.6807    5.0650 H         1 RES1    0.0000
     59 H24        9.9512    9.2119    5.6165 H         1 RES1    0.0000
     60 H25       10.2098   10.8140    3.8858 H         1 RES1    0.0000
     61 H26       10.8856    9.4211    3.4583 H         1 RES1    0.0000
     62 H27        9.5457   10.2222    1.6910 H         1 RES1    0.0000
     63 H28        8.2768   10.2933    2.6604 H         1 RES1    0.0000
     64 H29       10.9325    7.2352    4.0495 H         1 RES1    0.0000
     65 H30        9.9792    5.9525    4.1273 H         1 RES1    0.0000
     66 H31       10.4988    6.6465    5.4719 H         1 RES1    0.0000
     67 H32        7.1877    7.7056    5.6038 H         1 RES1    0.0000
     68 H33        8.4592    7.4532    6.5430 H         1 RES1    0.0000
     69 H34        7.9154    6.2799    5.5990 H         1 RES1    0.0000
     70 H35        9.6860    6.6545    1.3572 H         1 RES1    0.0000
     71 H36       10.7038    7.7064    2.0041 H         1 RES1    0.0000
     72 H37       10.0901    7.9771    0.5515 H         1 RES1    0.0000
     73 H38        6.7939    8.7966    1.4542 H         1 RES1    0.0000
     74 H39        7.3973    7.5083    0.7215 H         1 RES1    0.0000
     75 H40        7.8728    8.9731    0.2845 H         1 RES1    0.0000
     76 H41        4.1791    7.3765    2.5413 H         1 RES1    0.0000
     77 H42        2.1805    8.0338    1.5718 H         1 RES1    0.0000
     78 H43        1.4194    6.9940   -0.4021 H         1 RES1    0.0000
     79 H44        2.6722    5.3527   -1.4145 H         1 RES1    0.0000
@<TRIPOS>BOND
     1    1    6 2
     2    2    4 1
     3    3    5 1
     4    4   14 1
     5    5   23 1
     6    6    2 1
     7    7    3 1
     8    8    7 1
     9    9    8 ar
    10   10    9 ar
    11   11   10 ar
    12   12   11 ar
    13   13    8 ar
    14   14   15 1
    15   15   16 1
    16   16   17 1
    17   17   18 1
    18   18    4 1
    19   19   14 1
    20   20   14 1
    21   21   18 1
    22   22   18 1
    23   23   24 1
    24   24   25 1
    25   25   26 1
    26   26   27 1
    27   27    5 1
    28   28   23 1
    29   29   23 1
    30   30   27 1
    31   31   27 1
    32   32    9 ar
    33   33   32 ar
    34   34   33 ar
    35   35   10 ar
    36   36    7 1
    37   37   11 1
    38   38   12 1
    39   39   13 1
    40   40   15 1
    41   41   15 1
    42   42   16 1
    43   43   16 1
    44   44   17 1
    45   45   17 1
    46   46   19 1
    47   47   19 1
    48   48   19 1
    49   49   20 1
    50   50   20 1
    51   51   20 1
    52   52   21 1
    53   53   21 1
    54   54   21 1
    55   55   22 1
    56   56   22 1
    57   57   22 1
    58   58   24 1
    59   59   24 1
    60   60   25 1
    61   61   25 1
    62   62   26 1
    63   63   26 1
    64   64   28 1
    65   65   28 1
    66   66   28 1
    67   67   29 1
    68   68   29 1
    69   69   29 1
    70   70   30 1
    71   71   30 1
    72   72   30 1
    73   73   31 1
    74   74   31 1
    75   75   31 1
    76   76   32 1
    77   77   33 1
    78   78   34 1
    79   79   35 1
    80    6    7 1
    81   12   13 ar
    82   34   35 ar
@<TRIPOS>SUBSTRUCTURE
     1 RES1 1

