# MOL2 file generated by ConQuest
# Please check atom types

@<TRIPOS>MOLECULE
WOFVAQ
    25    23     2
SMALL
USER_CHARGES
****
Generated from CSD

@<TRIPOS>ATOM
      1 O1        -0.3248   -0.9184    3.7352 O.2       1 RES1    0.0000
      2 O2         0.6217   -0.0315    2.0435 O.2       1 RES1    0.0000
      3 N1         0.3631   -0.0689    3.2181 N.pl3     1 RES1    0.0000
      4 N2         0.9719    4.6892    4.3773 N.2       1 RES1    0.0000
      5 C1         0.6075    2.3604    3.7710 C.2       1 RES1    0.0000
      6 C2         1.1749    3.3621    4.5770 C.2       1 RES1    0.0000
      7 C3         0.9226    0.9644    4.1075 C.2       1 RES1    0.0000
      8 C4        -0.2244    2.7560    2.7405 C.2       1 RES1    0.0000
      9 H1        -0.6222    2.1087    2.1700 H         1 RES1    0.0000
     10 C5         0.1733    5.0157    3.3746 C.2       1 RES1    0.0000
     11 H2         0.0305    5.9406    3.2079 H         1 RES1    0.0000
     12 C6         1.6550    0.5639    5.1387 C.2       1 RES1    0.0000
     13 H3         1.8131   -0.3567    5.3121 H         1 RES1    0.0000
     14 C7        -0.4740    4.1019    2.5474 C.2       1 RES1    0.0000
     15 H4        -1.0702    4.3958    1.8680 H         1 RES1    0.0000
     16 C8         2.1878    1.5808    5.9681 C.2       1 RES1    0.0000
     17 C9         1.9548    2.9559    5.6953 C.2       1 RES1    0.0000
     18 O3         2.6366    4.5583    7.1266 O.2       1 RES1   -1.0000
     19 O4         3.1240    2.3604    7.6240 O.3       1 RES1    0.0000
     20 N3         2.8888    1.1176    7.0952 N.2       1 RES1    0.0000
     21 N4         2.5404    3.3946    6.7682 N.pl3     1 RES1    1.0000
     22 O5         3.3990    0.9148    7.8149 Du        2 SUP2    0.0000
     23 O6         3.1400    3.1717    7.4433 Du        2 SUP2    0.0000
     24 N5         2.9101    1.7577    7.0535 Du        2 SUP2    0.0000
     25 N6         2.5018    3.9772    6.5013 Du        2 SUP2    0.0000
@<TRIPOS>BOND
     1    1    3 2
     2    2    3 2
     3    3    7 1
     4    4    6 1
     5    5    6 2
     6    6   17 1
     7    7    5 1
     8    8    5 1
     9    9    8 1
    10   10    4 2
    11   11   10 1
    12   12    7 2
    13   13   12 1
    14   14    8 2
    15   15   14 1
    16   16   12 1
    17   17   16 1
    18   18   21 1
    19   19   20 1
    20   20   16 2
    21   21   17 2
    22   10   14 1
    23   19   21 1
@<TRIPOS>SUBSTRUCTURE
     1 RES1 1
     2 SUP2 22

@<TRIPOS>CRYSIN
   8.4790   14.3840    7.8480  90.0000 111.2610  90.0000  14 1

