# MOL2 file generated by ConQuest
# Please check atom types

@<TRIPOS>MOLECULE
WOGPAJ
    27    28     1
SMALL
NO_CHARGES
****
Generated from CSD

@<TRIPOS>ATOM
      1 N1         1.9088    2.6672    4.7356 N.pl3     1 RES1    0.0000
      2 N2         1.1061    1.9307    5.5925 N.2       1 RES1    0.0000
      3 C1         1.8147    1.8696    6.7033 C.2       1 RES1    0.0000
      4 C2         3.0425    2.5290    6.5980 C.2       1 RES1    0.0000
      5 C3         3.0772    3.0281    5.3263 C.2       1 RES1    0.0000
      6 O1         1.3682    1.2421    7.8055 O.3       1 RES1    0.0000
      7 C4         4.1648    3.7571    4.6153 C.3       1 RES1    0.0000
      8 C5         1.4300    2.9897    3.4526 C.ar      1 RES1    0.0000
      9 C6         0.9887    2.0255    2.5415 C.ar      1 RES1    0.0000
     10 C7         0.4346    2.3769    1.3227 C.ar      1 RES1    0.0000
     11 C8         0.3797    3.7207    1.0081 C.ar      1 RES1    0.0000
     12 C9         0.8427    4.7013    1.8544 C.ar      1 RES1    0.0000
     13 C10        1.3543    4.3288    3.0828 C.ar      1 RES1    0.0000
     14 N3         1.1685    0.5837    2.7727 N.pl3     1 RES1    0.0000
     15 O2         2.1005    0.2267    3.4594 O.2       1 RES1    0.0000
     16 O3         0.3931   -0.1732    2.2235 O.2       1 RES1    0.0000
     17 N4        -0.1774    4.0918   -0.3005 N.pl3     1 RES1    0.0000
     18 O4        -0.4690    3.2103   -1.0790 O.2       1 RES1    0.0000
     19 O5        -0.3144    5.2658   -0.5448 O.2       1 RES1    0.0000
     20 H1         3.7454    2.5736    7.2799 H         1 RES1    0.0000
     21 H2         0.6026    0.7750    7.6149 H         1 RES1    0.0000
     22 H3         5.0437    3.5145    4.9993 H         1 RES1    0.0000
     23 H4         4.3395    3.4094    3.7623 H         1 RES1    0.0000
     24 H5         3.9625    4.6377    4.5354 H         1 RES1    0.0000
     25 H6         0.1328    1.7198    0.7074 H         1 RES1    0.0000
     26 H7         0.7890    5.6232    1.6492 H         1 RES1    0.0000
     27 H8         1.6470    4.9872    3.6979 H         1 RES1    0.0000
@<TRIPOS>BOND
     1    1    2 1
     2    2    3 2
     3    3    4 1
     4    4    5 2
     5    5    1 1
     6    6    3 1
     7    7    5 1
     8    8    1 1
     9    9    8 ar
    10   10    9 ar
    11   11   10 ar
    12   12   11 ar
    13   13    8 ar
    14   14    9 1
    15   15   14 2
    16   16   14 2
    17   17   11 1
    18   18   17 2
    19   19   17 2
    20   20    4 1
    21   21    6 1
    22   22    7 1
    23   23    7 1
    24   24    7 1
    25   25   10 1
    26   26   12 1
    27   27   13 1
    28   12   13 ar
@<TRIPOS>SUBSTRUCTURE
     1 RES1 1

@<TRIPOS>CRYSIN
   6.5974    7.3075   13.0001  83.6380  88.9660 115.7420   2 1

