# MOL2 file generated by ConQuest
# Please check atom types

@<TRIPOS>MOLECULE
WOGWOG
    23    24     1
SMALL
NO_CHARGES
****
Generated from CSD

@<TRIPOS>ATOM
      1 O1         2.9197    7.0921    0.1514 O.2       1 RES1    0.0000
      2 O2         1.3043    7.2404    1.5737 O.2       1 RES1    0.0000
      3 O3         1.9108    7.4038    4.0296 O.3       1 RES1    0.0000
      4 O4        -0.2918    8.6627    6.4385 O.2       1 RES1    0.0000
      5 O5        -3.7354   10.3136    5.0213 O.3       1 RES1    0.0000
      6 N1         2.4819    7.0149    1.3284 N.pl3     1 RES1    0.0000
      7 N2        -0.2181    8.6862    4.1679 N.am      1 RES1    0.0000
      8 N3        -1.4458    9.2960    4.0557 N.2       1 RES1    0.0000
      9 C1         3.4060    6.6548    2.3723 C.ar      1 RES1    0.0000
     10 C2         4.6419    6.1328    1.9783 C.ar      1 RES1    0.0000
     11 C3         5.5859    5.7794    2.9256 C.ar      1 RES1    0.0000
     12 C4         5.2705    5.9769    4.2436 C.ar      1 RES1    0.0000
     13 C5         4.0892    6.5065    4.6481 C.ar      1 RES1    0.0000
     14 C6         3.1503    6.8719    3.7242 C.ar      1 RES1    0.0000
     15 C7         1.6028    7.6663    5.3919 C.3       1 RES1    0.0000
     16 C8         0.2469    8.3888    5.3893 C.2       1 RES1    0.0000
     17 C9        -1.9094    9.5403    2.8682 C.2       1 RES1    0.0000
     18 C10       -3.2012   10.1184    2.6699 C.ar      1 RES1    0.0000
     19 C11       -4.0081   10.4777    3.7555 C.ar      1 RES1    0.0000
     20 C12       -5.2903   11.0429    3.4867 C.ar      1 RES1    0.0000
     21 C13       -5.7008   11.1935    2.2314 C.ar      1 RES1    0.0000
     22 C14       -4.9396   10.8205    1.1405 C.ar      1 RES1    0.0000
     23 C15       -3.7023   10.3098    1.4041 C.ar      1 RES1    0.0000
@<TRIPOS>BOND
     1    1    6 2
     2    2    6 2
     3    3   14 1
     4    4   16 2
     5    5   19 1
     6    6    9 1
     7    7    8 1
     8    8   17 2
     9    9   10 ar
    10   10   11 ar
    11   11   12 ar
    12   12   13 ar
    13   13   14 ar
    14   14    9 ar
    15   15    3 1
    16   16    7 1
    17   17   18 1
    18   18   19 ar
    19   19   20 ar
    20   20   21 ar
    21   21   22 ar
    22   22   23 ar
    23   23   18 ar
    24   15   16 1
@<TRIPOS>SUBSTRUCTURE
     1 RES1 1

@<TRIPOS>CRYSIN
   7.3692    7.5657   26.0983  90.0000  90.0000  90.0000  19 1

