# MOL2 file generated by ConQuest
# Please check atom types

@<TRIPOS>MOLECULE
WOHZUQ
    70    73     1
SMALL
NO_CHARGES
****
Generated from CSD

@<TRIPOS>ATOM
      1 N1         1.1674    0.8841    1.3442 N.2       1 RES1    0.0000
      2 O1         1.0804   -3.3529   -3.2516 O.3       1 RES1    0.0000
      3 C1         2.0540   -4.3497   -3.5987 C.3       1 RES1    0.0000
      4 H1         1.6955   -4.9254   -4.2780 H         1 RES1    0.0000
      5 H2         2.2706   -4.8702   -2.8182 H         1 RES1    0.0000
      6 H3         2.8481   -3.9220   -3.9290 H         1 RES1    0.0000
      7 O2         1.5962    1.9251    2.2696 O.3       1 RES1    0.0000
      8 C2         1.4247   -2.4412   -2.2718 C.ar      1 RES1    0.0000
      9 O3        -0.4973    1.9218    3.0475 O.2       1 RES1    0.0000
     10 C3         2.6056   -2.4511   -1.5768 C.ar      1 RES1    0.0000
     11 H4         3.2374   -3.1175   -1.7262 H         1 RES1    0.0000
     12 C4         2.8407   -1.4543   -0.6511 C.ar      1 RES1    0.0000
     13 H5         3.6514   -1.4433   -0.1951 H         1 RES1    0.0000
     14 C5         1.9158   -0.4774   -0.3820 C.ar      1 RES1    0.0000
     15 C6         0.7071   -0.4785   -1.0687 C.ar      1 RES1    0.0000
     16 H6         0.0598    0.1658   -0.8931 H         1 RES1    0.0000
     17 C7         0.4868   -1.4632   -2.0245 C.ar      1 RES1    0.0000
     18 H7        -0.3091   -1.4620   -2.5067 H         1 RES1    0.0000
     19 C8         2.1718    0.5747    0.6184 C.2       1 RES1    0.0000
     20 C9         3.5465    1.2001    0.7201 C.3       1 RES1    0.0000
     21 H8         3.5533    1.8444    1.4297 H         1 RES1    0.0000
     22 H9         3.7631    1.6344   -0.1088 H         1 RES1    0.0000
     23 H10        4.1962    0.5172    0.9006 H         1 RES1    0.0000
     24 C10        0.6318    2.3384    3.0996 C.2       1 RES1    0.0000
     25 C11        1.1365    3.3849    4.0956 C.3       1 RES1    0.0000
     26 C12        0.6540    4.7265    3.5121 C.3       1 RES1    0.0000
     27 H11        1.1877    4.9398    2.7319 H         1 RES1    0.0000
     28 H12       -0.2672    4.6315    3.2235 H         1 RES1    0.0000
     29 C13        0.7478    5.8858    4.5129 C.3       1 RES1    0.0000
     30 H13        1.6776    6.0482    4.7358 H         1 RES1    0.0000
     31 H14        0.3869    6.6925    4.1128 H         1 RES1    0.0000
     32 C14       -0.0302    5.5476    5.7722 C.3       1 RES1    0.0000
     33 H15        0.0518    6.2858    6.3944 H         1 RES1    0.0000
     34 H16       -0.9687    5.4592    5.5426 H         1 RES1    0.0000
     35 C15        0.4208    4.2789    6.4594 C.3       1 RES1    0.0000
     36 C16        0.3788    3.1263    5.4180 C.3       1 RES1    0.0000
     37 H17       -0.5633    3.0622    5.1561 H         1 RES1    0.0000
     38 C17       -0.5022    3.8789    7.6035 C.ar      1 RES1    0.0000
     39 C18       -0.8657    2.5605    7.8733 C.ar      1 RES1    0.0000
     40 C19       -0.4461    1.4366    6.9870 C.3       1 RES1    0.0000
     41 H18       -1.2081    1.1559    6.4545 H         1 RES1    0.0000
     42 H19       -0.1802    0.6852    7.5390 H         1 RES1    0.0000
     43 C20        0.6929    1.7847    6.0586 C.3       1 RES1    0.0000
     44 H20        0.7873    1.1029    5.3737 H         1 RES1    0.0000
     45 H21        1.5240    1.8389    6.5558 H         1 RES1    0.0000
     46 C21       -0.9601    4.8569    8.4906 C.ar      1 RES1    0.0000
     47 H22       -0.7293    5.7454    8.3383 H         1 RES1    0.0000
     48 C22       -1.7449    4.5519    9.5890 C.ar      1 RES1    0.0000
     49 H23       -2.0367    5.2304   10.1545 H         1 RES1    0.0000
     50 C23       -2.0984    3.2291    9.8487 C.ar      1 RES1    0.0000
     51 C24       -1.6671    2.2798    8.9864 C.ar      1 RES1    0.0000
     52 H24       -1.9152    1.3968    9.1413 H         1 RES1    0.0000
     53 C25        2.6722    3.3319    4.1969 C.3       1 RES1    0.0000
     54 H25        2.9394    2.4876    4.5669 H         1 RES1    0.0000
     55 H26        2.9801    4.0425    4.7658 H         1 RES1    0.0000
     56 H27        3.0542    3.4324    3.3211 H         1 RES1    0.0000
     57 C26        1.8325    4.5154    7.1055 C.3       1 RES1    0.0000
     58 H28        1.7788    5.2371    7.7379 H         1 RES1    0.0000
     59 H29        2.4655    4.7376    6.4169 H         1 RES1    0.0000
     60 H30        2.1163    3.7165    7.5540 H         1 RES1    0.0000
     61 C27       -2.9400    2.8622   11.0852 C.3       1 RES1    0.0000
     62 H31       -2.9326    1.8853   11.1490 H         1 RES1    0.0000
     63 C28       -2.3366    3.3871   12.3708 C.3       1 RES1    0.0000
     64 H32       -2.9018    3.1506   13.1116 H         1 RES1    0.0000
     65 H33       -2.2582    4.3430   12.3198 H         1 RES1    0.0000
     66 H34       -1.4666    3.0015   12.4962 H         1 RES1    0.0000
     67 C29       -4.3875    3.2744   10.9032 C.3       1 RES1    0.0000
     68 H35       -4.8860    3.0479   11.6931 H         1 RES1    0.0000
     69 H36       -4.7583    2.8136   10.1470 H         1 RES1    0.0000
     70 H37       -4.4344    4.2215   10.7550 H         1 RES1    0.0000
@<TRIPOS>BOND
     1    1    7 1
     2    2    3 1
     3    3    4 1
     4    5    3 1
     5    6    3 1
     6    7   24 1
     7    8    2 1
     8    9   24 2
     9   10    8 ar
    10   11   10 1
    11   12   10 ar
    12   13   12 1
    13   14   12 ar
    14   15   14 ar
    15   16   15 1
    16   17    8 ar
    17   18   17 1
    18   19    1 2
    19   20   19 1
    20   21   20 1
    21   22   20 1
    22   23   20 1
    23   24   25 1
    24   25   26 1
    25   26   27 1
    26   28   26 1
    27   29   26 1
    28   30   29 1
    29   31   29 1
    30   32   29 1
    31   33   32 1
    32   34   32 1
    33   35   32 1
    34   36   25 1
    35   37   36 1
    36   38   35 1
    37   39   38 ar
    38   40   39 1
    39   41   40 1
    40   42   40 1
    41   43   36 1
    42   44   43 1
    43   45   43 1
    44   46   38 ar
    45   47   46 1
    46   48   46 ar
    47   49   48 1
    48   50   48 ar
    49   51   39 ar
    50   52   51 1
    51   53   25 1
    52   54   53 1
    53   55   53 1
    54   56   53 1
    55   57   35 1
    56   58   57 1
    57   59   57 1
    58   60   57 1
    59   61   50 1
    60   62   61 1
    61   63   61 1
    62   64   63 1
    63   65   63 1
    64   66   63 1
    65   67   61 1
    66   68   67 1
    67   69   67 1
    68   70   67 1
    69   14   19 1
    70   15   17 ar
    71   35   36 1
    72   40   43 1
    73   50   51 ar
@<TRIPOS>SUBSTRUCTURE
     1 RES1 1

@<TRIPOS>CRYSIN
   6.1700   11.0510   37.5260  90.0000  90.0000  90.0000  19 1

