# MOL2 file generated by ConQuest
# Please check atom types

@<TRIPOS>MOLECULE
WOJHAG
    48    50     1
SMALL
NO_CHARGES
****
Generated from CSD

@<TRIPOS>ATOM
      1 C1         1.1677    9.9411    6.6332 C.ar      1 RES1    0.0000
      2 C2         1.1327   10.5206    7.8891 C.ar      1 RES1    0.0000
      3 H1         1.6820   11.2429    8.0915 H         1 RES1    0.0000
      4 C3         0.2629   10.0048    8.8415 C.ar      1 RES1    0.0000
      5 H2         0.2360   10.3966    9.6844 H         1 RES1    0.0000
      6 C4        -0.5611    8.9298    8.5781 C.ar      1 RES1    0.0000
      7 C5        -0.5169    8.3788    7.3075 C.ar      1 RES1    0.0000
      8 H3        -1.0764    7.6654    7.0998 H         1 RES1    0.0000
      9 C6         0.3410    8.8668    6.3455 C.ar      1 RES1    0.0000
     10 H4         0.3641    8.4758    5.5024 H         1 RES1    0.0000
     11 C7        -1.4895    8.3786    9.6599 C.3       1 RES1    0.0000
     12 H5        -1.9947    7.6279    9.2848 H         1 RES1    0.0000
     13 C8        -0.7249    7.8906   10.8615 C.2       1 RES1    0.0000
     14 C9        -0.6616    8.6025   12.0579 C.2       1 RES1    0.0000
     15 C10       -2.3498   10.0744   11.2624 C.2       1 RES1    0.0000
     16 C11       -3.1664   11.2302   11.7102 C.3       1 RES1    0.0000
     17 H6        -2.6141   11.8283   12.2369 H         1 RES1    0.0000
     18 H7        -3.8869   10.9119   12.2770 H         1 RES1    0.0000
     19 C12       -3.7596   12.0031   10.5245 C.3       1 RES1    0.0000
     20 C13       -4.4113   11.0014    9.5715 C.3       1 RES1    0.0000
     21 H8        -5.2183   10.6608    9.9890 H         1 RES1    0.0000
     22 H9        -4.6756   11.4712    8.7649 H         1 RES1    0.0000
     23 C14       -3.5464    9.8331    9.1812 C.2       1 RES1    0.0000
     24 C15       -2.4620    9.4388   10.0993 C.2       1 RES1    0.0000
     25 C16        2.8072   11.4794    5.8436 C.3       1 RES1    0.0000
     26 H10        2.2764   12.2115    6.1631 H         1 RES1    0.0000
     27 H11        3.2373   11.7288    5.0226 H         1 RES1    0.0000
     28 H12        3.4725   11.2560    6.4986 H         1 RES1    0.0000
     29 C17        0.0101    9.0889   14.3688 C.3       1 RES1    0.0000
     30 H13        0.3509    9.9727   14.2111 H         1 RES1    0.0000
     31 H14        0.5519    8.6503   15.0288 H         1 RES1    0.0000
     32 H15       -0.8945    9.1476   14.6852 H         1 RES1    0.0000
     33 C18       -4.7977   12.9854   11.0483 C.3       1 RES1    0.0000
     34 H16       -5.1990   13.4507   10.3108 H         1 RES1    0.0000
     35 H17       -4.3732   13.6187   11.6323 H         1 RES1    0.0000
     36 H18       -5.4749   12.5066   11.5327 H         1 RES1    0.0000
     37 C19       -2.6578   12.7669    9.7872 C.3       1 RES1    0.0000
     38 H19       -3.0436   13.2648    9.0626 H         1 RES1    0.0000
     39 H20       -2.0146   12.1446    9.4405 H         1 RES1    0.0000
     40 H21       -2.2249   13.3692   10.3955 H         1 RES1    0.0000
     41 N1         0.0426    8.3273   13.1284 N.3       1 RES1    0.0000
     42 H22        0.5640    7.6442   13.0958 H         1 RES1    0.0000
     43 N2         0.0200    6.7394   10.7096 N.pl3     1 RES1    0.0000
     44 O1        -1.4069    9.7270   12.2144 O.3       1 RES1    0.0000
     45 O2        -0.0593    6.1100    9.6349 O.2       1 RES1    0.0000
     46 O3         0.7654    6.3185   11.6409 O.2       1 RES1    0.0000
     47 O4        -3.7474    9.2039    8.1581 O.2       1 RES1    0.0000
     48 O5         1.9790   10.3629    5.6173 O.3       1 RES1    0.0000
@<TRIPOS>BOND
     1    1    2 ar
     2    2    3 1
     3    4    2 ar
     4    5    4 1
     5    6    4 ar
     6    7    6 ar
     7    8    7 1
     8    9    1 ar
     9   10    9 1
    10   11    6 1
    11   12   11 1
    12   13   11 1
    13   14   13 2
    14   15   16 1
    15   16   17 1
    16   18   16 1
    17   19   16 1
    18   20   19 1
    19   21   20 1
    20   22   20 1
    21   23   20 1
    22   24   11 1
    23   25   26 1
    24   27   25 1
    25   28   25 1
    26   29   30 1
    27   31   29 1
    28   32   29 1
    29   33   19 1
    30   34   33 1
    31   35   33 1
    32   36   33 1
    33   37   19 1
    34   38   37 1
    35   39   37 1
    36   40   37 1
    37   41   14 1
    38   42   41 1
    39   43   13 1
    40   44   14 1
    41   45   43 2
    42   46   43 2
    43   47   23 2
    44   48    1 1
    45    7    9 ar
    46   15   24 2
    47   15   44 1
    48   23   24 1
    49   25   48 1
    50   29   41 1
@<TRIPOS>SUBSTRUCTURE
     1 RES1 1

@<TRIPOS>CRYSIN
   9.6793   16.3059   11.9205  90.0000 106.1280  90.0000  14 1

