# MOL2 file generated by ConQuest
# Please check atom types

@<TRIPOS>MOLECULE
WOJKIQ
    53    56     1
SMALL
NO_CHARGES
****
Generated from CSD

@<TRIPOS>ATOM
      1 O1         7.6982   13.0662    4.0467 O.3       1 RES1    0.0000
      2 O2         8.0529    9.4310    1.8714 O.3       1 RES1    0.0000
      3 O3         9.7973    8.4600    2.9101 O.2       1 RES1    0.0000
      4 O4         9.6140    2.8533   -0.0282 O.2       1 RES1    0.0000
      5 O5        10.7739    3.8021    1.5324 O.2       1 RES1    0.0000
      6 O6         5.9442    5.2077   -2.0659 O.2       1 RES1    0.0000
      7 O7         5.4539    7.2137   -1.4035 O.2       1 RES1    0.0000
      8 N1         9.8732    3.7955    0.7087 N.pl3     1 RES1    0.0000
      9 N2         6.1470    6.1972   -1.3848 N.pl3     1 RES1    0.0000
     10 C1         6.9328   13.7920    1.8539 C.ar      1 RES1    0.0000
     11 C2         6.9656   13.7382    0.4598 C.ar      1 RES1    0.0000
     12 C3         6.3771   14.7098   -0.3091 C.ar      1 RES1    0.0000
     13 C4         5.7086   15.7800    0.2961 C.ar      1 RES1    0.0000
     14 C5         5.6752   15.8459    1.6698 C.ar      1 RES1    0.0000
     15 C6         6.2856   14.8638    2.4501 C.ar      1 RES1    0.0000
     16 C7        10.9171   11.5925    3.5012 C.ar      1 RES1    0.0000
     17 C8        12.1313   12.1036    3.9375 C.ar      1 RES1    0.0000
     18 C9        12.5878   13.3378    3.4894 C.ar      1 RES1    0.0000
     19 C10       11.8229   14.0562    2.5991 C.ar      1 RES1    0.0000
     20 C11       10.6004   13.5522    2.1567 C.ar      1 RES1    0.0000
     21 C12       10.1293   12.3277    2.6137 C.ar      1 RES1    0.0000
     22 C13        8.5838    7.2489    1.2429 C.ar      1 RES1    0.0000
     23 C14        9.3460    6.0942    1.3837 C.ar      1 RES1    0.0000
     24 C15        9.0480    5.0131    0.5782 C.ar      1 RES1    0.0000
     25 C16        8.0308    5.0159   -0.3505 C.ar      1 RES1    0.0000
     26 C17        7.2869    6.1724   -0.4512 C.ar      1 RES1    0.0000
     27 C18        7.5324    7.2927    0.3240 C.ar      1 RES1    0.0000
     28 C19        7.5129   12.6769    2.6962 C.3       1 RES1    0.0000
     29 C20        8.7686   11.8696    2.1636 C.3       1 RES1    0.0000
     30 C21        8.0890   10.6078    2.7232 C.3       1 RES1    0.0000
     31 C22        6.7448   11.3232    2.7022 C.3       1 RES1    0.0000
     32 C23        5.7303   11.0330    3.7772 C.3       1 RES1    0.0000
     33 C24        8.8925    8.4335    2.1117 C.2       1 RES1    0.0000
     34 H1         8.7474   11.8356    1.1543 H         1 RES1    0.0000
     35 H2         8.3658   10.3542    3.6055 H         1 RES1    0.0000
     36 H3         6.3744   11.2388    1.7737 H         1 RES1    0.0000
     37 H4         8.3173   13.7726    4.0791 H         1 RES1    0.0000
     38 H5         7.3613   13.0002    0.0204 H         1 RES1    0.0000
     39 H6         6.4193   14.6625   -1.1245 H         1 RES1    0.0000
     40 H7         5.3097   16.4714   -0.2619 H         1 RES1    0.0000
     41 H8         5.1690   16.5295    2.1015 H         1 RES1    0.0000
     42 H9         6.2517   14.9200    3.4189 H         1 RES1    0.0000
     43 H10       10.6317   10.7543    3.7937 H         1 RES1    0.0000
     44 H11       12.6679   11.5557    4.5277 H         1 RES1    0.0000
     45 H12       13.3278   13.7145    3.7796 H         1 RES1    0.0000
     46 H13       12.1180   14.9411    2.2615 H         1 RES1    0.0000
     47 H14       10.0808   14.0578    1.5354 H         1 RES1    0.0000
     48 H15       10.0630    6.0089    2.0058 H         1 RES1    0.0000
     49 H16        7.8497    4.3043   -0.8971 H         1 RES1    0.0000
     50 H17        6.9884    8.0462    0.1694 H         1 RES1    0.0000
     51 H18        6.1382   11.1160    4.6625 H         1 RES1    0.0000
     52 H19        4.9452   11.6640    3.7451 H         1 RES1    0.0000
     53 H20        5.3721   10.1073    3.6510 H         1 RES1    0.0000
@<TRIPOS>BOND
     1    1   28 1
     2    2   30 1
     3    3   33 2
     4    4    8 2
     5    5    8 2
     6    6    9 2
     7    7    9 2
     8    8   24 1
     9    9   26 1
    10   10   11 ar
    11   11   12 ar
    12   12   13 ar
    13   13   14 ar
    14   14   15 ar
    15   15   10 ar
    16   16   17 ar
    17   17   18 ar
    18   18   19 ar
    19   19   20 ar
    20   20   21 ar
    21   21   16 ar
    22   22   23 ar
    23   23   24 ar
    24   24   25 ar
    25   25   26 ar
    26   26   27 ar
    27   27   22 ar
    28   28   10 1
    29   29   21 1
    30   30   29 1
    31   31   28 1
    32   32   31 1
    33   33    2 1
    34   34   29 1
    35   35   30 1
    36   36   31 1
    37   37    1 1
    38   38   11 1
    39   39   12 1
    40   40   13 1
    41   41   14 1
    42   42   15 1
    43   43   16 1
    44   44   17 1
    45   45   18 1
    46   46   19 1
    47   47   20 1
    48   48   23 1
    49   49   25 1
    50   50   27 1
    51   51   32 1
    52   52   32 1
    53   53   32 1
    54   22   33 1
    55   28   29 1
    56   30   31 1
@<TRIPOS>SUBSTRUCTURE
     1 RES1 1

@<TRIPOS>CRYSIN
  10.1291   13.2035   15.8027  90.0000  97.0590  90.0000  14 1

