# MOL2 file generated by ConQuest
# Please check atom types

@<TRIPOS>MOLECULE
WOKCOP
    69    74     1
SMALL
NO_CHARGES
****
Generated from CSD

@<TRIPOS>ATOM
      1 O1         8.7537    3.9956    6.2748 O.2       1 RES1    0.0000
      2 C1         8.6993    3.2468    7.2162 C.2       1 RES1    0.0000
      3 N1         8.4941    2.4258    9.3828 N.pl3     1 RES1    0.0000
      4 C2         8.6177    3.7180    8.6528 C.3       1 RES1    0.0000
      5 O2         8.4394    2.4761   10.6683 O.2       1 RES1    0.0000
      6 N2         7.7466   -1.3949    5.1135 N.pl3     1 RES1    0.0000
      7 O3         7.1906   -2.5559    5.2024 O.2       1 RES1    0.0000
      8 C3         9.8978    4.4428    9.0975 C.3       1 RES1    0.0000
      9 H1        10.8397    3.8043    8.8105 H         1 RES1    0.0000
     10 H2         9.8035    4.5149   10.0356 H         1 RES1    0.0000
     11 H3         9.8938    5.3348    8.7602 H         1 RES1    0.0000
     12 O4         7.4693    1.3075    6.4174 O.3       1 RES1    0.0000
     13 C4         7.3757    4.5663    8.8776 C.3       1 RES1    0.0000
     14 H4         6.6283    3.9574    8.5756 H         1 RES1    0.0000
     15 H5         7.3910    5.4551    8.3910 H         1 RES1    0.0000
     16 H6         7.3674    4.8101    9.8342 H         1 RES1    0.0000
     17 C5         8.4526    1.3567    8.6242 C.2       1 RES1    0.0000
     18 C6         8.3717    0.0055    9.1831 C.ar      1 RES1    0.0000
     19 C7         9.0349   -0.3323   10.3679 C.ar      1 RES1    0.0000
     20 H7         9.5492    0.3498   10.7740 H         1 RES1    0.0000
     21 C8         8.9317   -1.6289   10.8730 C.ar      1 RES1    0.0000
     22 H8         9.4803   -1.9131   11.5963 H         1 RES1    0.0000
     23 C9         8.2072   -2.5723   10.2084 C.ar      1 RES1    0.0000
     24 H9         8.1599   -3.5529   10.5558 H         1 RES1    0.0000
     25 C10        7.5388   -2.2422    9.0488 C.ar      1 RES1    0.0000
     26 H10        6.9691   -2.9735    8.6091 H         1 RES1    0.0000
     27 C11        7.6314   -0.9806    8.5386 C.ar      1 RES1    0.0000
     28 H11        7.0524   -0.7106    7.7868 H         1 RES1    0.0000
     29 C12        8.6239    1.7098    7.1676 C.3       1 RES1    0.0000
     30 C13        9.8371    0.9948    6.5080 C.3       1 RES1    0.0000
     31 H12       10.0095    0.1968    7.0820 H         1 RES1    0.0000
     32 C14       11.1161    1.8103    6.4124 C.ar      1 RES1    0.0000
     33 C15       11.3197    2.8062    5.4642 C.ar      1 RES1    0.0000
     34 H13       10.6056    3.0063    4.8332 H         1 RES1    0.0000
     35 C16       12.4934    3.5343    5.4642 C.ar      1 RES1    0.0000
     36 H14       12.4238    4.1979    4.7996 H         1 RES1    0.0000
     37 C17       13.4823    3.2960    6.3771 C.ar      1 RES1    0.0000
     38 H15       14.3929    3.8371    6.2764 H         1 RES1    0.0000
     39 C18       13.2928    2.3318    7.3136 C.ar      1 RES1    0.0000
     40 H16       13.8900    2.1755    8.0050 H         1 RES1    0.0000
     41 C19       12.1019    1.5862    7.3337 C.ar      1 RES1    0.0000
     42 H17       12.0173    0.9292    8.0218 H         1 RES1    0.0000
     43 C20        9.2615    0.3673    5.1873 C.3       1 RES1    0.0000
     44 O5        10.0148    0.5827    4.0126 O.3       1 RES1    0.0000
     45 H18        9.7337    1.3993    3.7256 H         1 RES1    0.0000
     46 C21        9.0106   -1.1129    5.3350 C.2       1 RES1    0.0000
     47 C22       10.0638   -2.0705    5.6303 C.ar      1 RES1    0.0000
     48 C23       11.3986   -1.6496    5.5447 C.ar      1 RES1    0.0000
     49 H19       11.6675   -0.7543    5.3031 H         1 RES1    0.0000
     50 C24       12.4480   -2.5450    5.7881 C.ar      1 RES1    0.0000
     51 H20       13.3924   -2.0334    5.7898 H         1 RES1    0.0000
     52 C25       12.1777   -3.8503    6.1069 C.ar      1 RES1    0.0000
     53 H21       12.9502   -4.5368    6.1757 H         1 RES1    0.0000
     54 C26       10.8662   -4.2952    6.1707 C.ar      1 RES1    0.0000
     55 H22       10.6122   -5.2692    6.4107 H         1 RES1    0.0000
     56 C27        9.8125   -3.4173    5.9341 C.ar      1 RES1    0.0000
     57 H23        8.8780   -3.7059    6.1086 H         1 RES1    0.0000
     58 C28        6.9162   -0.2132    4.6452 C.3       1 RES1    0.0000
     59 C29        5.5234   -0.2296    5.2695 C.3       1 RES1    0.0000
     60 H24        5.6293   -0.3170    6.1925 H         1 RES1    0.0000
     61 H25        4.9771   -0.9620    4.9339 H         1 RES1    0.0000
     62 H26        5.0345    0.5357    4.8668 H         1 RES1    0.0000
     63 C30        6.8381   -0.3564    3.1332 C.3       1 RES1    0.0000
     64 H27        7.8412   -0.2842    2.7187 H         1 RES1    0.0000
     65 H28        6.4177    0.3608    2.7355 H         1 RES1    0.0000
     66 H29        6.3360   -1.2681    2.9201 H         1 RES1    0.0000
     67 C31        7.8126    0.9445    5.0749 C.3       1 RES1    0.0000
     68 O6         7.8518    2.0279    4.2207 O.3       1 RES1    0.0000
     69 H30        6.9493    2.3285    3.8766 H         1 RES1    0.0000
@<TRIPOS>BOND
     1    1    2 2
     2    2    4 1
     3    3    4 1
     4    4    8 1
     5    5    3 2
     6    6    7 2
     7    8    9 1
     8   10    8 1
     9   11    8 1
    10   12   29 1
    11   13    4 1
    12   14   13 1
    13   15   13 1
    14   16   13 1
    15   17    3 2
    16   18   17 1
    17   19   18 ar
    18   20   19 1
    19   21   19 ar
    20   22   21 1
    21   23   21 ar
    22   24   23 1
    23   25   23 ar
    24   26   25 1
    25   27   18 ar
    26   28   27 1
    27   29    2 1
    28   30   29 1
    29   31   30 1
    30   32   30 1
    31   33   32 ar
    32   34   33 1
    33   35   33 ar
    34   36   35 1
    35   37   35 ar
    36   38   37 1
    37   39   37 ar
    38   40   39 1
    39   41   32 ar
    40   42   41 1
    41   43   30 1
    42   44   43 1
    43   45   44 1
    44   46    6 2
    45   47   46 1
    46   48   47 ar
    47   49   48 1
    48   50   48 ar
    49   51   50 1
    50   52   50 ar
    51   53   52 1
    52   54   52 ar
    53   55   54 1
    54   56   47 ar
    55   57   56 1
    56   58    6 1
    57   59   58 1
    58   60   59 1
    59   61   59 1
    60   62   59 1
    61   63   58 1
    62   64   63 1
    63   65   63 1
    64   66   63 1
    65   67   12 1
    66   68   67 1
    67   69   68 1
    68   17   29 1
    69   25   27 ar
    70   39   41 ar
    71   43   46 1
    72   43   67 1
    73   54   56 ar
    74   58   67 1
@<TRIPOS>SUBSTRUCTURE
     1 RES1 1

@<TRIPOS>CRYSIN
  14.4900   10.9320   17.1380  90.0000 101.7000  90.0000  14 1

