# MOL2 file generated by ConQuest
# Please check atom types

@<TRIPOS>MOLECULE
WOKCOO
    73    78     1
SMALL
NO_CHARGES
****
Generated from CSD

@<TRIPOS>ATOM
      1 N1         0.9701   -3.6996    6.1894 N.3       1 RES1    0.0000
      2 O1         5.3688   -1.0822    5.1166 O.3       1 RES1    0.0000
      3 O2         7.1157   -3.7102    3.4966 O.3       1 RES1    0.0000
      4 O3         6.3391   -3.3138    1.3794 O.3       1 RES1    0.0000
      5 O4         3.2943   -3.4337    1.4864 O.3       1 RES1    0.0000
      6 O5         4.4356   -3.2270    4.9594 O.3       1 RES1    0.0000
      7 O6         1.5435   -2.8442    5.1591 O.3       1 RES1    0.0000
      8 O7         1.6154   -5.7534    8.4622 O.3       1 RES1    0.0000
      9 O8        -0.2910   -6.9838    8.1807 O.3       1 RES1    0.0000
     10 O9        -2.2014   -5.5567    6.4410 O.3       1 RES1    0.0000
     11 H1        -2.7077   -4.9182    6.3482 H         1 RES1    0.0000
     12 C1         5.6289   -2.4325    4.8964 C.3       1 RES1    0.0000
     13 H2         6.2438   -2.7456    5.5932 H         1 RES1    0.0000
     14 C2         6.3379   -2.5264    3.5563 C.3       1 RES1    0.0000
     15 H3         6.9187   -1.7461    3.4368 H         1 RES1    0.0000
     16 C3         5.4553   -2.7036    2.3137 C.3       1 RES1    0.0000
     17 H4         5.1939   -1.8211    1.9771 H         1 RES1    0.0000
     18 C4         4.1974   -3.5265    2.5843 C.3       1 RES1    0.0000
     19 H5         4.4482   -4.4645    2.7164 H         1 RES1    0.0000
     20 C5         3.5323   -2.9972    3.8568 C.3       1 RES1    0.0000
     21 H6         3.3786   -2.0338    3.7624 H         1 RES1    0.0000
     22 C6         2.2270   -3.6747    4.1666 C.3       1 RES1    0.0000
     23 H7         1.6847   -3.7291    3.3519 H         1 RES1    0.0000
     24 C7         2.3357   -5.0718    4.8115 C.3       1 RES1    0.0000
     25 H8         1.7138   -5.6961    4.4073 H         1 RES1    0.0000
     26 H9         3.2373   -5.4250    4.7360 H         1 RES1    0.0000
     27 C8         1.9685   -4.7906    6.2759 C.3       1 RES1    0.0000
     28 H10        2.7630   -4.4456    6.7336 H         1 RES1    0.0000
     29 C9         1.4601   -5.9897    7.0450 C.3       1 RES1    0.0000
     30 H11        1.9827   -6.7789    6.7918 H         1 RES1    0.0000
     31 C10       -0.0260   -6.3211    6.9444 C.3       1 RES1    0.0000
     32 H12       -0.1800   -6.9354    6.1972 H         1 RES1    0.0000
     33 C11       -0.9000   -5.0865    6.7886 C.3       1 RES1    0.0000
     34 H13       -0.9468   -4.6116    7.6443 H         1 RES1    0.0000
     35 C12       -0.3516   -4.1562    5.7285 C.3       1 RES1    0.0000
     36 H14       -0.2696   -4.6228    4.8823 H         1 RES1    0.0000
     37 H15       -0.9455   -3.3983    5.6058 H         1 RES1    0.0000
     38 C13        7.4343   -3.8933    2.1014 C.3       1 RES1    0.0000
     39 C14        8.7004   -3.2105    1.6987 C.3       1 RES1    0.0000
     40 H16        8.8650   -3.3664    0.7660 H         1 RES1    0.0000
     41 H17        9.4304   -3.5590    2.2146 H         1 RES1    0.0000
     42 H18        8.6200   -2.2665    1.8544 H         1 RES1    0.0000
     43 C15        7.4722   -5.3748    1.8592 C.3       1 RES1    0.0000
     44 H19        7.6847   -5.5425    0.9374 H         1 RES1    0.0000
     45 H20        6.6157   -5.7552    2.0636 H         1 RES1    0.0000
     46 H21        8.1432   -5.7735    2.4191 H         1 RES1    0.0000
     47 C16        3.3785   -4.4775    0.6119 C.3       1 RES1    0.0000
     48 H22        3.1500   -5.2956    1.0806 H         1 RES1    0.0000
     49 H23        4.2965   -4.5573    0.3083 H         1 RES1    0.0000
     50 C17        2.4881   -4.3416   -0.5773 C.ar      1 RES1    0.0000
     51 C18        2.7323   -3.6978   -1.7915 C.ar      1 RES1    0.0000
     52 H24        3.5139   -3.2045   -1.8906 H         1 RES1    0.0000
     53 C19        1.8296   -3.7746   -2.8705 C.ar      1 RES1    0.0000
     54 H25        2.0226   -3.4030   -3.7026 H         1 RES1    0.0000
     55 C20        0.7112   -4.3889   -2.6299 C.ar      1 RES1    0.0000
     56 H26        0.1382   -4.4911   -3.3566 H         1 RES1    0.0000
     57 C21        0.2884   -4.8910   -1.4943 C.ar      1 RES1    0.0000
     58 H27       -0.5704   -5.2159   -1.3590 H         1 RES1    0.0000
     59 C22        1.3106   -4.8733   -0.4829 C.ar      1 RES1    0.0000
     60 H28        1.1063   -5.2897    0.3224 H         1 RES1    0.0000
     61 C23        0.7457   -6.6743    9.1354 C.3       1 RES1    0.0000
     62 C24        0.1635   -5.9944   10.3308 C.3       1 RES1    0.0000
     63 H29       -0.4192   -6.6017   10.7917 H         1 RES1    0.0000
     64 H30       -0.3360   -5.2236   10.0493 H         1 RES1    0.0000
     65 H31        0.8702   -5.7203   10.9191 H         1 RES1    0.0000
     66 C25        1.4669   -7.9668    9.4767 C.3       1 RES1    0.0000
     67 H32        0.8605   -8.5652    9.9187 H         1 RES1    0.0000
     68 H33        2.2079   -7.7760   10.0571 H         1 RES1    0.0000
     69 H34        1.7895   -8.3755    8.6698 H         1 RES1    0.0000
     70 C26        5.1331   -0.7868    6.4914 C.3       1 RES1    0.0000
     71 H35        4.9552    0.1512    6.5905 H         1 RES1    0.0000
     72 H36        5.9087   -1.0213    7.0057 H         1 RES1    0.0000
     73 H37        4.3777   -1.2907    6.8012 H         1 RES1    0.0000
@<TRIPOS>BOND
     1    1    7 1
     2    2   12 1
     3    3   14 1
     4    4   16 1
     5    5   18 1
     6    6   12 1
     7    7   22 1
     8    8   29 1
     9    9   31 1
    10   10   11 1
    11   12   13 1
    12   14   12 1
    13   15   14 1
    14   16   14 1
    15   17   16 1
    16   18   16 1
    17   19   18 1
    18   20    6 1
    19   21   20 1
    20   22   20 1
    21   23   22 1
    22   24   22 1
    23   25   24 1
    24   26   24 1
    25   27    1 1
    26   28   27 1
    27   29   27 1
    28   30   29 1
    29   31   29 1
    30   32   31 1
    31   33   10 1
    32   34   33 1
    33   35    1 1
    34   36   35 1
    35   37   35 1
    36   38    3 1
    37   39   38 1
    38   40   39 1
    39   41   39 1
    40   42   39 1
    41   43   38 1
    42   44   43 1
    43   45   43 1
    44   46   43 1
    45   47    5 1
    46   48   47 1
    47   49   47 1
    48   50   47 1
    49   51   50 ar
    50   52   51 1
    51   53   51 ar
    52   54   53 1
    53   55   53 ar
    54   56   55 1
    55   57   55 ar
    56   58   57 1
    57   59   50 ar
    58   60   59 1
    59   61    8 1
    60   62   61 1
    61   63   62 1
    62   64   62 1
    63   65   62 1
    64   66   61 1
    65   67   66 1
    66   68   66 1
    67   69   66 1
    68   70    2 1
    69   71   70 1
    70   72   70 1
    71   73   70 1
    72    4   38 1
    73    9   61 1
    74   18   20 1
    75   24   27 1
    76   31   33 1
    77   33   35 1
    78   57   59 ar
@<TRIPOS>SUBSTRUCTURE
     1 RES1 1

@<TRIPOS>CRYSIN
  14.5490    5.9070   16.3450  90.0000 105.7800  90.0000   4 1

