# MOL2 file generated by ConQuest
# Please check atom types

@<TRIPOS>MOLECULE
WOKCIJ
    66    71     1
SMALL
NO_CHARGES
****
Generated from CSD

@<TRIPOS>ATOM
      1 C1         0.6835    1.5863    1.7885 C.2       1 RES1    0.0000
      2 N1         1.3344    1.8568    0.6676 N.pl3     1 RES1    0.0000
      3 C2         2.7166    2.3598    0.8318 C.3       1 RES1    0.0000
      4 C3         2.9142    2.1752    2.3239 C.2       1 RES1    0.0000
      5 C4         1.6124    1.6634    2.9558 C.3       1 RES1    0.0000
      6 O1         1.2040    2.5474    4.0556 O.3       1 RES1    0.0000
      7 C5         1.5208    1.5034    5.0763 C.3       1 RES1    0.0000
      8 C6         0.5032    1.4075    6.1865 C.2       1 RES1    0.0000
      9 N2         0.9514    2.0283    7.2574 N.pl3     1 RES1    0.0000
     10 C7         2.3183    2.6099    7.1253 C.3       1 RES1    0.0000
     11 C8         2.7686    1.9280    5.8563 C.2       1 RES1    0.0000
     12 C9         1.6063    0.4609    3.9518 C.3       1 RES1    0.0000
     13 H1         0.7252    0.0378    3.8857 H         1 RES1    0.0000
     14 O2         0.8699    1.7652   -0.5242 O.2       1 RES1    0.0000
     15 O3         3.9012    2.4762    2.9058 O.2       1 RES1    0.0000
     16 O4         3.9033    1.7070    5.5707 O.2       1 RES1    0.0000
     17 O5         0.3392    2.1432    8.3694 O.2       1 RES1    0.0000
     18 C10        3.7077    1.5689   -0.0071 C.3       1 RES1    0.0000
     19 H2         3.6741    0.6427    0.2463 H         1 RES1    0.0000
     20 H3         4.5939    1.9091    0.1392 H         1 RES1    0.0000
     21 H4         3.4816    1.6547   -0.9371 H         1 RES1    0.0000
     22 C11        2.7186    3.8444    0.4855 C.3       1 RES1    0.0000
     23 H5         2.0749    4.3024    1.0317 H         1 RES1    0.0000
     24 H6         2.4905    3.9563   -0.4409 H         1 RES1    0.0000
     25 H7         3.5916    4.2093    0.6461 H         1 RES1    0.0000
     26 C12        2.1869    4.1235    6.9397 C.3       1 RES1    0.0000
     27 H8         1.6410    4.3053    6.1722 H         1 RES1    0.0000
     28 H9         3.0578    4.5059    6.8112 H         1 RES1    0.0000
     29 H10        1.7805    4.5074    7.7197 H         1 RES1    0.0000
     30 C13        3.1862    2.2304    8.3087 C.3       1 RES1    0.0000
     31 H11        3.2412    1.2752    8.3730 H         1 RES1    0.0000
     32 H12        2.8012    2.5838    9.1137 H         1 RES1    0.0000
     33 H13        4.0663    2.5954    8.1891 H         1 RES1    0.0000
     34 C14       -0.7252    1.2112    1.8170 C.ar      1 RES1    0.0000
     35 C15       -1.2957    0.3795    0.8478 C.ar      1 RES1    0.0000
     36 H14       -0.7670    0.0465    0.1589 H         1 RES1    0.0000
     37 C16       -2.6280    0.0480    0.9049 C.ar      1 RES1    0.0000
     38 H15       -2.9926   -0.5060    0.2535 H         1 RES1    0.0000
     39 C17       -3.4286    0.5278    1.9170 C.ar      1 RES1    0.0000
     40 H16       -4.3250    0.2850    1.9580 H         1 RES1    0.0000
     41 C18       -2.8989    1.3653    2.8612 C.ar      1 RES1    0.0000
     42 H17       -3.4429    1.7012    3.5359 H         1 RES1    0.0000
     43 C19       -1.5554    1.7201    2.8184 C.ar      1 RES1    0.0000
     44 H18       -1.2081    2.2959    3.4591 H         1 RES1    0.0000
     45 C20        2.6188   -0.6383    3.9678 C.ar      1 RES1    0.0000
     46 C21        3.1261   -1.1268    2.7862 C.ar      1 RES1    0.0000
     47 H19        2.8765   -0.7386    1.9777 H         1 RES1    0.0000
     48 C22        4.0072   -2.1970    2.7934 C.ar      1 RES1    0.0000
     49 H20        4.3637   -2.5096    1.9937 H         1 RES1    0.0000
     50 C23        4.3566   -2.7975    3.9785 C.ar      1 RES1    0.0000
     51 H21        4.9402   -3.5216    3.9803 H         1 RES1    0.0000
     52 C24        3.8422   -2.3249    5.1584 C.ar      1 RES1    0.0000
     53 H22        4.0754   -2.7262    5.9651 H         1 RES1    0.0000
     54 C25        2.9845   -1.2592    5.1423 C.ar      1 RES1    0.0000
     55 H23        2.6382   -0.9451    5.9455 H         1 RES1    0.0000
     56 C26       -0.8302    0.8331    6.1204 C.ar      1 RES1    0.0000
     57 C27       -1.0318   -0.4900    5.7777 C.ar      1 RES1    0.0000
     58 H24       -0.3076   -1.0425    5.5867 H         1 RES1    0.0000
     59 C28       -2.3326   -0.9873    5.7206 C.ar      1 RES1    0.0000
     60 H25       -2.4762   -1.8713    5.4671 H         1 RES1    0.0000
     61 C29       -3.3950   -0.1963    6.0294 C.ar      1 RES1    0.0000
     62 H26       -4.2567   -0.5438    5.9937 H         1 RES1    0.0000
     63 C30       -3.2025    1.1196    6.3953 C.ar      1 RES1    0.0000
     64 H27       -3.9287    1.6576    6.6166 H         1 RES1    0.0000
     65 C31       -1.9364    1.6241    6.4256 C.ar      1 RES1    0.0000
     66 H28       -1.8070    2.5154    6.6577 H         1 RES1    0.0000
@<TRIPOS>BOND
     1    1    2 2
     2    2    3 1
     3    3    4 1
     4    4    5 1
     5    5    1 1
     6    6    5 1
     7    7    6 1
     8    8    7 1
     9    9    8 2
    10   10    9 1
    11   11    7 1
    12   12    5 1
    13   13   12 1
    14   14    2 2
    15   15    4 2
    16   16   11 2
    17   17    9 2
    18   18    3 1
    19   19   18 1
    20   20   18 1
    21   21   18 1
    22   22    3 1
    23   23   22 1
    24   24   22 1
    25   25   22 1
    26   26   10 1
    27   27   26 1
    28   28   26 1
    29   29   26 1
    30   30   10 1
    31   31   30 1
    32   32   30 1
    33   33   30 1
    34   34    1 1
    35   35   34 ar
    36   36   35 1
    37   37   35 ar
    38   38   37 1
    39   39   37 ar
    40   40   39 1
    41   41   39 ar
    42   42   41 1
    43   43   34 ar
    44   44   43 1
    45   45   12 1
    46   46   45 ar
    47   47   46 1
    48   48   46 ar
    49   49   48 1
    50   50   48 ar
    51   51   50 1
    52   52   50 ar
    53   53   52 1
    54   54   45 ar
    55   55   54 1
    56   56    8 1
    57   57   56 ar
    58   58   57 1
    59   59   57 ar
    60   60   59 1
    61   61   59 ar
    62   62   61 1
    63   63   61 ar
    64   64   63 1
    65   65   56 ar
    66   66   65 1
    67    7   12 1
    68   10   11 1
    69   41   43 ar
    70   52   54 ar
    71   63   65 ar
@<TRIPOS>SUBSTRUCTURE
     1 RES1 1

@<TRIPOS>CRYSIN
  10.1860   14.5400   17.8490  90.0000  90.0000  90.0000  19 1

