# MOL2 file generated by ConQuest
# Please check atom types

@<TRIPOS>MOLECULE
WOKGIM
    68    65     2
SMALL
NO_CHARGES
****
Generated from CSD

@<TRIPOS>ATOM
      1 N1        -2.3647    7.1014    6.8530 N.pl3     1 RES1    0.0000
      2 N2         0.8329    4.8377    3.8376 N.pl3     1 RES1    0.0000
      3 N3         0.1963    4.4571    7.5077 N.3       1 RES1    0.0000
      4 C1        -1.0037    6.4028    6.7191 C.3       1 RES1    0.0000
      5 C2        -1.0800    5.1588    7.5906 C.3       1 RES1    0.0000
      6 H1        -1.2622    5.4088    8.5105 H         1 RES1    0.0000
      7 H2        -1.7965    4.5823    7.2830 H         1 RES1    0.0000
      8 C3         0.4841    4.0692    6.1437 C.3       1 RES1    0.0000
      9 H3        -0.2166    3.4872    5.8114 H         1 RES1    0.0000
     10 H4         1.3240    3.5849    6.1093 H         1 RES1    0.0000
     11 C4         0.5712    5.3173    5.2801 C.3       1 RES1    0.0000
     12 C5         1.6686    6.2357    5.7154 C.2       1 RES1    0.0000
     13 H5         2.5268    6.1668    5.3638 H         1 RES1    0.0000
     14 C6         1.3573    7.1731    6.6451 C.2       1 RES1    0.0000
     15 H6         2.0435    7.7201    6.9517 H         1 RES1    0.0000
     16 C7         0.0569    7.3817    7.1870 C.3       1 RES1    0.0000
     17 H7        -0.2305    8.2798    6.9570 H         1 RES1    0.0000
     18 H8         0.1159    7.3334    8.1537 H         1 RES1    0.0000
     19 C8        -0.7629    6.0328    5.2730 C.3       1 RES1    0.0000
     20 H9        -0.7256    6.8265    4.7152 H         1 RES1    0.0000
     21 H10       -1.4647    5.4505    4.9435 H         1 RES1    0.0000
     22 C9         0.2130    3.3004    8.4145 C.3       1 RES1    0.0000
     23 H11       -0.4016    2.6303    8.0770 H         1 RES1    0.0000
     24 H12       -0.1076    3.5821    9.2851 H         1 RES1    0.0000
     25 C10        1.5687    2.6750    8.5775 C.3       1 RES1    0.0000
     26 H13        1.8390    2.2941    7.7280 H         1 RES1    0.0000
     27 H14        1.5008    1.9488    9.2172 H         1 RES1    0.0000
     28 O1        -2.4701    8.2185    6.4124 O.2       1 RES1    0.0000
     29 O2        -3.2956    6.5381    7.3923 O.2       1 RES1    0.0000
     30 O3         0.8720    5.6211    2.9256 O.2       1 RES1    0.0000
     31 O4         1.0036    3.6650    3.5900 O.2       1 RES1    0.0000
     32 O5        -2.5363    7.6791    7.8963 Du        2 SUP2    0.0000
     33 O6        -3.0899    6.9802    5.8890 Du        2 SUP2    0.0000
     34 O7         0.0184    5.1178    2.9916 Du        2 SUP2    0.0000
     35 O8         1.8253    4.2019    3.5697 Du        2 SUP2    0.0000
     36 O9        -0.0513    4.2464    3.2719 Du        2 SUP2    0.0000
     37 O10        1.9481    5.1449    3.4719 Du        2 SUP2    0.0000
     38 C10A       2.6495    3.6415    9.0463 C.3       1 RES1    0.0000
     39 C9A        4.0052    3.0160    9.2093 C.3       1 RES1    0.0000
     40 N3A        4.0219    1.8594   10.1161 N.3       1 RES1    0.0000
     41 C2A        5.2982    1.1577   10.0332 C.3       1 RES1    0.0000
     42 C1A        5.2219   -0.0863   10.9047 C.3       1 RES1    0.0000
     43 N1A        6.5829   -0.7850   10.7708 N.pl3     1 RES1    0.0000
     44 O1A        6.6883   -1.9021   11.2114 O.2       1 RES1    0.0000
     45 O2A        7.5138   -0.2216   10.2315 O.2       1 RES1    0.0000
     46 C7A        4.1612   -1.0653   10.4368 C.3       1 RES1    0.0000
     47 C6A        2.8609   -0.8567   10.9787 C.2       1 RES1    0.0000
     48 C5A        2.5495    0.0807   11.9084 C.2       1 RES1    0.0000
     49 C4A        3.6469    0.9991   12.3437 C.3       1 RES1    0.0000
     50 N2A        3.3853    1.4788   13.7862 N.pl3     1 RES1    0.0000
     51 O3A        3.3461    0.6954   14.6983 O.2       1 RES1    0.0000
     52 O4A        3.2146    2.6515   14.0338 O.2       1 RES1    0.0000
     53 C3A        3.7340    2.2472   11.4801 C.3       1 RES1    0.0000
     54 H3A        4.4347    2.8292   11.8124 H         1 RES1    0.0000
     55 H4A        2.8942    2.7315   11.5145 H         1 RES1    0.0000
     56 C8A        4.9811    0.2837   12.3508 C.3       1 RES1    0.0000
     57 H9A        4.9438   -0.5101   12.9086 H         1 RES1    0.0000
     58 H10A       5.6829    0.8659   12.6803 H         1 RES1    0.0000
     59 H5A        1.6914    0.1497   12.2600 H         1 RES1    0.0000
     60 H6A        2.1747   -1.4036   10.6721 H         1 RES1    0.0000
     61 H7A        4.4486   -1.9633   10.6668 H         1 RES1    0.0000
     62 H8A        4.1023   -1.0170    9.4702 H         1 RES1    0.0000
     63 H1A        5.4804    0.9077    9.1133 H         1 RES1    0.0000
     64 H2A        6.0147    1.7341   10.3408 H         1 RES1    0.0000
     65 H11A       4.6198    3.6862    9.5468 H         1 RES1    0.0000
     66 H12A       4.3257    2.7344    8.3387 H         1 RES1    0.0000
     67 H13A       2.3791    4.0223    9.8958 H         1 RES1    0.0000
     68 H14A       2.7174    4.3676    8.4066 H         1 RES1    0.0000
@<TRIPOS>BOND
     1    1    4 1
     2    2   11 1
     3    3    5 1
     4    4    5 1
     5    5    6 1
     6    7    5 1
     7    8    3 1
     8    9    8 1
     9   10    8 1
    10   11    8 1
    11   12   11 1
    12   13   12 1
    13   14   12 2
    14   15   14 1
    15   16    4 1
    16   17   16 1
    17   18   16 1
    18   19    4 1
    19   20   19 1
    20   21   19 1
    21   22    3 1
    22   23   22 1
    23   24   22 1
    24   25   22 1
    25   26   25 1
    26   27   25 1
    27   28    1 2
    28   29    1 2
    29   30    2 2
    30   31    2 2
    31   38   25 1
    32   39   38 1
    33   40   39 1
    34   41   40 1
    35   42   41 1
    36   43   42 1
    37   44   43 2
    38   45   43 2
    39   46   42 1
    40   47   46 1
    41   48   47 2
    42   49   48 1
    43   50   49 1
    44   51   50 2
    45   52   50 2
    46   53   40 1
    47   54   53 1
    48   55   53 1
    49   56   42 1
    50   57   56 1
    51   58   56 1
    52   59   48 1
    53   60   47 1
    54   61   46 1
    55   62   46 1
    56   63   41 1
    57   64   41 1
    58   65   39 1
    59   66   39 1
    60   67   38 1
    61   68   38 1
    62   11   19 1
    63   14   16 1
    64   49   53 1
    65   49   56 1
@<TRIPOS>SUBSTRUCTURE
     1 RES1 1
     2 SUP2 32

@<TRIPOS>CRYSIN
   7.9920    8.4050    8.9190  94.6100  96.4300 102.2000   2 1

