# MOL2 file generated by ConQuest
# Please check atom types

@<TRIPOS>MOLECULE
WOKMOY
    38    40     2
SMALL
NO_CHARGES
****
Generated from CSD

@<TRIPOS>ATOM
      1 O1         1.7651   10.1064   10.8167 O.2       1 RES1    0.0000
      2 O2         0.3193    9.4919   12.2890 O.2       1 RES1    0.0000
      3 O3        -3.4262    4.4424   17.2893 O.2       1 RES1    0.0000
      4 O4        -2.0532    2.7883   17.1035 O.2       1 RES1    0.0000
      5 N1         1.9920    5.6785   12.3081 N.ar      1 RES1    0.0000
      6 N2        -0.4156   -0.9092   13.7387 N.ar      2 RES2    0.0000
      7 O5        -4.1893    1.0037   15.7302 O.2       2 RES2    0.0000
      8 O6        -3.2321    2.1235   14.1745 O.2       2 RES2    0.0000
      9 O7         2.4197    3.7685    8.7106 O.2       2 RES2    0.0000
     10 O8         3.3665    1.8263    8.6690 O.2       2 RES2    0.0000
     11 N3         0.4049    7.0591   13.2856 N.pl3     1 RES1    0.0000
     12 N4        -1.1508    1.1312   12.9192 N.pl3     2 RES2    0.0000
     13 N5        -1.2849    6.7354   14.7440 N.ar      1 RES1    0.0000
     14 N6        -0.3154    2.5868   11.4209 N.ar      2 RES2    0.0000
     15 N7         1.2832    9.2578   11.5684 N.pl3     1 RES1    0.0000
     16 N8        -3.3113    1.1245   14.8916 N.pl3     2 RES2    0.0000
     17 N9        -2.4369    3.9123   16.8049 N.pl3     1 RES1    0.0000
     18 N10        2.5116    2.6033    9.0787 N.pl3     2 RES2    0.0000
     19 C1         3.0162    5.5158   11.4712 C.ar      1 RES1    0.0000
     20 C2        -0.5230   -1.9140   14.5981 C.ar      2 RES2    0.0000
     21 C3         3.5356    6.5022   10.6760 C.ar      1 RES1    0.0000
     22 C4        -1.5259   -2.0129   15.5600 C.ar      2 RES2    0.0000
     23 C5         2.9597    7.7446   10.7316 C.ar      1 RES1    0.0000
     24 C6        -2.4453   -0.9907   15.6312 C.ar      2 RES2    0.0000
     25 C7         1.8901    7.9478   11.6032 C.ar      1 RES1    0.0000
     26 C8        -2.3332    0.0729   14.7492 C.ar      2 RES2    0.0000
     27 C9         1.4239    6.8860   12.3966 C.ar      1 RES1    0.0000
     28 C10       -1.2914    0.0868   13.7925 C.ar      2 RES2    0.0000
     29 C11       -1.9832    5.9927   15.5878 C.ar      1 RES1    0.0000
     30 C12        0.5516    2.9628   10.5041 C.ar      2 RES2    0.0000
     31 C13       -1.6586    4.6703   15.8395 C.ar      1 RES1    0.0000
     32 C14        1.5697    2.1203   10.0562 C.ar      2 RES2    0.0000
     33 C15       -0.5944    4.0755   15.2076 C.ar      1 RES1    0.0000
     34 C16        1.6585    0.8478   10.5389 C.ar      2 RES2    0.0000
     35 C17        0.1327    4.8330   14.3151 C.ar      1 RES1    0.0000
     36 C18        0.7674    0.4307   11.5094 C.ar      2 RES2    0.0000
     37 C19       -0.2242    6.1513   14.1190 C.ar      1 RES1    0.0000
     38 C20       -0.1826    1.3451   11.9313 C.ar      2 RES2    0.0000
@<TRIPOS>BOND
     1    1   15 2
     2    2   15 2
     3    3   17 2
     4    4   17 2
     5    5   19 ar
     6    6   20 ar
     7    7   16 2
     8    8   16 2
     9    9   18 2
    10   10   18 2
    11   11   27 1
    12   12   28 1
    13   13   29 ar
    14   14   30 ar
    15   15   25 1
    16   16   26 1
    17   17   31 1
    18   18   32 1
    19   19   21 ar
    20   20   22 ar
    21   21   23 ar
    22   22   24 ar
    23   23   25 ar
    24   24   26 ar
    25   25   27 ar
    26   26   28 ar
    27   27    5 ar
    28   28    6 ar
    29   29   31 ar
    30   30   32 ar
    31   31   33 ar
    32   32   34 ar
    33   33   35 ar
    34   34   36 ar
    35   35   37 ar
    36   36   38 ar
    37   37   11 1
    38   38   12 1
    39   13   37 ar
    40   14   38 ar
@<TRIPOS>SUBSTRUCTURE
     1 RES1 1
     2 RES2 6

@<TRIPOS>CRYSIN
   5.2400   12.1190   17.3690  90.1500  91.5500  99.2500   2 1

