# MOL2 file generated by ConQuest
# Please check atom types

@<TRIPOS>MOLECULE
WOKSIY01
    37    38     1
SMALL
NO_CHARGES
****
Generated from CSD

@<TRIPOS>ATOM
      1 N1         7.1324    7.1660    7.0423 N.2       1 RES1    0.0000
      2 N2         7.4155    6.7097    5.9247 N.2       1 RES1    0.0000
      3 N3        10.9470   10.2173    6.2142 N.pl3     1 RES1    0.0000
      4 N4         4.3470    2.4104    4.0236 N.3       1 RES1    0.0000
      5 O1        11.1692    9.5608    5.2250 O.2       1 RES1    0.0000
      6 O2        11.6086   11.1731    6.5268 O.2       1 RES1    0.0000
      7 C1         8.0025    8.2832    7.4044 C.ar      1 RES1    0.0000
      8 C2         6.5686    5.6151    5.5388 C.ar      1 RES1    0.0000
      9 C3         9.0825    8.7180    6.6411 C.ar      1 RES1    0.0000
     10 H1         9.3054    8.2800    5.8288 H         1 RES1    0.0000
     11 C4         5.4615    5.1124    6.2506 C.ar      1 RES1    0.0000
     12 H2         5.2270    5.4967    7.0867 H         1 RES1    0.0000
     13 C5         9.8354    9.8148    7.0893 C.ar      1 RES1    0.0000
     14 C6         4.7234    4.0770    5.7512 C.ar      1 RES1    0.0000
     15 H3         3.9805    3.7531    6.2481 H         1 RES1    0.0000
     16 C7         9.5268   10.5144    8.2448 C.ar      1 RES1    0.0000
     17 C8         5.0394    3.4764    4.5110 C.ar      1 RES1    0.0000
     18 C9         6.1374    4.0168    3.8014 C.ar      1 RES1    0.0000
     19 H4         6.3688    3.6530    2.9552 H         1 RES1    0.0000
     20 C10        8.4537   10.0074    8.9761 C.ar      1 RES1    0.0000
     21 H5         8.2273   10.4315    9.7959 H         1 RES1    0.0000
     22 C11        6.8678    5.0489    4.3085 C.ar      1 RES1    0.0000
     23 H6         7.5983    5.3901    3.8076 H         1 RES1    0.0000
     24 C12        7.7094    8.9311    8.5744 C.ar      1 RES1    0.0000
     25 H7         6.9855    8.6308    9.1117 H         1 RES1    0.0000
     26 C13        3.2131    1.8642    4.7642 C.3       1 RES1    0.0000
     27 H8         3.5099    1.5843    5.6556 H         1 RES1    0.0000
     28 H9         2.8521    1.0903    4.2822 H         1 RES1    0.0000
     29 H10        2.5188    2.5498    4.8509 H         1 RES1    0.0000
     30 C14        4.6100    1.9061    2.6966 C.3       1 RES1    0.0000
     31 H11        5.5492    1.6349    2.6301 H         1 RES1    0.0000
     32 H12        4.4245    2.6079    2.0388 H         1 RES1    0.0000
     33 H13        4.0330    1.1333    2.5208 H         1 RES1    0.0000
     34 C15       10.2360   11.7317    8.7765 C.3       1 RES1    0.0000
     35 H14        9.8324   11.9986    9.6289 H         1 RES1    0.0000
     36 H15       10.1534   12.4657    8.1325 H         1 RES1    0.0000
     37 H16       11.1841   11.5229    8.9146 H         1 RES1    0.0000
@<TRIPOS>BOND
     1    1    2 2
     2    2    8 1
     3    3    5 2
     4    4   17 1
     5    6    3 2
     6    7    1 1
     7    8   11 ar
     8    9    7 ar
     9   10    9 1
    10   11   12 1
    11   13    3 1
    12   14   11 ar
    13   15   14 1
    14   16   13 ar
    15   17   14 ar
    16   18   17 ar
    17   19   18 1
    18   20   16 ar
    19   21   20 1
    20   22    8 ar
    21   23   22 1
    22   24    7 ar
    23   25   24 1
    24   26    4 1
    25   27   26 1
    26   28   26 1
    27   29   26 1
    28   30    4 1
    29   31   30 1
    30   32   30 1
    31   33   30 1
    32   34   16 1
    33   35   34 1
    34   36   34 1
    35   37   34 1
    36    9   13 ar
    37   18   22 ar
    38   20   24 ar
@<TRIPOS>SUBSTRUCTURE
     1 RES1 1

@<TRIPOS>CRYSIN
  10.5090   10.7630   13.1460  90.0000 107.2600  90.0000  14 1

