# MOL2 file generated by ConQuest
# Please check atom types

@<TRIPOS>MOLECULE
WOKSIY
    37    38     1
SMALL
NO_CHARGES
****
Generated from CSD

@<TRIPOS>ATOM
      1 N1         7.3796    7.0450    7.1360 N.2       1 RES1    0.0000
      2 N2         7.6722    6.6686    6.0478 N.2       1 RES1    0.0000
      3 N3        11.2190   10.1542    6.3032 N.pl3     1 RES1    0.0000
      4 N4         4.4770    2.4720    4.0391 N.3       1 RES1    0.0000
      5 O1        11.3972    9.5736    5.2776 O.2       1 RES1    0.0000
      6 O2        11.9059   11.0855    6.6315 O.2       1 RES1    0.0000
      7 C1         8.2961    8.1922    7.5128 C.ar      1 RES1    0.0000
      8 C2         6.7556    5.5609    5.6493 C.ar      1 RES1    0.0000
      9 C3         9.3601    8.6338    6.7094 C.ar      1 RES1    0.0000
     10 H1         9.5479    8.2147    5.9009 H         1 RES1    0.0000
     11 C4         5.6539    5.0466    6.3569 C.ar      1 RES1    0.0000
     12 H2         5.4376    5.3963    7.1909 H         1 RES1    0.0000
     13 C5        10.1405    9.7276    7.1539 C.ar      1 RES1    0.0000
     14 C6         4.9027    4.0405    5.8281 C.ar      1 RES1    0.0000
     15 H3         4.1786    3.7112    6.3096 H         1 RES1    0.0000
     16 C7         9.8589   10.3777    8.3494 C.ar      1 RES1    0.0000
     17 C8         5.2006    3.4909    4.5713 C.ar      1 RES1    0.0000
     18 C9         6.3008    4.0394    3.8880 C.ar      1 RES1    0.0000
     19 H4         6.5224    3.7101    3.0462 H         1 RES1    0.0000
     20 C10        8.7957    9.8537    9.0710 C.ar      1 RES1    0.0000
     21 H5         8.5821   10.2579    9.8808 H         1 RES1    0.0000
     22 C11        7.0402    5.0306    4.4244 C.ar      1 RES1    0.0000
     23 H6         7.7654    5.3620    3.9467 H         1 RES1    0.0000
     24 C12        8.0526    8.7984    8.6789 C.ar      1 RES1    0.0000
     25 H7         7.3645    8.4905    9.2243 H         1 RES1    0.0000
     26 C13        3.3396    1.9032    4.7565 C.3       1 RES1    0.0000
     27 H8         3.6257    1.5974    5.6212 H         1 RES1    0.0000
     28 H9         2.9835    1.1633    4.2584 H         1 RES1    0.0000
     29 H10        2.6599    2.5736    4.8638 H         1 RES1    0.0000
     30 C14        4.7429    1.9823    2.7039 C.3       1 RES1    0.0000
     31 H11        5.6771    1.7813    2.6171 H         1 RES1    0.0000
     32 H12        4.4975    2.6527    2.0628 H         1 RES1    0.0000
     33 H13        4.2285    1.1868    2.5468 H         1 RES1    0.0000
     34 C15       10.5585   11.5784    8.9139 C.3       1 RES1    0.0000
     35 H14       10.1365   11.8393    9.7352 H         1 RES1    0.0000
     36 H15       10.5093   12.3033    8.2855 H         1 RES1    0.0000
     37 H16       11.4791   11.3624    9.0813 H         1 RES1    0.0000
@<TRIPOS>BOND
     1    1    2 2
     2    2    8 1
     3    3    5 2
     4    4   17 1
     5    6    3 2
     6    7    1 1
     7    8   11 ar
     8    9    7 ar
     9   10    9 1
    10   11   12 1
    11   13    3 1
    12   14   11 ar
    13   15   14 1
    14   16   13 ar
    15   17   14 ar
    16   18   17 ar
    17   19   18 1
    18   20   16 ar
    19   21   20 1
    20   22    8 ar
    21   23   22 1
    22   24    7 ar
    23   25   24 1
    24   26    4 1
    25   27   26 1
    26   28   26 1
    27   29   26 1
    28   30    4 1
    29   31   30 1
    30   32   30 1
    31   33   30 1
    32   34   16 1
    33   35   34 1
    34   36   34 1
    35   37   34 1
    36    9   13 ar
    37   18   22 ar
    38   20   24 ar
@<TRIPOS>SUBSTRUCTURE
     1 RES1 1

@<TRIPOS>CRYSIN
  10.6260   10.6920   13.2760  90.0000 105.8300  90.0000  14 1

