# MOL2 file generated by ConQuest
# Please check atom types

@<TRIPOS>MOLECULE
WOLDAC
    54    60     2
SMALL
NO_CHARGES
****
Generated from CSD

@<TRIPOS>ATOM
      1 O1         5.6206    4.2880    6.1238 O.3       1 RES1    0.0000
      2 O2         4.0961    5.5201    7.2524 O.2       1 RES1    0.0000
      3 O3         1.1057    6.9759    1.1945 O.2       1 RES1    0.0000
      4 O4         2.4639    5.6171    0.1978 O.2       1 RES1    0.0000
      5 N1         2.0722    6.2267    1.1829 N.pl3     1 RES1    0.0000
      6 C1         7.1391    2.6646    7.0701 C.3       1 RES1    0.0000
      7 C2         6.6021    1.6202    6.0811 C.2       1 RES1    0.0000
      8 C3         6.1986    0.5350    6.7404 C.2       1 RES1    0.0000
      9 C4         6.3839    0.6288    8.2219 C.3       1 RES1    0.0000
     10 C5         7.3337    1.8232    8.3693 C.3       1 RES1    0.0000
     11 C6         8.4016    3.4787    6.7365 C.3       1 RES1    0.0000
     12 C7         8.4590    4.5086    7.8729 C.3       1 RES1    0.0000
     13 C8         6.9756    4.8744    8.1095 C.3       1 RES1    0.0000
     14 C9         6.1416    3.7939    7.3997 C.3       1 RES1    0.0000
     15 C10        6.4617    1.7622    4.6151 C.ar      1 RES1    0.0000
     16 C11        5.3173    1.2441    3.9830 C.ar      1 RES1    0.0000
     17 C12        5.1720    1.2826    2.5984 C.ar      1 RES1    0.0000
     18 C13        6.1499    1.8641    1.8189 C.ar      1 RES1    0.0000
     19 C14        7.2838    2.3879    2.4162 C.ar      1 RES1    0.0000
     20 C15        7.4492    2.3261    3.7929 C.ar      1 RES1    0.0000
     21 C16        4.5621    5.1174    6.2052 C.2       1 RES1    0.0000
     22 C17        4.0097    5.4623    4.8556 C.ar      1 RES1    0.0000
     23 C18        4.5134    4.9040    3.6844 C.ar      1 RES1    0.0000
     24 C19        3.8988    5.1727    2.4588 C.ar      1 RES1    0.0000
     25 C20        2.7867    6.0021    2.4627 C.ar      1 RES1    0.0000
     26 C21        2.2886    6.5981    3.6029 C.ar      1 RES1    0.0000
     27 C22        2.9108    6.3246    4.8129 C.ar      1 RES1    0.0000
     28 O5        -0.2521    0.9633    6.1315 O.3       2 RES2    0.0000
     29 O6        -1.8021   -0.1925    7.2911 O.2       2 RES2    0.0000
     30 O7        -4.4651   -2.2379    1.2488 O.2       2 RES2    0.0000
     31 O8        -3.2037   -0.8358    0.2094 O.2       2 RES2    0.0000
     32 N2        -3.5800   -1.3924    1.2255 N.pl3     2 RES2    0.0000
     33 C23        1.3059    2.5908    7.0080 C.3       2 RES2    0.0000
     34 C24        0.8129    3.5958    5.9570 C.2       2 RES2    0.0000
     35 C25        0.4525    4.7396    6.5426 C.2       2 RES2    0.0000
     36 C26        0.6505    4.7404    8.0319 C.3       2 RES2    0.0000
     37 C27        1.5172    3.4972    8.2607 C.3       2 RES2    0.0000
     38 C28        2.5445    1.7261    6.7288 C.3       2 RES2    0.0000
     39 C29        2.5501    0.7540    7.9194 C.3       2 RES2    0.0000
     40 C30        1.0543    0.4588    8.1754 C.3       2 RES2    0.0000
     41 C31        0.2659    1.5208    7.3881 C.3       2 RES2    0.0000
     42 C32        0.6655    3.3592    4.4910 C.ar      2 RES2    0.0000
     43 C33       -0.4793    3.8308    3.8317 C.ar      2 RES2    0.0000
     44 C34       -0.6354    3.6664    2.4588 C.ar      2 RES2    0.0000
     45 C35        0.3367    3.0231    1.7142 C.ar      2 RES2    0.0000
     46 C36        1.4846    2.5659    2.3502 C.ar      2 RES2    0.0000
     47 C37        1.6513    2.7384    3.7193 C.ar      2 RES2    0.0000
     48 C38       -1.3137    0.1508    6.2362 C.2       2 RES2    0.0000
     49 C39       -1.8350   -0.2711    4.8982 C.ar      2 RES2    0.0000
     50 C40       -1.2933    0.1957    3.7076 C.ar      2 RES2    0.0000
     51 C41       -1.8543   -0.1692    2.4821 C.ar      2 RES2    0.0000
     52 C42       -2.9530   -1.0139    2.5054 C.ar      2 RES2    0.0000
     53 C43       -3.5104   -1.5047    3.6766 C.ar      2 RES2    0.0000
     54 C44       -2.9465   -1.1213    4.8827 C.ar      2 RES2    0.0000
@<TRIPOS>BOND
     1    1   14 1
     2    2   21 2
     3    3    5 2
     4    4    5 2
     5    5   25 1
     6    6    7 1
     7    7    8 2
     8    8    9 1
     9    9   10 1
    10   10    6 1
    11   11    6 1
    12   12   11 1
    13   13   12 1
    14   14    6 1
    15   15    7 1
    16   16   15 ar
    17   17   16 ar
    18   18   17 ar
    19   19   18 ar
    20   20   15 ar
    21   21    1 1
    22   22   21 1
    23   23   22 ar
    24   24   23 ar
    25   25   24 ar
    26   26   25 ar
    27   27   22 ar
    28   28   41 1
    29   29   48 2
    30   30   32 2
    31   31   32 2
    32   32   52 1
    33   33   34 1
    34   34   35 2
    35   35   36 1
    36   36   37 1
    37   37   33 1
    38   38   33 1
    39   39   38 1
    40   40   39 1
    41   41   33 1
    42   42   34 1
    43   43   42 ar
    44   44   43 ar
    45   45   44 ar
    46   46   45 ar
    47   47   42 ar
    48   48   28 1
    49   49   48 1
    50   50   49 ar
    51   51   50 ar
    52   52   51 ar
    53   53   52 ar
    54   54   49 ar
    55   13   14 1
    56   19   20 ar
    57   26   27 ar
    58   40   41 1
    59   46   47 ar
    60   53   54 ar
@<TRIPOS>SUBSTRUCTURE
     1 RES1 1
     2 RES2 28

@<TRIPOS>CRYSIN
  11.6680    8.0210   38.8020  90.0000  91.8100  90.0000  14 1

