# MOL2 file generated by ConQuest
# Please check atom types

@<TRIPOS>MOLECULE
WOLNOC
    12    12     1
SMALL
NO_CHARGES
****
Generated from CSD

@<TRIPOS>ATOM
      1 O1         0.0427    2.0148    3.0417 O.2       1 RES1    0.0000
      2 O2         0.9122    0.0896    3.5904 O.2       1 RES1    0.0000
      3 N1         1.9601    2.3671    1.1453 N.2       1 RES1    0.0000
      4 N2         2.4942    0.1749    1.4153 N.2       1 RES1    0.0000
      5 N3         3.2035    0.7369    0.4116 N.pl3     1 RES1    0.0000
      6 N4         4.1088    0.0104   -0.3673 N.3       1 RES1    0.0000
      7 N5         0.8398    1.0955    2.8939 N.pl3     1 RES1    0.0000
      8 C1         2.8872    2.0243    0.2591 C.2       1 RES1    0.0000
      9 H1         3.2683    2.6073   -0.3864 H         1 RES1    0.0000
     10 C2         1.7833    1.2137    1.7970 C.2       1 RES1    0.0000
     11 H2         4.7214   -0.2470    0.2009 H         1 RES1    0.0000
     12 H3         3.6304   -0.6817   -0.6955 H         1 RES1    0.0000
@<TRIPOS>BOND
     1    1    7 2
     2    2    7 2
     3    3    8 2
     4    4    5 1
     5    5    6 1
     6    6   11 1
     7    7   10 1
     8    8    5 1
     9    9    8 1
    10   10    3 1
    11   12    6 1
    12    4   10 2
@<TRIPOS>SUBSTRUCTURE
     1 RES1 1

@<TRIPOS>CRYSIN
   9.9190    9.8800    5.1520  90.0000  90.0000  90.0000  33 1

