# MOL2 file generated by ConQuest
# Please check atom types

@<TRIPOS>MOLECULE
WOLNIW
    15    15     1
SMALL
NO_CHARGES
****
Generated from CSD

@<TRIPOS>ATOM
      1 C1         0.8279    4.8607    6.0613 C.2       1 RES1    0.0000
      2 C2        -0.3190    4.8068    6.8206 C.2       1 RES1    0.0000
      3 H1        -0.9591    4.1084    6.8843 H         1 RES1    0.0000
      4 C3        -0.3014    6.0058    7.4549 C.2       1 RES1    0.0000
      5 N1         1.5180    5.9921    6.1946 N.2       1 RES1    0.0000
      6 N2         0.7999    6.6993    7.0612 N.pl3     1 RES1    0.0000
      7 N3         1.2979    7.9366    7.4538 N.3       1 RES1    0.0000
      8 H2         1.9638    8.1423    6.9491 H         1 RES1    0.0000
      9 H3         0.6835    8.5351    7.3724 H         1 RES1    0.0000
     10 N4        -1.3050    6.5181    8.3581 N.pl3     1 RES1    0.0000
     11 N5         1.3187    3.8468    5.1594 N.pl3     1 RES1    0.0000
     12 O1        -1.2595    7.6975    8.6906 O.2       1 RES1    0.0000
     13 O2        -2.1527    5.7149    8.7094 O.2       1 RES1    0.0000
     14 O3         0.6890    2.7967    5.1252 O.2       1 RES1    0.0000
     15 O4         2.3053    4.1005    4.4767 O.2       1 RES1    0.0000
@<TRIPOS>BOND
     1    1    2 1
     2    2    3 1
     3    4    2 2
     4    5    1 2
     5    6    4 1
     6    7    6 1
     7    8    7 1
     8    9    7 1
     9   10    4 1
    10   11    1 1
    11   12   10 2
    12   13   10 2
    13   14   11 2
    14   15   11 2
    15    5    6 1
@<TRIPOS>SUBSTRUCTURE
     1 RES1 1

@<TRIPOS>CRYSIN
   5.4902    9.7958   11.7902  90.0000  90.0000  90.0000  19 1

