# MOL2 file generated by ConQuest
# Please check atom types

@<TRIPOS>MOLECULE
WOLWOL
    81    55     2
SMALL
NO_CHARGES
****
Generated from CSD

@<TRIPOS>ATOM
      1 N1         8.4845    4.5043    8.4363 N.2       1 RES1    0.0000
      2 C1         7.8179    5.3735    7.7898 C.2       1 RES1    0.0000
      3 C2         8.1815    6.8350    7.8235 C.3       1 RES1    0.0000
      4 H1         9.0167    6.9583    7.2883 H         1 RES1    0.0000
      5 C3         7.0356    7.4633    7.0567 C.3       1 RES1    0.0000
      6 H2         6.3326    7.7682    7.6827 H         1 RES1    0.0000
      7 H3         7.3594    8.2476    6.5450 H         1 RES1    0.0000
      8 C4         6.5287    6.5185    6.2004 C.3       1 RES1    0.0000
      9 H4         7.2011    6.4894    5.4615 H         1 RES1    0.0000
     10 C5         6.6707    5.1559    6.8617 C.3       1 RES1    0.0000
     11 H5         5.8494    4.9069    7.3558 H         1 RES1    0.0000
     12 H6         6.8753    4.4519    6.1960 H         1 RES1    0.0000
     13 C6         8.4221    7.4156    9.2105 C.3       1 RES1    0.0000
     14 H7         7.7745    7.0526    9.8644 H         1 RES1    0.0000
     15 H8         8.3468    8.4035    9.1988 H         1 RES1    0.0000
     16 C7         9.9643    6.9432    9.5785 C.3       1 RES1    0.0000
     17 H9        10.0266    5.9669    9.5286 H         1 RES1    0.0000
     18 H10       10.1890    7.2399   10.4846 H         1 RES1    0.0000
     19 H11       10.5903    7.3435    8.9378 H         1 RES1    0.0000
     20 C8         5.2257    6.7466    5.4805 C.ar      1 RES1    0.0000
     21 C9         4.7173    8.0370    5.3237 C.ar      1 RES1    0.0000
     22 H12        5.1692    8.7689    5.7283 H         1 RES1    0.0000
     23 C10        3.5749    8.2709    4.5935 C.ar      1 RES1    0.0000
     24 H13        3.2961    9.1668    4.4454 H         1 RES1    0.0000
     25 C11        3.3876    5.9251    4.1713 C.ar      1 RES1    0.0000
     26 H14        2.9725    5.2013    3.7167 H         1 RES1    0.0000
     27 C12        4.5179    5.6935    4.9087 C.ar      1 RES1    0.0000
     28 H15        4.8232    4.8022    5.0319 H         1 RES1    0.0000
     29 C13        2.8183    7.2317    4.0685 C.ar      1 RES1    0.0000
     30 C14        1.6203    7.4994    3.2429 C.2       1 RES1    0.0000
     31 C15       -0.0321    6.5871    1.8525 C.3       1 RES1    0.0000
     32 H16       -0.7475    7.0084    2.3723 H         1 RES1    0.0000
     33 H17       -0.3406    5.7203    1.5146 H         1 RES1    0.0000
     34 H18        0.2085    7.1654    1.0982 H         1 RES1    0.0000
     35 C16        8.8086    2.2375    8.7722 C.ar      1 RES1    0.0000
     36 C17        8.5510    0.8762    8.5032 C.ar      1 RES1    0.0000
     37 C18        9.4359   -0.1199    8.8705 C.ar      1 RES1    0.0000
     38 H19        9.2613   -1.0275    8.6519 H         1 RES1    0.0000
     39 C19       10.5604    0.2257    9.5511 C.ar      1 RES1    0.0000
     40 C20       10.8304    1.5418    9.8999 C.ar      1 RES1    0.0000
     41 H20       11.6079    1.7535   10.4040 H         1 RES1    0.0000
     42 C21        9.9748    2.5273    9.5159 C.ar      1 RES1    0.0000
     43 H21       10.1639    3.4280    9.7530 H         1 RES1    0.0000
     44 N2         8.0185    3.2310    8.3396 N.pl3     1 RES1    0.0000
     45 N3         7.3612    0.4443    7.8123 N.pl3     1 RES1    0.0000
     46 N4        11.4933   -0.8285    9.9066 N.pl3     1 RES1    0.0000
     47 O1         6.4923    1.2869    7.5393 O.2       1 RES1    0.0000
     48 O2         7.2399   -0.7368    7.5179 O.2       1 RES1    0.0000
     49 O3        11.3543   -1.9358    9.4053 O.2       1 RES1    0.0000
     50 O4        12.4009   -0.5562   10.6595 O.2       1 RES1    0.0000
     51 O5         1.1396    8.5881    3.0790 O.2       1 RES1    0.0000
     52 O6         1.1234    6.3912    2.6950 O.3       1 RES1    0.0000
     53 H22        7.2960    2.9788    7.9173 H         1 RES1    0.0000
     54 N5         8.2362    4.5927    8.7457 Du        2 SUP2    0.0000
     55 C22        7.5373    5.4619    8.1241 Du        2 SUP2    0.0000
     56 C23        7.7135    6.9362    8.3821 Du        2 SUP2    0.0000
     57 H23        7.3938    7.1177    9.3131 Du        2 SUP2    0.0000
     58 C24        6.7331    7.5611    7.4423 Du        2 SUP2    0.0000
     59 H24        6.2044    8.2453    7.9232 Du        2 SUP2    0.0000
     60 H25        7.2218    8.0102    6.7077 Du        2 SUP2    0.0000
     61 C25        5.9063    6.6395    6.9291 Du        2 SUP2    0.0000
     62 H26        5.2630    6.6325    7.6945 Du        2 SUP2    0.0000
     63 C26        6.4333    5.2362    7.1432 Du        2 SUP2    0.0000
     64 H27        5.7343    4.6428    7.5171 Du        2 SUP2    0.0000
     65 H28        6.7752    4.8464    6.3001 Du        2 SUP2    0.0000
     66 C27        9.1441    7.4249    8.2912 Du        2 SUP2    0.0000
     67 H29        9.1930    8.3965    8.1035 Du        2 SUP2    0.0000
     68 H30        9.6629    6.9281    7.6094 Du        2 SUP2    0.0000
     69 C28        9.6496    7.0596    9.8571 Du        2 SUP2    0.0000
     70 H31        9.0656    7.5122   10.5022 Du        2 SUP2    0.0000
     71 H32       10.5724    7.3644    9.9817 Du        2 SUP2    0.0000
     72 H33        9.6030    6.0914    9.9978 Du        2 SUP2    0.0000
     73 C29        4.8824    6.8396    5.8559 Du        2 SUP2    0.0000
     74 C30        4.3753    8.1208    5.6257 Du        2 SUP2    0.0000
     75 H34        4.7755    8.8666    6.0582 Du        2 SUP2    0.0000
     76 C31        3.3065    8.3221    4.7841 Du        2 SUP2    0.0000
     77 H35        2.9126    9.1808    4.6932 Du        2 SUP2    0.0000
     78 C32        3.1906    5.9739    4.3707 Du        2 SUP2    0.0000
     79 H36        2.7188    5.2327    4.0085 Du        2 SUP2    0.0000
     80 C33        4.2568    5.7738    5.2078 Du        2 SUP2    0.0000
     81 H37        4.5768    4.8906    5.3486 Du        2 SUP2    0.0000
@<TRIPOS>BOND
     1    1    2 2
     2    2    3 1
     3    3    4 1
     4    5    3 1
     5    6    5 1
     6    7    5 1
     7    8    5 1
     8    9    8 1
     9   10    2 1
    10   11   10 1
    11   12   10 1
    12   13    3 1
    13   14   13 1
    14   15   13 1
    15   16   13 1
    16   17   16 1
    17   18   16 1
    18   19   16 1
    19   20    8 1
    20   21   20 ar
    21   22   21 1
    22   23   21 ar
    23   24   23 1
    24   25   26 1
    25   27   20 ar
    26   28   27 1
    27   29   23 ar
    28   30   29 1
    29   31   32 1
    30   33   31 1
    31   34   31 1
    32   35   36 ar
    33   36   37 ar
    34   37   38 1
    35   39   37 ar
    36   40   39 ar
    37   41   40 1
    38   42   35 ar
    39   43   42 1
    40   44    1 1
    41   45   36 1
    42   46   39 1
    43   47   45 2
    44   48   45 2
    45   49   46 2
    46   50   46 2
    47   51   30 2
    48   52   30 1
    49   53   44 1
    50    8   10 1
    51   25   27 ar
    52   25   29 ar
    53   31   52 1
    54   35   44 1
    55   40   42 ar
@<TRIPOS>SUBSTRUCTURE
     1 RES1 1
     2 SUP2 54

@<TRIPOS>CRYSIN
  11.6360   11.6360   15.0230  90.0000 102.5910  90.0000 231 1

