# MOL2 file generated by ConQuest
# Please check atom types

@<TRIPOS>MOLECULE
WOLWAX
    75    53     2
SMALL
NO_CHARGES
****
Generated from CSD

@<TRIPOS>ATOM
      1 C1         1.4118    3.2508    5.1174 C.2       1 RES1    0.0000
      2 C2         1.4359    1.7808    4.6053 C.3       1 RES1    0.0000
      3 H1         1.1552    1.6852    3.6509 H         1 RES1    0.0000
      4 C3         0.3948    1.1107    5.6601 C.3       1 RES1    0.0000
      5 H2         0.0576    0.2331    5.3476 H         1 RES1    0.0000
      6 H3         0.7855    1.0178    6.5649 H         1 RES1    0.0000
      7 C4        -0.7009    2.2177    5.6020 C.3       1 RES1    0.0000
      8 H4        -1.0819    2.2406    4.6771 H         1 RES1    0.0000
      9 C5         0.1409    3.5055    5.8237 C.3       1 RES1    0.0000
     10 H5        -0.3205    4.2952    5.4447 H         1 RES1    0.0000
     11 H6         0.2994    3.6596    6.7887 H         1 RES1    0.0000
     12 C6         2.7838    1.1490    4.9073 C.3       1 RES1    0.0000
     13 H7         3.4897    1.6814    4.4618 H         1 RES1    0.0000
     14 H8         2.9451    1.1961    5.8828 H         1 RES1    0.0000
     15 C7         2.9178   -0.2968    4.4649 C.3       1 RES1    0.0000
     16 H9         2.2509   -0.8445    4.9295 H         1 RES1    0.0000
     17 H10        3.8168   -0.6229    4.6824 H         1 RES1    0.0000
     18 H11        2.7744   -0.3579    3.4978 H         1 RES1    0.0000
     19 C8        -1.8408    2.0291    6.5902 C.ar      1 RES1    0.0000
     20 C9        -2.7716    3.0367    6.8425 C.ar      1 RES1    0.0000
     21 H12       -2.6317    3.8914    6.4509 H         1 RES1    0.0000
     22 C10       -3.1964    0.6038    7.9786 C.ar      1 RES1    0.0000
     23 H13       -3.3400   -0.2471    8.3756 H         1 RES1    0.0000
     24 C11       -2.0740    0.7910    7.1962 C.ar      1 RES1    0.0000
     25 H14       -1.4583    0.0777    7.0706 H         1 RES1    0.0000
     26 C12       -3.8761    2.8488    7.6302 C.ar      1 RES1    0.0000
     27 C13       -4.1322    1.6234    8.2077 C.ar      1 RES1    0.0000
     28 C14        3.0107    6.2941    4.5368 C.ar      1 RES1    0.0000
     29 C15        2.8731    7.6900    4.7996 C.ar      1 RES1    0.0000
     30 C16        3.7870    8.6155    4.3118 C.ar      1 RES1    0.0000
     31 H15        3.6856    9.5394    4.5061 H         1 RES1    0.0000
     32 C17        4.8380    8.1765    3.5453 C.ar      1 RES1    0.0000
     33 C18        5.0214    6.8197    3.2728 C.ar      1 RES1    0.0000
     34 H16        5.7615    6.5345    2.7503 H         1 RES1    0.0000
     35 C19        4.1318    5.9007    3.7606 C.ar      1 RES1    0.0000
     36 H17        4.2681    4.9792    3.5749 H         1 RES1    0.0000
     37 C20       -5.8825    3.7437    8.5308 C.3       1 RES1    0.0000
     38 H18       -6.4190    2.9998    8.1855 H         1 RES1    0.0000
     39 H19       -6.4206    4.5627    8.5276 H         1 RES1    0.0000
     40 H20       -5.5974    3.5437    9.4472 H         1 RES1    0.0000
     41 N1         2.1338    5.3750    4.9995 N.pl3     1 RES1    0.0000
     42 N2         2.3340    4.0373    4.7114 N.2       1 RES1    0.0000
     43 N3         1.7656    8.2305    5.5648 N.pl3     1 RES1    0.0000
     44 N4         5.7478    9.1656    2.9834 N.pl3     1 RES1    0.0000
     45 O1         0.8872    7.4510    5.9846 O.2       1 RES1    0.0000
     46 O2         1.7214    9.4397    5.7650 O.2       1 RES1    0.0000
     47 O3         5.4451   10.3534    3.0602 O.2       1 RES1    0.0000
     48 O4         6.7770    8.7674    2.4455 O.2       1 RES1    0.0000
     49 O5        -4.7256    3.9268    7.6973 O.3       1 RES1    0.0000
     50 H21        1.4412    5.6684    5.4267 H         1 RES1    0.0000
     51 H22       -4.9572    1.4776    8.6574 H         1 RES1    0.0000
     52 C21        1.6983    1.7349    5.3032 Du        2 SUP2    0.0000
     53 H23        2.2147    1.5133    6.1309 Du        2 SUP2    0.0000
     54 C22        0.1275    1.2903    5.3571 Du        2 SUP2    0.0000
     55 H24       -0.3657    1.5209    4.5314 Du        2 SUP2    0.0000
     56 H25        0.0059    0.3325    5.5746 Du        2 SUP2    0.0000
     57 C23       -0.2207    2.2431    6.5680 Du        2 SUP2    0.0000
     58 H26        0.4115    2.0521    7.3187 Du        2 SUP2    0.0000
     59 C24        0.1576    3.6086    5.9441 Du        2 SUP2    0.0000
     60 H27        0.3575    4.2799    6.6420 Du        2 SUP2    0.0000
     61 H28       -0.5725    3.9513    5.3644 Du        2 SUP2    0.0000
     62 C25        2.2814    1.1642    4.0458 Du        2 SUP2    0.0000
     63 H29        3.0448    1.7298    3.7660 Du        2 SUP2    0.0000
     64 H30        1.5975    1.2101    3.3310 Du        2 SUP2    0.0000
     65 C26        2.7591   -0.2726    4.1704 Du        2 SUP2    0.0000
     66 H31        3.3961   -0.3426    4.9094 Du        2 SUP2    0.0000
     67 H32        3.2004   -0.5414    3.3331 Du        2 SUP2    0.0000
     68 H33        1.9948   -0.8598    4.3361 Du        2 SUP2    0.0000
     69 C27       -1.6390    2.0572    7.0717 Du        2 SUP2    0.0000
     70 C28       -2.5798    3.0698    7.0505 Du        2 SUP2    0.0000
     71 H34       -2.3718    3.9093    6.6557 Du        2 SUP2    0.0000
     72 C29       -3.2060    0.6305    8.2204 Du        2 SUP2    0.0000
     73 H35       -3.4124   -0.2076    8.6184 Du        2 SUP2    0.0000
     74 C30       -1.9666    0.8394    7.6555 Du        2 SUP2    0.0000
     75 H36       -1.3252    0.1388    7.6661 Du        2 SUP2    0.0000
@<TRIPOS>BOND
     1    1    2 1
     2    2    3 1
     3    4    2 1
     4    5    4 1
     5    6    4 1
     6    7    4 1
     7    8    7 1
     8    9    1 1
     9   10    9 1
    10   11    9 1
    11   12    2 1
    12   13   12 1
    13   14   12 1
    14   15   12 1
    15   16   15 1
    16   17   15 1
    17   18   15 1
    18   19    7 1
    19   20   19 ar
    20   21   20 1
    21   22   23 1
    22   24   19 ar
    23   25   24 1
    24   26   20 ar
    25   27   22 ar
    26   28   29 ar
    27   29   30 ar
    28   30   31 1
    29   32   30 ar
    30   33   32 ar
    31   34   33 1
    32   35   28 ar
    33   36   35 1
    34   37   38 1
    35   39   37 1
    36   40   37 1
    37   41   28 1
    38   42    1 2
    39   43   29 1
    40   44   32 1
    41   45   43 2
    42   46   43 2
    43   47   44 2
    44   48   44 2
    45   49   26 1
    46   50   41 1
    47   51   27 1
    48    7    9 1
    49   22   24 ar
    50   26   27 ar
    51   33   35 ar
    52   37   49 1
    53   41   42 1
@<TRIPOS>SUBSTRUCTURE
     1 RES1 1
     2 SUP2 52

@<TRIPOS>CRYSIN
  14.1931   12.7379   11.4318  90.0000 112.5490  90.0000  14 1

