# MOL2 file generated by ConQuest
# Please check atom types

@<TRIPOS>MOLECULE
WOLXOM
    64    53     2
SMALL
NO_CHARGES
****
Generated from CSD

@<TRIPOS>ATOM
      1 C1         3.8727    7.5116    3.2580 C.2       1 RES1    0.0000
      2 C2         3.1744    8.6468    2.5118 C.3       1 RES1    0.0000
      3 H1         2.5120    8.2526    1.8757 H         1 RES1    0.0000
      4 C3         2.4158    9.3399    3.6414 C.3       1 RES1    0.0000
      5 H2         2.9924   10.0094    4.0867 H         1 RES1    0.0000
      6 H3         1.6122    9.7982    3.2889 H         1 RES1    0.0000
      7 C4         4.1291    9.5331    1.7330 C.3       1 RES1    0.0000
      8 H4         4.6591    8.9683    1.1158 H         1 RES1    0.0000
      9 H5         4.7582    9.9613    2.3657 H         1 RES1    0.0000
     10 C5         3.4247   10.6193    0.9267 C.3       1 RES1    0.0000
     11 H6         2.9567   10.2120    0.1685 H         1 RES1    0.0000
     12 H7         4.0877   11.2605    0.5949 H         1 RES1    0.0000
     13 H8         2.7785   11.0842    1.4975 H         1 RES1    0.0000
     14 C6         2.0262    8.2650    4.5990 C.3       1 RES1    0.0000
     15 C7         3.1900    7.2410    4.5629 C.3       1 RES1    0.0000
     16 H9         3.8091    7.3825    5.3228 H         1 RES1    0.0000
     17 H10        2.8467    6.3132    4.5973 H         1 RES1    0.0000
     18 C8         1.6155    8.6234    6.0260 C.3       1 RES1    0.0000
     19 C9         0.3574    9.4768    6.0810 C.2       1 RES1    0.0000
     20 C10       -0.9076   10.8526    7.4839 C.3       1 RES1    0.0000
     21 H11       -0.8451   11.6277    6.8874 H         1 RES1    0.0000
     22 H12       -0.9274   11.1582    8.4158 H         1 RES1    0.0000
     23 H13       -1.7274   10.3528    7.2879 H         1 RES1    0.0000
     24 C11        1.3604    7.3562    6.8220 C.2       1 RES1    0.0000
     25 C12        2.4218    5.7476    8.1699 C.3       1 RES1    0.0000
     26 H14        1.7064    5.7590    8.8404 H         1 RES1    0.0000
     27 H15        3.2818    5.5902    8.6135 H         1 RES1    0.0000
     28 H16        2.2524    5.0328    7.5218 H         1 RES1    0.0000
     29 C13        6.4385    5.1608    3.2236 C.ar      1 RES1    0.0000
     30 C14        6.9844    4.1218    4.0354 C.ar      1 RES1    0.0000
     31 C15        8.1805    3.5051    3.7109 C.ar      1 RES1    0.0000
     32 H17        8.5409    2.8253    4.2672 H         1 RES1    0.0000
     33 C16        8.8377    3.8963    2.5650 C.ar      1 RES1    0.0000
     34 C17        8.3183    4.8760    1.7100 C.ar      1 RES1    0.0000
     35 H18        8.7752    5.1098    0.9112 H         1 RES1    0.0000
     36 C18        7.1449    5.4899    2.0442 C.ar      1 RES1    0.0000
     37 H19        6.7928    6.1574    1.4665 H         1 RES1    0.0000
     38 N1         4.8714    6.8883    2.7596 N.2       1 RES1    0.0000
     39 N2         5.3026    5.8162    3.5381 N.pl3     1 RES1    0.0000
     40 N3         6.2989    3.6409    5.2198 N.pl3     1 RES1    0.0000
     41 N4        10.0897    3.2410    2.2314 N.pl3     1 RES1    0.0000
     42 O1         5.2047    4.1303    5.5322 O.2       1 RES1    0.0000
     43 O2         6.8237    2.7424    5.8708 O.2       1 RES1    0.0000
     44 O3        10.6006    2.4754    3.0431 O.2       1 RES1    0.0000
     45 O4        10.5926    3.4889    1.1330 O.2       1 RES1    0.0000
     46 O5        -0.4234    9.6493    5.1753 O.2       1 RES1    0.0000
     47 O6         0.2303   10.0030    7.2847 O.3       1 RES1    0.0000
     48 O7         0.3555    6.7065    6.8170 O.2       1 RES1    0.0000
     49 O8         2.4594    7.0224    7.4833 O.3       1 RES1    0.0000
     50 H20        4.9788    5.6201    4.2466 H         1 RES1    0.0000
     51 H21        2.4618    9.1845    6.4816 H         1 RES1    0.0000
     52 H22        1.1418    7.8266    4.3497 H         1 RES1    0.0000
     53 C19        3.6651    9.0523    2.8849 Du        2 SUP2    0.0000
     54 H23        4.5545    9.5021    2.9090 Du        2 SUP2    0.0000
     55 C20        2.8370    9.5521    4.0661 Du        2 SUP2    0.0000
     56 H24        2.2132   10.2631    3.7789 Du        2 SUP2    0.0000
     57 H25        3.4265    9.9114    4.7761 Du        2 SUP2    0.0000
     58 C21        3.2467    8.9570    1.5198 Du        2 SUP2    0.0000
     59 H26        2.4090    8.4271    1.4768 Du        2 SUP2    0.0000
     60 H27        3.9356    8.4695    1.0040 Du        2 SUP2    0.0000
     61 C22        2.9925   10.3629    0.8321 Du        2 SUP2    0.0000
     62 H28        2.9190   11.0588    1.5215 Du        2 SUP2    0.0000
     63 H29        2.1622   10.3336    0.3129 Du        2 SUP2    0.0000
     64 H30        3.7425   10.5788    0.2373 Du        2 SUP2    0.0000
@<TRIPOS>BOND
     1    1    2 1
     2    2    3 1
     3    4    2 1
     4    5    4 1
     5    6    4 1
     6    7    2 1
     7    8    7 1
     8    9    7 1
     9   10    7 1
    10   11   10 1
    11   12   10 1
    12   13   10 1
    13   14    4 1
    14   15    1 1
    15   16   15 1
    16   17   15 1
    17   18   14 1
    18   19   18 1
    19   20   21 1
    20   22   20 1
    21   23   20 1
    22   24   18 1
    23   25   26 1
    24   27   25 1
    25   28   25 1
    26   29   30 ar
    27   30   31 ar
    28   31   32 1
    29   33   31 ar
    30   34   33 ar
    31   35   34 1
    32   36   29 ar
    33   37   36 1
    34   38    1 2
    35   39   29 1
    36   40   30 1
    37   41   33 1
    38   42   40 2
    39   43   40 2
    40   44   41 2
    41   45   41 2
    42   46   19 2
    43   47   19 1
    44   48   24 2
    45   49   24 1
    46   50   39 1
    47   51   18 1
    48   52   14 1
    49   14   15 1
    50   20   47 1
    51   25   49 1
    52   34   36 ar
    53   38   39 1
@<TRIPOS>SUBSTRUCTURE
     1 RES1 1
     2 SUP2 53

@<TRIPOS>CRYSIN
   6.0894    9.6228   17.1930  89.9200  89.6140  78.4910   2 1

