# MOL2 file generated by ConQuest
# Please check atom types

@<TRIPOS>MOLECULE
WOLXIG
   156   100     3
SMALL
NO_CHARGES
****
Generated from CSD

@<TRIPOS>ATOM
      1 C1         6.7371    2.5261    1.6696 C.2       1 RES1    0.0000
      2 C2         6.5299    1.1294    1.1163 C.3       1 RES1    0.0000
      3 H1         6.4476    1.2079    0.1238 H         1 RES1    0.0000
      4 C3         5.1734    0.7597    1.6580 C.3       1 RES1    0.0000
      5 H2         5.1450   -0.2085    1.8631 H         1 RES1    0.0000
      6 H3         4.4773    0.9538    0.9809 H         1 RES1    0.0000
      7 C4         4.8959    1.5895    2.9619 C.3       1 RES1    0.0000
      8 H4         5.3816    1.1043    3.6874 H         1 RES1    0.0000
      9 C5         5.6567    2.8745    2.7685 C.3       1 RES1    0.0000
     10 H5         6.0905    3.1581    3.6139 H         1 RES1    0.0000
     11 H6         5.0568    3.5981    2.4589 H         1 RES1    0.0000
     12 C6         7.6697    0.1765    1.4046 C.3       1 RES1    0.0000
     13 H7         7.6522   -0.1284    2.3467 H         1 RES1    0.0000
     14 H8         8.5456    0.5988    1.2188 H         1 RES1    0.0000
     15 C7         7.3742   -1.0839    0.3579 C.3       1 RES1    0.0000
     16 H9         6.4936   -1.4712    0.5533 H         1 RES1    0.0000
     17 H10        8.0637   -1.7702    0.4701 H         1 RES1    0.0000
     18 H11        7.3861   -0.7530   -0.5630 H         1 RES1    0.0000
     19 C8         3.4469    1.6337    3.4146 C.ar      1 RES1    0.0000
     20 C9         2.8623    2.8468    3.7726 C.ar      1 RES1    0.0000
     21 H12        3.3711    3.6471    3.7281 H         1 RES1    0.0000
     22 C10        1.5433    2.8915    4.1904 C.ar      1 RES1    0.0000
     23 H13        1.1517    3.7214    4.4342 H         1 RES1    0.0000
     24 C11        0.7909    1.7232    4.2524 C.ar      1 RES1    0.0000
     25 C12        1.3805    0.5270    3.8964 C.ar      1 RES1    0.0000
     26 H14        0.8757   -0.2764    3.9428 H         1 RES1    0.0000
     27 C13        2.6939    0.4833    3.4785 C.ar      1 RES1    0.0000
     28 H15        3.0812   -0.3478    3.2309 H         1 RES1    0.0000
     29 C14       -0.6012    1.7263    4.6760 C.1       1 RES1    0.0000
     30 N1         7.8386    3.1430    1.4800 N.2       1 RES1    0.0000
     31 N2        -1.6930    1.7518    5.0146 N.1       1 RES1    0.0000
     32 C15        9.1312    5.0629    1.9501 C.ar      1 RES1    0.0000
     33 C16        9.3901    6.3396    2.4899 C.ar      1 RES1    0.0000
     34 C17       10.6079    6.9906    2.3371 C.ar      1 RES1    0.0000
     35 H16       10.7582    7.8438    2.7278 H         1 RES1    0.0000
     36 C18       11.5950    6.3589    1.6038 C.ar      1 RES1    0.0000
     37 C19       11.4006    5.1126    1.0176 C.ar      1 RES1    0.0000
     38 H17       12.0899    4.7066    0.5069 H         1 RES1    0.0000
     39 C20       10.1942    4.4826    1.1937 C.ar      1 RES1    0.0000
     40 H18       10.0614    3.6291    0.7971 H         1 RES1    0.0000
     41 N3         7.9760    4.3754    2.1300 N.pl3     1 RES1    0.0000
     42 N4         8.3814    7.0666    3.2463 N.pl3     1 RES1    0.0000
     43 N5        12.8884    7.0258    1.4781 N.pl3     1 RES1    0.0000
     44 O1        13.7264    6.4732    0.7797 O.2       1 RES1    0.0000
     45 O2        13.0591    8.0944    2.0256 O.2       1 RES1    0.0000
     46 O3         8.6464    8.1865    3.6758 O.2       1 RES1    0.0000
     47 O4         7.2820    6.5282    3.4359 O.2       1 RES1    0.0000
     48 H19        7.2536    4.6879    2.7278 H         1 RES1    0.0000
     49 C21        6.8961    2.3812    2.0372 Du        3 SUP3    0.0000
     50 C22        6.7776    0.9098    1.7373 Du        3 SUP3    0.0000
     51 H20        7.3240    0.4604    2.4435 Du        3 SUP3    0.0000
     52 C23        5.3541    0.5720    2.0797 Du        3 SUP3    0.0000
     53 H21        5.3160    0.1359    2.9677 Du        3 SUP3    0.0000
     54 H22        4.9865   -0.0569    1.4084 Du        3 SUP3    0.0000
     55 C24        4.5078    1.8913    2.0933 Du        3 SUP3    0.0000
     56 H23        4.2353    2.0156    1.1395 Du        3 SUP3    0.0000
     57 C25        5.4770    3.0096    2.3429 Du        3 SUP3    0.0000
     58 H24        5.4238    3.3184    3.2831 Du        3 SUP3    0.0000
     59 H25        5.2942    3.7748    1.7431 Du        3 SUP3    0.0000
     60 C26        7.3480    0.4166    0.4411 Du        3 SUP3    0.0000
     61 H26        8.2000    0.8677    0.2225 Du        3 SUP3    0.0000
     62 H27        6.7100    0.5394   -0.3076 Du        3 SUP3    0.0000
     63 C27        7.5750   -1.2029    0.7932 Du        3 SUP3    0.0000
     64 H28        8.4753   -1.3308    1.1666 Du        3 SUP3    0.0000
     65 H29        7.4891   -1.7316   -0.0271 Du        3 SUP3    0.0000
     66 H30        6.9080   -1.4955    1.4452 Du        3 SUP3    0.0000
     67 C28        3.1957    1.8190    2.8459 Du        3 SUP3    0.0000
     68 C29        2.6481    2.9583    3.4301 Du        3 SUP3    0.0000
     69 H31        3.1006    3.7909    3.3566 Du        3 SUP3    0.0000
     70 C30        1.4483    2.8862    4.1189 Du        3 SUP3    0.0000
     71 H32        1.0836    3.6685    4.5155 Du        3 SUP3    0.0000
     72 C31        0.7773    1.6752    4.2330 Du        3 SUP3    0.0000
     73 C32        1.3274    0.5526    3.6468 Du        3 SUP3    0.0000
     74 H33        0.8758   -0.2813    3.7145 Du        3 SUP3    0.0000
     75 C33        2.5245    0.6228    2.9639 Du        3 SUP3    0.0000
     76 H34        2.8892   -0.1613    2.5731 Du        3 SUP3    0.0000
     77 C34       -0.4878    1.5600    4.9411 Du        3 SUP3    0.0000
     78 N6         7.9601    3.0305    1.7760 Du        3 SUP3    0.0000
     79 N7        -1.4823    1.4907    5.5021 Du        3 SUP3    0.0000
     80 C35        4.1864    3.5217    7.8160 C.2       2 RES2    0.0000
     81 C36        2.8752    3.1011    8.5105 C.3       2 RES2    0.0000
     82 H35        3.0125    3.0716    9.4991 H         2 RES2    0.0000
     83 C37        2.6417    1.7089    7.9882 C.3       2 RES2    0.0000
     84 H36        2.2653    1.1330    8.7001 H         2 RES2    0.0000
     85 H37        2.0061    1.7285    7.2278 H         2 RES2    0.0000
     86 C38        3.9217    1.2038    7.5587 C.3       2 RES2    0.0000
     87 H38        4.3301    0.9547    8.4370 H         2 RES2    0.0000
     88 C39        4.8020    2.3505    7.1524 C.3       2 RES2    0.0000
     89 H39        5.7312    2.2136    7.4658 H         2 RES2    0.0000
     90 H40        4.8071    2.4629    6.1676 H         2 RES2    0.0000
     91 C40        1.7782    4.1374    8.1661 C.3       2 RES2    0.0000
     92 H41        2.0663    5.0311    8.4776 H         2 RES2    0.0000
     93 H42        1.6688    4.1797    7.1833 H         2 RES2    0.0000
     94 C41        0.4436    3.7937    8.8007 C.3       2 RES2    0.0000
     95 H43        0.0919    2.9725    8.3983 H         2 RES2    0.0000
     96 H44       -0.1879    4.5276    8.6517 H         2 RES2    0.0000
     97 H45        0.5662    3.6584    9.7642 H         2 RES2    0.0000
     98 C42        4.0065   -0.1140    6.8235 C.ar      2 RES2    0.0000
     99 C43        3.0249   -1.0716    6.9589 C.ar      2 RES2    0.0000
    100 H46        2.2832   -0.8998    7.5277 H         2 RES2    0.0000
    101 C44        3.0957   -2.2746    6.2876 C.ar      2 RES2    0.0000
    102 H47        2.4073   -2.9203    6.3940 H         2 RES2    0.0000
    103 C45        4.1710   -2.5356    5.4576 C.ar      2 RES2    0.0000
    104 C46        5.1688   -1.5911    5.3087 C.ar      2 RES2    0.0000
    105 H48        5.9086   -1.7693    4.7399 H         2 RES2    0.0000
    106 C47        5.0896   -0.3913    5.9800 C.ar      2 RES2    0.0000
    107 H49        5.7774    0.2542    5.8697 H         2 RES2    0.0000
    108 C48        4.2426   -3.8096    4.7650 C.1       2 RES2    0.0000
    109 N8         4.3497   -4.7974    4.1962 N.1       2 RES2    0.0000
    110 C49        6.4704    6.1703    7.5954 C.ar      2 RES2    0.0000
    111 C50        7.6849    6.5772    6.9705 C.ar      2 RES2    0.0000
    112 C51        8.1781    7.8429    7.1214 C.ar      2 RES2    0.0000
    113 H50        8.9865    8.0908    6.6881 H         2 RES2    0.0000
    114 C52        7.5106    8.7548    7.8914 C.ar      2 RES2    0.0000
    115 C53        6.3054    8.4062    8.5318 C.ar      2 RES2    0.0000
    116 H51        5.8382    9.0453    9.0561 H         2 RES2    0.0000
    117 C54        5.8144    7.1450    8.3886 C.ar      2 RES2    0.0000
    118 H52        5.0093    6.9103    8.8355 H         2 RES2    0.0000
    119 N9         4.6840    4.6947    8.0017 N.2       2 RES2    0.0000
    120 N10        5.9223    4.9426    7.4523 N.pl3     2 RES2    0.0000
    121 H53        6.3512    4.3104    7.0150 H         2 RES2    0.0000
    122 N11        8.4652    5.6638    6.1444 N.pl3     2 RES2    0.0000
    123 N12        8.0228   10.1144    8.0094 N.pl3     2 RES2    0.0000
    124 O5         7.9962    4.5537    5.9123 O.2       2 RES2    0.0000
    125 O6         9.5449    6.0274    5.7227 O.2       2 RES2    0.0000
    126 O7         9.1438   10.3511    7.5838 O.2       2 RES2    0.0000
    127 O8         7.2984   10.9601    8.5376 O.2       2 RES2    0.0000
    128 C55        2.7349    3.3364    7.9127 Du        3 SUP3    0.0000
    129 H54        2.3322    3.8279    7.1408 Du        3 SUP3    0.0000
    130 C56        2.5368    1.8686    7.6457 Du        3 SUP3    0.0000
    131 H55        2.6269    1.3538    8.4834 Du        3 SUP3    0.0000
    132 H56        1.6405    1.7092    7.2646 Du        3 SUP3    0.0000
    133 C57        3.5632    1.4813    6.7074 Du        3 SUP3    0.0000
    134 H57        3.1621    1.8579    5.8697 Du        3 SUP3    0.0000
    135 C58        4.7456    2.3988    6.8486 Du        3 SUP3    0.0000
    136 H58        5.0152    2.7770    5.9761 Du        3 SUP3    0.0000
    137 H59        5.5177    1.9288    7.2549 Du        3 SUP3    0.0000
    138 C59        2.1251    3.9375    9.1857 Du        3 SUP3    0.0000
    139 H60        2.6176    3.5880    9.9712 Du        3 SUP3    0.0000
    140 H61        2.2412    4.9170    9.1644 Du        3 SUP3    0.0000
    141 C60        0.6541    3.6202    9.3521 Du        3 SUP3    0.0000
    142 H62        0.1545    3.9481    8.5743 Du        3 SUP3    0.0000
    143 H63        0.3129    4.0542   10.1627 Du        3 SUP3    0.0000
    144 H64        0.5304    2.6484    9.4275 Du        3 SUP3    0.0000
    145 C61        3.7703    0.0590    6.2624 Du        3 SUP3    0.0000
    146 C62        2.8472   -0.9362    6.5178 Du        3 SUP3    0.0000
    147 H65        2.0540   -0.7214    6.9918 Du        3 SUP3    0.0000
    148 C63        3.0593   -2.2326    6.0999 Du        3 SUP3    0.0000
    149 H66        2.4095   -2.9032    6.2837 Du        3 SUP3    0.0000
    150 C64        4.2107   -2.5543    5.4131 Du        3 SUP3    0.0000
    151 C65        5.1503   -1.5732    5.1462 Du        3 SUP3    0.0000
    152 H67        5.9426   -1.7932    4.6722 Du        3 SUP3    0.0000
    153 C66        4.9382   -0.2768    5.5640 Du        3 SUP3    0.0000
    154 H68        5.5880    0.3896    5.3802 Du        3 SUP3    0.0000
    155 C67        4.4206   -3.9266    4.9836 Du        3 SUP3    0.0000
    156 N13        4.5564   -5.0199    4.6586 Du        3 SUP3    0.0000
@<TRIPOS>BOND
     1    1    2 1
     2    2    3 1
     3    4    2 1
     4    5    4 1
     5    6    4 1
     6    7    4 1
     7    8    7 1
     8    9    1 1
     9   10    9 1
    10   11    9 1
    11   12    2 1
    12   13   12 1
    13   14   12 1
    14   15   12 1
    15   16   15 1
    16   17   15 1
    17   18   15 1
    18   19    7 1
    19   20   19 ar
    20   21   20 1
    21   22   20 ar
    22   23   22 1
    23   24   22 ar
    24   25   24 ar
    25   26   25 1
    26   27   19 ar
    27   28   27 1
    28   29   24 1
    29   30    1 2
    30   31   29 3
    31   32   33 ar
    32   33   34 ar
    33   34   35 1
    34   36   34 ar
    35   37   36 ar
    36   38   37 1
    37   39   32 ar
    38   40   39 1
    39   41   30 1
    40   42   33 1
    41   43   36 1
    42   44   43 2
    43   45   43 2
    44   46   42 2
    45   47   42 2
    46   48   41 1
    47   80   81 1
    48   81   82 1
    49   83   81 1
    50   84   83 1
    51   85   83 1
    52   86   83 1
    53   87   86 1
    54   88   80 1
    55   89   88 1
    56   90   88 1
    57   91   81 1
    58   92   91 1
    59   93   91 1
    60   94   91 1
    61   95   94 1
    62   96   94 1
    63   97   94 1
    64   98   86 1
    65   99   98 ar
    66  100   99 1
    67  101   99 ar
    68  102  101 1
    69  103  101 ar
    70  104  103 ar
    71  105  104 1
    72  106   98 ar
    73  107  106 1
    74  108  103 1
    75  109  108 3
    76  110  111 ar
    77  111  112 ar
    78  112  113 1
    79  114  112 ar
    80  115  114 ar
    81  116  115 1
    82  117  110 ar
    83  118  117 1
    84  119   80 2
    85  120  110 1
    86  121  120 1
    87  122  111 1
    88  123  114 1
    89  124  122 2
    90  125  122 2
    91  126  123 2
    92  127  123 2
    93    7    9 1
    94   25   27 ar
    95   32   41 1
    96   37   39 ar
    97   86   88 1
    98  104  106 ar
    99  115  117 ar
   100  119  120 1
@<TRIPOS>SUBSTRUCTURE
     1 RES1 1
     2 RES2 80
     3 SUP3 49

@<TRIPOS>CRYSIN
   9.2419   10.4744   19.6280  87.4540  80.6190  89.7630   2 1

