# MOL2 file generated by ConQuest
# Please check atom types

@<TRIPOS>MOLECULE
WOLXUS
    75    47     2
SMALL
NO_CHARGES
****
Generated from CSD

@<TRIPOS>ATOM
      1 N1         7.6948    4.0491    5.6614 N.2       1 RES1    0.0000
      2 C1         6.8608    3.2433    6.2127 C.2       1 RES1    0.0000
      3 C2         7.1314    1.7641    6.2519 C.3       1 RES1    0.0000
      4 H1         7.7417    1.6065    7.0283 H         1 RES1    0.0000
      5 C3         5.8143    1.1589    6.6149 C.3       1 RES1    0.0000
      6 H2         5.9467    0.3316    7.1415 H         1 RES1    0.0000
      7 H3         5.2985    0.9382    5.8004 H         1 RES1    0.0000
      8 C4         5.0824    2.2004    7.4407 C.3       1 RES1    0.0000
      9 H4         5.4641    2.1475    8.3628 H         1 RES1    0.0000
     10 C5         5.5419    3.5421    6.8580 C.3       1 RES1    0.0000
     11 H5         4.8911    3.8788    6.1914 H         1 RES1    0.0000
     12 H6         5.6454    4.2193    7.5740 H         1 RES1    0.0000
     13 C6         7.8502    1.2307    5.0183 C.3       1 RES1    0.0000
     14 H7         8.6955    1.7301    4.8917 H         1 RES1    0.0000
     15 H8         7.2844    1.3821    4.2206 H         1 RES1    0.0000
     16 C7         8.1600   -0.2585    5.1393 C.3       1 RES1    0.0000
     17 H9         8.7173   -0.4136    5.9303 H         1 RES1    0.0000
     18 H10        8.6376   -0.5586    4.3382 H         1 RES1    0.0000
     19 H11        7.3223   -0.7604    5.2267 H         1 RES1    0.0000
     20 C8         3.5736    2.0302    7.5885 C.3       1 RES1    0.0000
     21 H12        3.1939    2.0012    6.6642 H         1 RES1    0.0000
     22 C9         3.2432    0.6898    8.2406 C.3       1 RES1    0.0000
     23 H13        3.6500    0.6507    9.1314 H         1 RES1    0.0000
     24 H14        3.5976   -0.0391    7.6883 H         1 RES1    0.0000
     25 H15        2.2712    0.5952    8.3202 H         1 RES1    0.0000
     26 C10        2.8816    3.1550    8.3067 C.3       1 RES1    0.0000
     27 H16        1.9111    3.0377    8.2395 H         1 RES1    0.0000
     28 H17        3.1362    4.0087    7.8989 H         1 RES1    0.0000
     29 H18        3.1457    3.1512    9.2501 H         1 RES1    0.0000
     30 C11        8.0772    6.3063    5.0463 C.ar      1 RES1    0.0000
     31 C12        7.8461    7.6984    5.1662 C.ar      1 RES1    0.0000
     32 C13        8.6265    8.6315    4.5007 C.ar      1 RES1    0.0000
     33 H19        8.4570    9.5609    4.5970 H         1 RES1    0.0000
     34 C14        9.6477    8.1852    3.6996 C.ar      1 RES1    0.0000
     35 C15        9.9323    6.8258    3.5674 C.ar      1 RES1    0.0000
     36 H20       10.6582    6.5395    3.0262 H         1 RES1    0.0000
     37 C16        9.1620    5.9078    4.2195 C.ar      1 RES1    0.0000
     38 H21        9.3541    4.9835    4.1186 H         1 RES1    0.0000
     39 N2         7.3244    5.3813    5.6805 N.pl3     1 RES1    0.0000
     40 H22        6.5944    5.6278    6.1074 H         1 RES1    0.0000
     41 N3         6.7815    8.2318    5.9964 N.pl3     1 RES1    0.0000
     42 N4        10.4527    9.1631    2.9859 N.pl3     1 RES1    0.0000
     43 O1         5.9566    7.4420    6.4849 O.2       1 RES1    0.0000
     44 O2         6.7203    9.4424    6.1869 O.2       1 RES1    0.0000
     45 O3        10.1197   10.3486    3.0285 O.2       1 RES1    0.0000
     46 O4        11.4304    8.7666    2.3641 O.2       1 RES1    0.0000
     47 N5         7.5351    4.0289    5.3186 Du        2 SUP2    0.0000
     48 C17        6.6623    3.2269    5.8172 Du        2 SUP2    0.0000
     49 C18        6.7922    1.7427    5.5281 Du        2 SUP2    0.0000
     50 H23        6.5563    1.6797    4.5590 Du        2 SUP2    0.0000
     51 C19        5.5946    1.1980    6.2004 Du        2 SUP2    0.0000
     52 H24        5.0810    0.6633    5.5438 Du        2 SUP2    0.0000
     53 H25        5.8881    0.5838    6.9197 Du        2 SUP2    0.0000
     54 C20        4.7027    2.2030    6.7819 Du        2 SUP2    0.0000
     55 H26        3.9165    2.2093    6.1634 Du        2 SUP2    0.0000
     56 C21        5.3777    3.5585    6.5298 Du        2 SUP2    0.0000
     57 H27        4.8045    4.1373    5.9684 Du        2 SUP2    0.0000
     58 H28        5.5611    4.0226    7.3846 Du        2 SUP2    0.0000
     59 C22        8.1581    1.1980    5.5718 Du        2 SUP2    0.0000
     60 H29        8.4979    1.2610    6.4995 Du        2 SUP2    0.0000
     61 H30        8.7430    1.7553    4.9993 Du        2 SUP2    0.0000
     62 C23        8.2603   -0.2522    5.1091 Du        2 SUP2    0.0000
     63 H31        7.5931   -0.7919    5.5875 Du        2 SUP2    0.0000
     64 H32        9.1551   -0.5939    5.3007 Du        2 SUP2    0.0000
     65 H33        8.0859   -0.3001    4.1466 Du        2 SUP2    0.0000
     66 C24        4.0883    2.0226    8.1409 Du        2 SUP2    0.0000
     67 H34        4.8551    2.1134    8.7762 Du        2 SUP2    0.0000
     68 C25        3.5092    0.6469    8.4367 Du        2 SUP2    0.0000
     69 H35        4.2199   -0.0277    8.3370 Du        2 SUP2    0.0000
     70 H36        2.7911    0.4540    7.8003 Du        2 SUP2    0.0000
     71 H37        3.1633    0.6255    9.3476 Du        2 SUP2    0.0000
     72 C26        3.1508    3.1386    8.5263 Du        2 SUP2    0.0000
     73 H38        3.0345    3.7414    7.7577 Du        2 SUP2    0.0000
     74 H39        3.5263    3.6380    9.2770 Du        2 SUP2    0.0000
     75 H40        2.2817    2.7641    8.7773 Du        2 SUP2    0.0000
@<TRIPOS>BOND
     1    1    2 2
     2    2    3 1
     3    3    4 1
     4    5    3 1
     5    6    5 1
     6    7    5 1
     7    8    5 1
     8    9    8 1
     9   10    2 1
    10   11   10 1
    11   12   10 1
    12   13    3 1
    13   14   13 1
    14   15   13 1
    15   16   13 1
    16   17   16 1
    17   18   16 1
    18   19   16 1
    19   20    8 1
    20   21   20 1
    21   22   20 1
    22   23   22 1
    23   24   22 1
    24   25   22 1
    25   26   20 1
    26   27   26 1
    27   28   26 1
    28   29   26 1
    29   30   31 ar
    30   31   32 ar
    31   32   33 1
    32   34   32 ar
    33   35   34 ar
    34   36   35 1
    35   37   30 ar
    36   38   37 1
    37   39    1 1
    38   40   39 1
    39   41   31 1
    40   42   34 1
    41   43   41 2
    42   44   41 2
    43   45   42 2
    44   46   42 2
    45    8   10 1
    46   30   39 1
    47   35   37 ar
@<TRIPOS>SUBSTRUCTURE
     1 RES1 1
     2 SUP2 47

@<TRIPOS>CRYSIN
  11.7920   12.6100   11.7470  90.0000 107.4870  90.0000  14 1

