# MOL2 file generated by ConQuest
# Please check atom types

@<TRIPOS>MOLECULE
WOLXAX
    40    44     1
SMALL
NO_CHARGES
****
Generated from CSD

@<TRIPOS>ATOM
      1 O1         6.2319   -0.0579    9.2472 O.3       1 RES1    0.0000
      2 C1         4.3815    2.6406   10.2121 C.ar      1 RES1    0.0000
      3 C2         4.7223    1.2221   10.5869 C.3       1 RES1    0.0000
      4 N1         6.1521    0.8409   10.3793 N.3       1 RES1    0.0000
      5 O2         7.2252    0.5301   12.5104 O.3       1 RES1    0.0000
      6 C3         4.7306   -1.6686    8.2387 C.ar      1 RES1    0.0000
      7 C4         4.9143   -0.2437    8.7049 C.3       1 RES1    0.0000
      8 C5         3.1733    3.1730   10.6181 C.ar      1 RES1    0.0000
      9 C6         3.7064    5.2604    9.5899 C.ar      1 RES1    0.0000
     10 C7         4.8779    0.8747   12.0946 C.3       1 RES1    0.0000
     11 C8         3.9428    0.1551    9.8143 C.3       1 RES1    0.0000
     12 C9         2.8388    4.4754   10.3228 C.ar      1 RES1    0.0000
     13 C10        5.2399    3.4351    9.4728 C.ar      1 RES1    0.0000
     14 C11        6.1503    0.1227   11.6822 C.3       1 RES1    0.0000
     15 C12        4.9050    4.7381    9.1551 C.ar      1 RES1    0.0000
     16 C13        3.3230    6.6083    9.2408 C.1       1 RES1    0.0000
     17 N2         3.0016    7.6595    8.9486 N.1       1 RES1    0.0000
     18 C14        5.4748    1.9010   13.0051 C.2       1 RES1    0.0000
     19 C15        5.5995   -2.6853    8.5827 C.ar      1 RES1    0.0000
     20 C16        3.6190   -1.9886    7.4920 C.ar      1 RES1    0.0000
     21 C17        6.7438    1.6230   13.1907 C.2       1 RES1    0.0000
     22 C18        4.2043   -4.2947    7.4795 C.ar      1 RES1    0.0000
     23 C19        3.3554   -3.2887    7.1289 C.ar      1 RES1    0.0000
     24 C20        5.3292   -3.9970    8.2030 C.ar      1 RES1    0.0000
     25 H1         4.8130    0.3547    7.9979 H         1 RES1    0.0000
     26 H2         3.1122    0.5052    9.4683 H         1 RES1    0.0000
     27 H3         4.1180    0.3918   12.5061 H         1 RES1    0.0000
     28 H4         6.2111   -0.7382   11.4972 H         1 RES1    0.0000
     29 H5         3.7654   -0.6516   10.3663 H         1 RES1    0.0000
     30 H6         4.9426    2.5981   13.4845 H         1 RES1    0.0000
     31 H7         2.0267    4.8333   10.6601 H         1 RES1    0.0000
     32 H8         5.4852    5.3261    8.6173 H         1 RES1    0.0000
     33 H9         7.4222    2.0476   13.8310 H         1 RES1    0.0000
     34 H10        2.5855    2.6414   11.0925 H         1 RES1    0.0000
     35 H11        6.0260    3.0600    9.1883 H         1 RES1    0.0000
     36 H12        4.0155   -5.2478    7.2481 H         1 RES1    0.0000
     37 H13        2.5925   -3.5528    6.6106 H         1 RES1    0.0000
     38 H14        3.0235   -1.3403    7.3035 H         1 RES1    0.0000
     39 H15        5.9505   -4.7075    8.4677 H         1 RES1    0.0000
     40 H16        6.3590   -2.4064    9.1052 H         1 RES1    0.0000
@<TRIPOS>BOND
     1    1    4 1
     2    2    3 1
     3    3    4 1
     4    4   14 1
     5    5   14 1
     6    6    7 1
     7    7    1 1
     8    8    2 ar
     9    9   12 ar
    10   10    3 1
    11   11    3 1
    12   12    8 ar
    13   13    2 ar
    14   14   10 1
    15   15    9 ar
    16   16    9 1
    17   17   16 3
    18   18   10 1
    19   19    6 ar
    20   20    6 ar
    21   21    5 1
    22   22   23 ar
    23   23   20 ar
    24   24   19 ar
    25   25    7 1
    26   26   11 1
    27   27   10 1
    28   28   14 1
    29   29   11 1
    30   30   18 1
    31   31   12 1
    32   32   15 1
    33   33   21 1
    34   34    8 1
    35   35   13 1
    36   36   22 1
    37   37   23 1
    38   38   20 1
    39   39   24 1
    40   40   19 1
    41    7   11 1
    42   13   15 ar
    43   18   21 2
    44   22   24 ar
@<TRIPOS>SUBSTRUCTURE
     1 RES1 1

@<TRIPOS>CRYSIN
   5.7320   20.6200   13.8590  90.0000  90.3830  90.0000  14 1

