# MOL2 file generated by ConQuest
# Please check atom types

@<TRIPOS>MOLECULE
WOLXAY
    64    53     2
SMALL
NO_CHARGES
****
Generated from CSD

@<TRIPOS>ATOM
      1 C1        -0.3888    9.2712    8.3383 C.2       1 RES1    0.0000
      2 C2        -0.6111    9.0083    6.8678 C.3       1 RES1    0.0000
      3 C3        -0.7330   10.7070    8.6914 C.3       1 RES1    0.0000
      4 H1        -1.6584   10.7693    9.0682 H         1 RES1    0.0000
      5 C4        -0.6516   11.4111    7.2608 C.3       1 RES1    0.0000
      6 H2        -1.1432   12.2711    7.2425 H         1 RES1    0.0000
      7 H3         0.2832   11.5569    6.9725 H         1 RES1    0.0000
      8 C5        -1.3572   10.3243    6.4133 C.3       1 RES1    0.0000
      9 H4        -2.3206   10.2708    6.6724 H         1 RES1    0.0000
     10 C6         0.2754   11.3052    9.6383 C.3       1 RES1    0.0000
     11 H5         0.3472   10.7144   10.4297 H         1 RES1    0.0000
     12 H6         1.1581   11.3102    9.1902 H         1 RES1    0.0000
     13 C7        -0.0193   12.6911   10.1112 C.3       1 RES1    0.0000
     14 H7        -0.1198   13.2856    9.3392 H         1 RES1    0.0000
     15 H8         0.7169   13.0076   10.6748 H         1 RES1    0.0000
     16 H9        -0.8516   12.6886   10.6316 H         1 RES1    0.0000
     17 C8        -1.2416   10.5287    4.8877 C.ar      1 RES1    0.0000
     18 C9        -1.7739    9.5105    4.0833 C.ar      1 RES1    0.0000
     19 H10       -2.0668    8.6917    4.4645 H         1 RES1    0.0000
     20 C10       -1.8587    9.7299    2.7424 C.ar      1 RES1    0.0000
     21 C11       -1.4124   10.8964    2.1658 C.ar      1 RES1    0.0000
     22 C12       -0.8909   11.9171    2.9119 C.ar      1 RES1    0.0000
     23 H11       -0.5952   12.7272    2.5124 H         1 RES1    0.0000
     24 C13       -0.8168   11.7077    4.2971 C.ar      1 RES1    0.0000
     25 H12       -0.4625   12.3969    4.8477 H         1 RES1    0.0000
     26 C14       -2.2796    9.6314    0.5485 C.3       1 RES1    0.0000
     27 H13       -1.8531    9.1030   -0.1727 H         1 RES1    0.0000
     28 H14       -3.1991    9.8645    0.2624 H         1 RES1    0.0000
     29 C15        0.2238    6.2228    9.9190 C.ar      1 RES1    0.0000
     30 C16        0.3343    4.8282    9.6804 C.ar      1 RES1    0.0000
     31 C17        0.5503    3.9271   10.7017 C.ar      1 RES1    0.0000
     32 H15        0.6317    2.9986   10.5171 H         1 RES1    0.0000
     33 C18        0.6466    4.3932   11.9876 C.ar      1 RES1    0.0000
     34 C19        0.5590    5.7517   12.2705 C.ar      1 RES1    0.0000
     35 H16        0.6426    6.0558   13.1666 H         1 RES1    0.0000
     36 C20        0.3542    6.6465   11.2643 C.ar      1 RES1    0.0000
     37 H17        0.2970    7.5725   11.4694 H         1 RES1    0.0000
     38 N1        -0.0986    8.4661    9.2874 N.2       1 RES1    0.0000
     39 N2         0.0264    7.1313    8.9419 N.pl3     1 RES1    0.0000
     40 N3         0.2160    4.2736    8.3513 N.pl3     1 RES1    0.0000
     41 N4         0.8352    3.4435   13.0684 N.pl3     1 RES1    0.0000
     42 O1        -0.0349    5.0282    7.3990 O.2       1 RES1    0.0000
     43 O2         0.3511    3.0602    8.1893 O.2       1 RES1    0.0000
     44 O3         0.6737    2.2392   12.8244 O.2       1 RES1    0.0000
     45 O4         1.1320    3.8680   14.1815 O.2       1 RES1    0.0000
     46 O5        -2.3200    8.8633    1.7674 O.3       1 RES1    0.0000
     47 O6        -1.5277   10.8199    0.8000 O.3       1 RES1    0.0000
     48 H18       -0.0631    6.8297    8.1192 H         1 RES1    0.0000
     49 H19       -1.1889    8.3253    6.6184 H         1 RES1    0.0000
     50 H20        0.2369    8.7490    6.4133 H         1 RES1    0.0000
     51 C21       -0.0733   10.8104    8.4949 Du        2 SUP2    0.0000
     52 H21        0.8890   11.0634    8.4074 Du        2 SUP2    0.0000
     53 C22       -1.0122   11.2292    7.2651 Du        2 SUP2    0.0000
     54 H22       -1.9611   10.9874    7.4174 Du        2 SUP2    0.0000
     55 H23       -0.9411   12.1913    7.0481 Du        2 SUP2    0.0000
     56 C23       -0.3414   10.3306    6.1919 Du        2 SUP2    0.0000
     57 H24        0.6296   10.5238    6.0494 Du        2 SUP2    0.0000
     58 C24       -0.7461   11.2379    9.7840 Du        2 SUP2    0.0000
     59 H25       -1.7256   11.1469    9.6728 Du        2 SUP2    0.0000
     60 H26       -0.4704   10.6172   10.5042 Du        2 SUP2    0.0000
     61 C25       -0.4459   12.6375   10.2245 Du        2 SUP2    0.0000
     62 H27        0.5010   12.7060   10.4696 Du        2 SUP2    0.0000
     63 H28       -1.0019   12.8643   10.9954 Du        2 SUP2    0.0000
     64 H29       -0.6371   13.2581    9.4882 Du        2 SUP2    0.0000
@<TRIPOS>BOND
     1    1    2 1
     2    2    8 1
     3    3    1 1
     4    4    3 1
     5    5    3 1
     6    6    5 1
     7    7    5 1
     8    8    5 1
     9    9    8 1
    10   10    3 1
    11   11   10 1
    12   12   10 1
    13   13   10 1
    14   14   13 1
    15   15   13 1
    16   16   13 1
    17   17    8 1
    18   18   17 ar
    19   19   18 1
    20   20   18 ar
    21   21   20 ar
    22   22   21 ar
    23   23   22 1
    24   24   17 ar
    25   25   24 1
    26   26   27 1
    27   28   26 1
    28   29   30 ar
    29   30   31 ar
    30   31   32 1
    31   33   31 ar
    32   34   33 ar
    33   35   34 1
    34   36   29 ar
    35   37   36 1
    36   38    1 2
    37   39   29 1
    38   40   30 1
    39   41   33 1
    40   42   40 2
    41   43   40 2
    42   44   41 2
    43   45   41 2
    44   46   20 1
    45   47   21 1
    46   48   39 1
    47   49    2 1
    48   50    2 1
    49   22   24 ar
    50   26   46 1
    51   26   47 1
    52   34   36 ar
    53   38   39 1
@<TRIPOS>SUBSTRUCTURE
     1 RES1 1
     2 SUP2 51

@<TRIPOS>CRYSIN
  14.0080   12.4630   11.8990  90.0000 114.8560  90.0000  14 1

