# MOL2 file generated by ConQuest
# Please check atom types

@<TRIPOS>MOLECULE
WOLYAZ
    62    41     2
SMALL
NO_CHARGES
****
Generated from CSD

@<TRIPOS>ATOM
      1 C1        11.0932    7.0823    1.8323 C.2       1 RES1    0.0000
      2 C2        12.2772    7.9641    2.1058 C.3       1 RES1    0.0000
      3 H1        12.4337    7.9776    3.0930 H         1 RES1    0.0000
      4 C3        13.4043    7.1543    1.4517 C.3       1 RES1    0.0000
      5 H2        13.4341    7.3163    0.4761 H         1 RES1    0.0000
      6 H3        14.2827    7.3927    1.8433 H         1 RES1    0.0000
      7 C4        13.0590    5.7162    1.7471 C.3       1 RES1    0.0000
      8 H4        13.2720    5.5243    2.7049 H         1 RES1    0.0000
      9 C5        11.5444    5.6668    1.5616 C.3       1 RES1    0.0000
     10 H5        11.3091    5.3893    0.6410 H         1 RES1    0.0000
     11 H6        11.1297    5.0355    2.2026 H         1 RES1    0.0000
     12 C6        12.1560    9.4036    1.6276 C.3       1 RES1    0.0000
     13 H7        13.0692    9.7755    1.5403 H         1 RES1    0.0000
     14 H8        11.7556    9.3916    0.7214 H         1 RES1    0.0000
     15 C7        11.3779   10.3108    2.4493 C.3       1 RES1    0.0000
     16 H9        10.4878    9.9300    2.6039 H         1 RES1    0.0000
     17 H10       11.2904   11.1731    1.9917 H         1 RES1    0.0000
     18 H11       11.8311   10.4413    3.3088 H         1 RES1    0.0000
     19 C8        13.7803    4.6876    0.8609 C.3       1 RES1    0.0000
     20 H12       13.5710    4.8630   -0.0804 H         1 RES1    0.0000
     21 H13       13.4834    3.7848    1.0993 H         1 RES1    0.0000
     22 H14       14.7479    4.7595    0.9983 H         1 RES1    0.0000
     23 C9         7.6296    6.8958    1.5843 C.ar      1 RES1    0.0000
     24 C10        6.5882    5.9662    1.2793 C.ar      1 RES1    0.0000
     25 C11        5.2594    6.2996    1.3823 C.ar      1 RES1    0.0000
     26 H15        4.5874    5.6518    1.2009 H         1 RES1    0.0000
     27 C12        4.9117    7.5757    1.7499 C.ar      1 RES1    0.0000
     28 C13        5.8914    8.5369    2.0048 C.ar      1 RES1    0.0000
     29 H16        5.6366    9.4231    2.2329 H         1 RES1    0.0000
     30 C14        7.2104    8.2100    1.9271 C.ar      1 RES1    0.0000
     31 H17        7.8657    8.8743    2.1064 H         1 RES1    0.0000
     32 N1         9.8876    7.5395    1.8035 N.2       1 RES1    0.0000
     33 N2         8.9225    6.5797    1.5445 N.pl3     1 RES1    0.0000
     34 H18        9.1649    5.7552    1.3528 H         1 RES1    0.0000
     35 N3         6.8917    4.6228    0.8279 N.pl3     1 RES1    0.0000
     36 N4         3.5147    7.9266    1.8509 N.pl3     1 RES1    0.0000
     37 O1         8.0796    4.2668    0.7551 O.2       1 RES1    0.0000
     38 O2         5.9759    3.8939    0.4988 O.2       1 RES1    0.0000
     39 O3         2.6649    7.0538    1.6434 O.2       1 RES1    0.0000
     40 O4         3.2286    9.0932    2.1298 O.2       1 RES1    0.0000
     41 C15       11.1180    7.2233    1.5046 Du        2 SUP2    0.0000
     42 C16       12.2234    8.2340    1.5596 Du        2 SUP2    0.0000
     43 H19       12.3336    8.6269    0.6465 Du        2 SUP2    0.0000
     44 C17       13.4388    7.3328    1.8481 Du        2 SUP2    0.0000
     45 H20       14.2806    7.7676    1.5644 Du        2 SUP2    0.0000
     46 H21       13.4977    7.1153    2.8141 Du        2 SUP2    0.0000
     47 C18       13.1596    6.1001    1.0374 Du        2 SUP2    0.0000
     48 H22       13.2710    6.3491    0.0721 Du        2 SUP2    0.0000
     49 C19       11.6803    5.8362    1.2641 Du        2 SUP2    0.0000
     50 H23       11.2645    5.4148    0.4734 Du        2 SUP2    0.0000
     51 H24       11.5413    5.2529    2.0542 Du        2 SUP2    0.0000
     52 C20       12.1239    9.3661    2.5558 Du        2 SUP2    0.0000
     53 H25       12.0777    8.9628    3.4578 Du        2 SUP2    0.0000
     54 H26       12.9718    9.8745    2.5097 Du        2 SUP2    0.0000
     55 C21       11.0468   10.3198    2.4527 Du        2 SUP2    0.0000
     56 H27       10.5569   10.1714    1.6173 Du        2 SUP2    0.0000
     57 H28       11.4111   11.2286    2.4623 Du        2 SUP2    0.0000
     58 H29       10.4370   10.2059    3.2133 Du        2 SUP2    0.0000
     59 C22       14.0885    4.9200    1.3122 Du        2 SUP2    0.0000
     60 H30       14.9609    5.2529    1.6063 Du        2 SUP2    0.0000
     61 H31       14.2028    4.3952    0.4892 Du        2 SUP2    0.0000
     62 H32       13.7000    4.3532    2.0082 Du        2 SUP2    0.0000
@<TRIPOS>BOND
     1    1    2 1
     2    2    3 1
     3    4    2 1
     4    5    4 1
     5    6    4 1
     6    7    4 1
     7    8    7 1
     8    9    1 1
     9   10    9 1
    10   11    9 1
    11   12    2 1
    12   13   12 1
    13   14   12 1
    14   15   12 1
    15   16   15 1
    16   17   15 1
    17   18   15 1
    18   19    7 1
    19   20   19 1
    20   21   19 1
    21   22   19 1
    22   23   24 ar
    23   24   25 ar
    24   25   26 1
    25   27   25 ar
    26   28   27 ar
    27   29   28 1
    28   30   23 ar
    29   31   30 1
    30   32    1 2
    31   33   23 1
    32   34   33 1
    33   35   24 1
    34   36   27 1
    35   37   35 2
    36   38   35 2
    37   39   36 2
    38   40   36 2
    39    7    9 1
    40   28   30 ar
    41   32   33 1
@<TRIPOS>SUBSTRUCTURE
     1 RES1 1
     2 SUP2 41

@<TRIPOS>CRYSIN
  14.5637   14.9954    6.9313  90.0000  97.6040  90.0000  14 1

