# MOL2 file generated by ConQuest
# Please check atom types

@<TRIPOS>MOLECULE
WOLZAA
    56    57     1
SMALL
NO_CHARGES
****
Generated from CSD

@<TRIPOS>ATOM
      1 O1        -3.4478   15.4123    0.7819 O.2       1 RES1    0.0000
      2 O2        -1.3161   15.2403    0.4902 O.2       1 RES1    0.0000
      3 O3         1.0737   16.9341    4.7355 O.2       1 RES1    0.0000
      4 O4        -0.4425   17.2667    6.3974 O.3       1 RES1    0.0000
      5 N1        -2.2947   15.3859    1.1939 N.pl3     1 RES1    0.0000
      6 N2        -1.1610   16.9946    4.3509 N.am      1 RES1    0.0000
      7 H1        -1.9496   17.1146    4.7217 H         1 RES1    0.0000
      8 C1        -2.0880   15.5569    2.6773 C.3       1 RES1    0.0000
      9 H2        -2.9691   15.7948    3.0873 H         1 RES1    0.0000
     10 C2        -1.1124   16.7394    2.9193 C.3       1 RES1    0.0000
     11 H3        -0.1888   16.4352    2.6868 H         1 RES1    0.0000
     12 C3        -0.0708   17.0580    5.1433 C.2       1 RES1    0.0000
     13 C4         0.5491   17.4423    7.4846 C.3       1 RES1    0.0000
     14 C5         1.3874   18.6671    7.1994 C.3       1 RES1    0.0000
     15 H4         0.8037   19.4490    7.1096 H         1 RES1    0.0000
     16 H5         1.8872   18.5331    6.3668 H         1 RES1    0.0000
     17 H6         2.0155   18.8123    7.9379 H         1 RES1    0.0000
     18 C6         1.3648   16.1839    7.6400 C.3       1 RES1    0.0000
     19 H7         1.9268   16.0592    6.8475 H         1 RES1    0.0000
     20 H8         0.7643   15.4169    7.7393 H         1 RES1    0.0000
     21 H9         1.9325   16.2602    8.4355 H         1 RES1    0.0000
     22 C7        -0.3273   17.6749    8.6902 C.3       1 RES1    0.0000
     23 H10       -0.8330   18.5070    8.5708 H         1 RES1    0.0000
     24 H11        0.2317   17.7457    9.4921 H         1 RES1    0.0000
     25 H12       -0.9504   16.9248    8.7905 H         1 RES1    0.0000
     26 C8        -1.4302   17.9622    2.0867 C.ar      1 RES1    0.0000
     27 C9        -2.5409   18.7248    2.3424 C.ar      1 RES1    0.0000
     28 H13       -3.1272   18.4828    3.0503 H         1 RES1    0.0000
     29 C10       -2.8126   19.8417    1.5785 C.ar      1 RES1    0.0000
     30 H14       -3.5955   20.3462    1.7655 H         1 RES1    0.0000
     31 C11       -1.9929   20.2472    0.5589 C.ar      1 RES1    0.0000
     32 C12       -0.8685   19.4676    0.3096 C.ar      1 RES1    0.0000
     33 H15       -0.2792   19.7133   -0.3941 H         1 RES1    0.0000
     34 C13       -0.5897   18.3410    1.0671 C.ar      1 RES1    0.0000
     35 H16        0.1868   17.8276    0.8801 H         1 RES1    0.0000
     36 C14       -2.3035   21.4631   -0.2578 C.3       1 RES1    0.0000
     37 H17       -3.1367   21.8670    0.0623 H         1 RES1    0.0000
     38 H18       -2.4048   21.2062   -1.1981 H         1 RES1    0.0000
     39 H19       -1.5720   22.1090   -0.1722 H         1 RES1    0.0000
     40 C15       -1.6062   14.2777    3.3197 C.ar      1 RES1    0.0000
     41 C16       -2.2373   13.8458    4.4735 C.ar      1 RES1    0.0000
     42 H20       -3.0043   14.3112    4.7841 H         1 RES1    0.0000
     43 C17       -1.7823   12.7550    5.1835 C.ar      1 RES1    0.0000
     44 C18       -0.7002   12.0588    4.6974 C.ar      1 RES1    0.0000
     45 H21       -0.3856   11.2900    5.1602 H         1 RES1    0.0000
     46 C19       -0.0747   12.4646    3.5511 C.ar      1 RES1    0.0000
     47 H22        0.6686   11.9732    3.2246 H         1 RES1    0.0000
     48 C20       -0.5064   13.5834    2.8580 C.ar      1 RES1    0.0000
     49 H23       -0.0510   13.8700    2.0740 H         1 RES1    0.0000
     50 C21       -2.4107   12.3920    6.5105 C.3       1 RES1    0.0000
     51 H24       -2.3212   11.4184    6.6616 H         1 RES1    0.0000
     52 H25       -3.3765   12.6098    6.4862 H         1 RES1    0.0000
     53 C22       -1.7573   13.1385    7.6537 C.3       1 RES1    0.0000
     54 H26       -2.1796   12.8779    8.4989 H         1 RES1    0.0000
     55 H27       -1.8658   14.1027    7.5184 H         1 RES1    0.0000
     56 H28       -0.8028   12.9188    7.6843 H         1 RES1    0.0000
@<TRIPOS>BOND
     1    1    5 2
     2    2    5 2
     3    3   12 2
     4    4   12 1
     5    5    8 1
     6    6    7 1
     7    8    9 1
     8   10    6 1
     9   11   10 1
    10   12    6 1
    11   13    4 1
    12   14   13 1
    13   15   14 1
    14   16   14 1
    15   17   14 1
    16   18   13 1
    17   19   18 1
    18   20   18 1
    19   21   18 1
    20   22   13 1
    21   23   22 1
    22   24   22 1
    23   25   22 1
    24   26   10 1
    25   27   26 ar
    26   28   27 1
    27   29   27 ar
    28   30   29 1
    29   31   29 ar
    30   32   31 ar
    31   33   32 1
    32   34   26 ar
    33   35   34 1
    34   36   31 1
    35   37   36 1
    36   38   36 1
    37   39   36 1
    38   40    8 1
    39   41   40 ar
    40   42   41 1
    41   43   41 ar
    42   44   43 ar
    43   45   44 1
    44   46   44 ar
    45   47   46 1
    46   48   40 ar
    47   49   48 1
    48   50   43 1
    49   51   50 1
    50   52   50 1
    51   53   50 1
    52   54   53 1
    53   55   53 1
    54   56   53 1
    55    8   10 1
    56   32   34 ar
    57   46   48 ar
@<TRIPOS>SUBSTRUCTURE
     1 RES1 1

@<TRIPOS>CRYSIN
   5.3262   18.6150   10.7550  90.0000 100.7700  90.0000   4 1

