# MOL2 file generated by ConQuest
# Please check atom types

@<TRIPOS>MOLECULE
WOMDEI
    94   100     2
SMALL
NO_CHARGES
****
Generated from CSD

@<TRIPOS>ATOM
      1 N1        -1.8289   11.0387    5.3566 N.ar      1 RES1    0.0000
      2 N2         0.5598   14.5679    7.6791 N.2       1 RES1    0.0000
      3 N3         1.5486   14.8716    8.3606 N.2       1 RES1    0.0000
      4 N4         2.1556   20.2835    9.7484 N.pl3     1 RES1    0.0000
      5 O1         0.2626    9.3218    5.8284 O.3       1 RES1    0.0000
      6 O2        -1.1735    8.4726    7.3218 O.2       1 RES1    0.0000
      7 O3         1.3205   21.0838    9.3981 O.2       1 RES1    0.0000
      8 O4         3.1338   20.5786   10.4018 O.2       1 RES1    0.0000
      9 C1        -1.2374    6.0393    5.8346 C.ar      1 RES1    0.0000
     10 H1        -1.7452    6.0719    6.6139 H         1 RES1    0.0000
     11 C2        -1.2206    4.8930    5.0811 C.ar      1 RES1    0.0000
     12 H2        -1.7045    4.1478    5.3550 H         1 RES1    0.0000
     13 C3        -0.4907    4.8488    3.9259 C.ar      1 RES1    0.0000
     14 H3        -0.4775    4.0723    3.4155 H         1 RES1    0.0000
     15 C4         0.2256    5.9509    3.5169 C.ar      1 RES1    0.0000
     16 H4         0.7136    5.9187    2.7256 H         1 RES1    0.0000
     17 C5         0.2213    7.1031    4.2777 C.ar      1 RES1    0.0000
     18 H5         0.7082    7.8460    4.0015 H         1 RES1    0.0000
     19 C6        -0.5055    7.1493    5.4454 C.ar      1 RES1    0.0000
     20 C7        -0.5492    8.3511    6.3054 C.2       1 RES1    0.0000
     21 C8         0.2609   10.5792    6.4324 C.ar      1 RES1    0.0000
     22 C9         1.3098   10.9372    7.2262 C.ar      1 RES1    0.0000
     23 H6         1.9530   10.3078    7.4604 H         1 RES1    0.0000
     24 C10        1.4173   12.2510    7.6877 C.ar      1 RES1    0.0000
     25 H7         2.1260   12.4915    8.2387 H         1 RES1    0.0000
     26 C11        0.4796   13.1885    7.3298 C.ar      1 RES1    0.0000
     27 C12       -0.6483   12.8235    6.5487 C.ar      1 RES1    0.0000
     28 C13       -0.7735   11.4869    6.0955 C.ar      1 RES1    0.0000
     29 C14       -2.7812   11.9027    5.0625 C.ar      1 RES1    0.0000
     30 C15       -2.7359   13.2514    5.4770 C.ar      1 RES1    0.0000
     31 H8        -3.4274   13.8287    5.2481 H         1 RES1    0.0000
     32 C16       -1.6908   13.7088    6.2059 C.ar      1 RES1    0.0000
     33 H9        -1.6607   14.5975    6.4775 H         1 RES1    0.0000
     34 C17       -3.9475   11.4078    4.2611 C.3       1 RES1    0.0000
     35 H10       -3.8245   10.4779    4.0589 H         1 RES1    0.0000
     36 H11       -4.0088   11.9070    3.4434 H         1 RES1    0.0000
     37 H12       -4.7549   11.5215    4.7674 H         1 RES1    0.0000
     38 C18        1.6299   16.2666    8.6744 C.ar      1 RES1    0.0000
     39 C19        0.8087   17.2403    8.1225 C.ar      1 RES1    0.0000
     40 H13        0.1439   17.0056    7.5163 H         1 RES1    0.0000
     41 C20        0.9886   18.5533    8.4787 C.ar      1 RES1    0.0000
     42 H14        0.4495   19.2178    8.1147 H         1 RES1    0.0000
     43 C21        1.9712   18.8718    9.3784 C.ar      1 RES1    0.0000
     44 C22        2.7933   17.9340    9.9369 C.ar      1 RES1    0.0000
     45 H15        3.4552   18.1796   10.5426 H         1 RES1    0.0000
     46 C23        2.6164   16.6151    9.5792 C.ar      1 RES1    0.0000
     47 H16        3.1620   15.9571    9.9473 H         1 RES1    0.0000
     48 N5         2.3824    4.1615   13.2668 N.ar      2 RES2    0.0000
     49 N6         4.9388    7.7063   15.3806 N.2       2 RES2    0.0000
     50 N7         5.9201    7.9924   16.0739 N.2       2 RES2    0.0000
     51 N8         6.5421   13.3587   17.5993 N.pl3     2 RES2    0.0000
     52 O5         4.0918    2.2854   14.3055 O.3       2 RES2    0.0000
     53 O6         4.9652    2.5242   12.2556 O.2       2 RES2    0.0000
     54 O7         7.4911   13.6323   18.3029 O.2       2 RES2    0.0000
     55 O8         5.7172   14.1698   17.2589 O.2       2 RES2    0.0000
     56 C24        3.1889   -0.2514   13.7252 C.ar      2 RES2    0.0000
     57 H17        2.8798    0.1688   14.4945 H         2 RES2    0.0000
     58 C25        2.8353   -1.5605   13.4645 C.ar      2 RES2    0.0000
     59 H18        2.2910   -2.0247   14.0604 H         2 RES2    0.0000
     60 C26        3.2857   -2.1721   12.3300 C.ar      2 RES2    0.0000
     61 H19        3.0423   -3.0526   12.1550 H         2 RES2    0.0000
     62 C27        4.0942   -1.5022   11.4435 C.ar      2 RES2    0.0000
     63 H20        4.4003   -1.9272   10.6759 H         2 RES2    0.0000
     64 C28        4.4466   -0.1988   11.7007 C.ar      2 RES2    0.0000
     65 H21        4.9887    0.2602   11.1008 H         2 RES2    0.0000
     66 C29        4.0020    0.4343   12.8438 C.ar      2 RES2    0.0000
     67 C30        4.3997    1.8391   13.0611 C.2       2 RES2    0.0000
     68 C31        4.3396    3.6473   14.5455 C.ar      2 RES2    0.0000
     69 C32        5.3942    3.9983   15.3338 C.ar      2 RES2    0.0000
     70 H22        5.9599    3.3428   15.6728 H         2 RES2    0.0000
     71 C33        5.6234    5.3396   15.6304 C.ar      2 RES2    0.0000
     72 H23        6.3392    5.5784   16.1736 H         2 RES2    0.0000
     73 C34        4.7926    6.3117   15.1207 C.ar      2 RES2    0.0000
     74 C35        3.6836    5.9621   14.3093 C.ar      2 RES2    0.0000
     75 C36        3.4411    4.5958   14.0153 C.ar      2 RES2    0.0000
     76 C37        1.5508    5.0698   12.7931 C.ar      2 RES2    0.0000
     77 C38        1.7304    6.4532   13.0254 C.ar      2 RES2    0.0000
     78 H24        1.1284    7.0650   12.6682 H         2 RES2    0.0000
     79 C39        2.7729    6.8891   13.7640 C.ar      2 RES2    0.0000
     80 H25        2.8896    7.7991   13.9131 H         2 RES2    0.0000
     81 C40        0.3897    4.5971   11.9772 C.3       2 RES2    0.0000
     82 H26        0.4122    3.6395   11.9147 H         2 RES2    0.0000
     83 H27        0.4418    4.9764   11.0976 H         2 RES2    0.0000
     84 H28       -0.4287    4.8713   12.3969 H         2 RES2    0.0000
     85 C41        6.0320    9.3876   16.3863 C.ar      2 RES2    0.0000
     86 C42        5.2553   10.3834   15.8077 C.ar      2 RES2    0.0000
     87 H29        4.6262   10.1703   15.1566 H         2 RES2    0.0000
     88 C43        5.4256   11.6866   16.2093 C.ar      2 RES2    0.0000
     89 H30        4.9071   12.3659   15.8403 H         2 RES2    0.0000
     90 C44        6.3709   11.9719   17.1621 C.ar      2 RES2    0.0000
     91 C45        7.1653   11.0092   17.7269 C.ar      2 RES2    0.0000
     92 H31        7.8067   11.2310   18.3627 H         2 RES2    0.0000
     93 C46        6.9875    9.7036   17.3274 C.ar      2 RES2    0.0000
     94 H32        7.5154    9.0311   17.6945 H         2 RES2    0.0000
@<TRIPOS>BOND
     1    1   28 ar
     2    2    3 2
     3    3   38 1
     4    4    7 2
     5    5   20 1
     6    6   20 2
     7    8    4 2
     8    9   10 1
     9   11    9 ar
    10   12   11 1
    11   13   11 ar
    12   14   13 1
    13   15   13 ar
    14   16   15 1
    15   17   15 ar
    16   18   17 1
    17   19    9 ar
    18   20   19 1
    19   21    5 1
    20   22   21 ar
    21   23   22 1
    22   24   22 ar
    23   25   24 1
    24   26    2 1
    25   27   26 ar
    26   28   21 ar
    27   29    1 ar
    28   30   29 ar
    29   31   30 1
    30   32   27 ar
    31   33   32 1
    32   34   29 1
    33   35   34 1
    34   36   34 1
    35   37   34 1
    36   38   39 ar
    37   39   40 1
    38   41   39 ar
    39   42   41 1
    40   43    4 1
    41   44   43 ar
    42   45   44 1
    43   46   38 ar
    44   47   46 1
    45   48   75 ar
    46   49   50 2
    47   50   85 1
    48   51   54 2
    49   52   67 1
    50   53   67 2
    51   55   51 2
    52   56   57 1
    53   58   56 ar
    54   59   58 1
    55   60   58 ar
    56   61   60 1
    57   62   60 ar
    58   63   62 1
    59   64   62 ar
    60   65   64 1
    61   66   56 ar
    62   67   66 1
    63   68   52 1
    64   69   68 ar
    65   70   69 1
    66   71   69 ar
    67   72   71 1
    68   73   49 1
    69   74   73 ar
    70   75   68 ar
    71   76   48 ar
    72   77   76 ar
    73   78   77 1
    74   79   74 ar
    75   80   79 1
    76   81   76 1
    77   82   81 1
    78   83   81 1
    79   84   81 1
    80   85   86 ar
    81   86   87 1
    82   88   86 ar
    83   89   88 1
    84   90   51 1
    85   91   90 ar
    86   92   91 1
    87   93   85 ar
    88   94   93 1
    89   17   19 ar
    90   24   26 ar
    91   27   28 ar
    92   30   32 ar
    93   41   43 ar
    94   44   46 ar
    95   64   66 ar
    96   71   73 ar
    97   74   75 ar
    98   77   79 ar
    99   88   90 ar
   100   91   93 ar
@<TRIPOS>SUBSTRUCTURE
     1 RES1 1
     2 RES2 48

@<TRIPOS>CRYSIN
  10.2940   12.6710   15.6960  91.3170  98.7850  93.2800   2 1

