# MOL2 file generated by ConQuest
# Please check atom types

@<TRIPOS>MOLECULE
WOMHEN
    29    30     1
SMALL
NO_CHARGES
****
Generated from CSD

@<TRIPOS>ATOM
      1 O1         3.1113    0.3775    1.6744 O.2       1 RES1    0.0000
      2 O2         3.1311    5.2359    2.7865 O.2       1 RES1    0.0000
      3 O3         4.2821    5.4967    4.6012 O.2       1 RES1    0.0000
      4 N1         3.2055    4.1941    0.0240 N.ar      1 RES1    0.0000
      5 N2         3.2231    1.8501   -0.0327 N.am      1 RES1    0.0000
      6 H1         3.3843    1.0591   -0.5368 H         1 RES1    0.0000
      7 N3         2.8311    2.6118    2.1359 N.am      1 RES1    0.0000
      8 H2         2.9454    3.4028    1.7644 H         1 RES1    0.0000
      9 N4         3.5293    4.8379    3.8866 N.pl3     1 RES1    0.0000
     10 C1         3.3579    5.3616   -0.6166 C.ar      1 RES1    0.0000
     11 H3         3.2743    6.1615   -0.1123 H         1 RES1    0.0000
     12 C2         3.6272    5.4699   -1.9632 C.ar      1 RES1    0.0000
     13 H4         3.7170    6.3192   -2.3798 H         1 RES1    0.0000
     14 C3         3.7649    4.2881   -2.6909 C.ar      1 RES1    0.0000
     15 H5         3.9564    4.3193   -3.6208 H         1 RES1    0.0000
     16 C4         3.6210    3.0783   -2.0541 C.ar      1 RES1    0.0000
     17 H6         3.7082    2.2624   -2.5337 H         1 RES1    0.0000
     18 C5         3.3428    3.0768   -0.6840 C.ar      1 RES1    0.0000
     19 C6         3.0492    1.5501    1.3095 C.2       1 RES1    0.0000
     20 C7         2.6667    2.5033    3.5287 C.ar      1 RES1    0.0000
     21 C8         2.1242    1.3613    4.1307 C.ar      1 RES1    0.0000
     22 H7         1.8309    0.6393    3.5860 H         1 RES1    0.0000
     23 C9         2.0079    1.2690    5.5054 C.ar      1 RES1    0.0000
     24 H8         1.6266    0.4877    5.8884 H         1 RES1    0.0000
     25 C10        2.4375    2.2932    6.3410 C.ar      1 RES1    0.0000
     26 H9         2.3729    2.2087    7.2855 H         1 RES1    0.0000
     27 C11        2.9588    3.4333    5.7738 C.ar      1 RES1    0.0000
     28 H10        3.2583    4.1428    6.3286 H         1 RES1    0.0000
     29 C12        3.0501    3.5524    4.3879 C.ar      1 RES1    0.0000
@<TRIPOS>BOND
     1    1   19 2
     2    2    9 2
     3    3    9 2
     4    4   10 ar
     5    5    6 1
     6    7    8 1
     7    9   29 1
     8   10   11 1
     9   12   10 ar
    10   13   12 1
    11   14   12 ar
    12   15   14 1
    13   16   14 ar
    14   17   16 1
    15   18    4 ar
    16   19    5 1
    17   20    7 1
    18   21   20 ar
    19   22   21 1
    20   23   21 ar
    21   24   23 1
    22   25   23 ar
    23   26   25 1
    24   27   25 ar
    25   28   27 1
    26   29   20 ar
    27    5   18 1
    28    7   19 1
    29   16   18 ar
    30   27   29 ar
@<TRIPOS>SUBSTRUCTURE
     1 RES1 1

@<TRIPOS>CRYSIN
   6.9066    7.9420   11.3700  81.1600  87.9800  67.1400   2 1

