# MOL2 file generated by ConQuest
# Please check atom types

@<TRIPOS>MOLECULE
WOMHUD
    29    30     1
SMALL
NO_CHARGES
****
Generated from CSD

@<TRIPOS>ATOM
      1 O1        10.0468   -0.2133    9.2748 O.2       1 RES1    0.0000
      2 O2         5.3842    1.2402    9.2229 O.2       1 RES1    0.0000
      3 O3         5.0697    2.9356   10.5298 O.2       1 RES1    0.0000
      4 N1        11.7766   -1.3564    5.6150 N.ar      1 RES1    0.0000
      5 N2         8.6564   -0.8396    7.5544 N.am      1 RES1    0.0000
      6 H1         7.8073   -0.9580    7.3103 H         1 RES1    0.0000
      7 N3         7.7654    0.0854    9.4293 N.am      1 RES1    0.0000
      8 H2         7.0993    0.1621    8.8944 H         1 RES1    0.0000
      9 N4         5.6332    1.8834   10.2466 N.pl3     1 RES1    0.0000
     10 C1        11.2651   -1.9846    4.5522 C.ar      1 RES1    0.0000
     11 H3        11.8517   -2.2610    3.8573 H         1 RES1    0.0000
     12 C2         9.9083   -2.2492    4.4251 C.ar      1 RES1    0.0000
     13 H4         9.5719   -2.6950    3.6564 H         1 RES1    0.0000
     14 C3         9.0609   -1.8520    5.4340 C.ar      1 RES1    0.0000
     15 H5         8.1260   -2.0045    5.3575 H         1 RES1    0.0000
     16 C4         9.5776   -1.2263    6.5668 C.ar      1 RES1    0.0000
     17 C5        10.9544   -0.9949    6.6148 C.ar      1 RES1    0.0000
     18 H6        11.3222   -0.5675    7.3789 H         1 RES1    0.0000
     19 C6         8.9331   -0.3213    8.7873 C.2       1 RES1    0.0000
     20 C7         7.6535    0.5004   10.7470 C.ar      1 RES1    0.0000
     21 C8         8.5522    0.0715   11.7417 C.ar      1 RES1    0.0000
     22 H7         9.2820   -0.4871   11.5006 H         1 RES1    0.0000
     23 C9         8.3953    0.4459   13.0575 C.ar      1 RES1    0.0000
     24 H8         9.0113    0.1275   13.7077 H         1 RES1    0.0000
     25 C10        7.3535    1.2816   13.4585 C.ar      1 RES1    0.0000
     26 H9         7.2550    1.5270   14.3713 H         1 RES1    0.0000
     27 C11        6.4701    1.7436   12.5091 C.ar      1 RES1    0.0000
     28 H10        5.7611    2.3251   12.7593 H         1 RES1    0.0000
     29 C12        6.6195    1.3567   11.1800 C.ar      1 RES1    0.0000
@<TRIPOS>BOND
     1    1   19 2
     2    2    9 2
     3    3    9 2
     4    4   10 ar
     5    5    6 1
     6    7    8 1
     7    9   29 1
     8   10   11 1
     9   12   10 ar
    10   13   12 1
    11   14   12 ar
    12   15   14 1
    13   16    5 1
    14   17    4 ar
    15   18   17 1
    16   19    5 1
    17   20    7 1
    18   21   20 ar
    19   22   21 1
    20   23   21 ar
    21   24   23 1
    22   25   23 ar
    23   26   25 1
    24   27   25 ar
    25   28   27 1
    26   29   20 ar
    27    7   19 1
    28   14   16 ar
    29   16   17 ar
    30   27   29 ar
@<TRIPOS>SUBSTRUCTURE
     1 RES1 1

@<TRIPOS>CRYSIN
  11.9799    7.3695   25.4270  90.0000  90.0000  90.0000  61 1

