# MOL2 file generated by ConQuest
# Please check atom types

@<TRIPOS>MOLECULE
WOMJOZ
   269   196     5
SMALL
NO_CHARGES
****
Generated from CSD

@<TRIPOS>ATOM
      1 C1        -3.9874    7.8557   12.9365 C.2       1 RES1    0.0000
      2 C2        -3.6530    7.7785   14.3905 C.3       1 RES1    0.0000
      3 H1        -3.3081    8.6944   14.6614 H         1 RES1    0.0000
      4 H2        -2.9454    7.2461   14.6097 H         1 RES1    0.0000
      5 C3        -4.9624    7.4174   15.0517 C.3       1 RES1    0.0000
      6 H3        -4.9644    6.4183   15.0195 H         1 RES1    0.0000
      7 C4        -5.4853    7.5109   12.7735 C.3       1 RES1    0.0000
      8 H4        -5.5607    6.5308   12.5905 H         1 RES1    0.0000
      9 C5        -6.0308    7.7733   14.1700 C.3       1 RES1    0.0000
     10 H5        -6.2726    8.7280   14.2795 H         1 RES1    0.0000
     11 H6        -6.8313    7.2177   14.3471 H         1 RES1    0.0000
     12 C6        -6.1040    8.2502   11.6177 C.3       1 RES1    0.0000
     13 H7        -5.5950    8.0719   10.7882 H         1 RES1    0.0000
     14 H8        -6.0894    9.2249   11.7908 H         1 RES1    0.0000
     15 C7        -7.5836    7.7569   11.4566 C.3       1 RES1    0.0000
     16 H9        -7.5850    6.8248   11.1522 H         1 RES1    0.0000
     17 H10       -8.0456    8.3154   10.7981 H         1 RES1    0.0000
     18 H11       -8.0450    7.8185   12.3200 H         1 RES1    0.0000
     19 C8        -5.0795    7.7163   16.5419 C.ar      1 RES1    0.0000
     20 C9        -4.0208    8.1333   17.3261 C.ar      1 RES1    0.0000
     21 H12       -3.1802    8.3086   16.9193 H         1 RES1    0.0000
     22 C10       -4.1614    8.2995   18.6918 C.ar      1 RES1    0.0000
     23 H13       -3.4236    8.5929   19.2130 H         1 RES1    0.0000
     24 C11       -5.3700    8.0373   19.2976 C.ar      1 RES1    0.0000
     25 H14       -5.4671    8.1370   20.2375 H         1 RES1    0.0000
     26 C12       -6.4400    7.6299   18.5273 C.ar      1 RES1    0.0000
     27 H15       -7.2795    7.4531   18.9365 H         1 RES1    0.0000
     28 C13       -6.2924    7.4776   17.1676 C.ar      1 RES1    0.0000
     29 H16       -7.0394    7.2038   16.6468 H         1 RES1    0.0000
     30 C14       -0.9493    8.1767   11.2809 C.ar      1 RES1    0.0000
     31 C15        0.4491    8.0421   11.5041 C.ar      1 RES1    0.0000
     32 C16        1.3731    8.3991   10.5381 C.ar      1 RES1    0.0000
     33 H17        2.3042    8.3083   10.7046 H         1 RES1    0.0000
     34 C17        0.9286    8.8836    9.3425 C.ar      1 RES1    0.0000
     35 C18       -0.4356    8.9828    9.0531 C.ar      1 RES1    0.0000
     36 H18       -0.7234    9.2899    8.2020 H         1 RES1    0.0000
     37 C19       -1.3524    8.6355   10.0040 C.ar      1 RES1    0.0000
     38 H19       -2.2784    8.7037    9.8054 H         1 RES1    0.0000
     39 N1        -1.8652    7.8999   12.2289 N.pl3     1 RES1    0.0000
     40 H20       -1.6043    7.6904   13.0421 H         1 RES1    0.0000
     41 N2        -3.2146    7.9450   11.9257 N.2       1 RES1    0.0000
     42 N3         0.9871    7.5026   12.7322 N.pl3     1 RES1    0.0000
     43 N4         1.9095    9.3211    8.3642 N.pl3     1 RES1    0.0000
     44 O1         0.2156    7.2737   13.6713 O.2       1 RES1    0.0000
     45 O2         2.1870    7.2913   12.8145 O.2       1 RES1    0.0000
     46 O3         3.0880    9.3158    8.6606 O.2       1 RES1    0.0000
     47 O4         1.5099    9.7009    7.2855 O.2       1 RES1    0.0000
     48 C20       -5.4742    8.3081   12.7357 Du        5 SUP5    0.0000
     49 H21       -5.5178    9.2293   12.3518 Du        5 SUP5    0.0000
     50 C21       -5.9709    8.2941   14.1760 Du        5 SUP5    0.0000
     51 H22       -6.8799    7.9056   14.2178 Du        5 SUP5    0.0000
     52 H23       -6.0104    9.2185   14.5301 Du        5 SUP5    0.0000
     53 C22       -6.0736    7.3026   11.7908 Du        5 SUP5    0.0000
     54 H24       -6.0739    6.4047   12.2086 Du        5 SUP5    0.0000
     55 H25       -5.5379    7.2602   10.9593 Du        5 SUP5    0.0000
     56 C23       -7.5411    7.7429   11.4566 Du        5 SUP5    0.0000
     57 H26       -7.9260    8.2077   12.2265 Du        5 SUP5    0.0000
     58 H27       -8.0793    6.9408   11.2596 Du        5 SUP5    0.0000
     59 H28       -7.5379    8.3311   10.6788 Du        5 SUP5    0.0000
     60 C24        2.1437   11.6047   12.2857 C.2       2 RES2    0.0000
     61 C25        4.1789   11.1515   13.4117 C.3       2 RES2    0.0000
     62 H29        5.0565   11.4417   13.6707 H         2 RES2    0.0000
     63 H30        4.2083   10.2196   13.1833 H         2 RES2    0.0000
     64 C26        3.6408   11.9875   12.2503 C.3       2 RES2    0.0000
     65 H31        3.7700   12.9650   12.4174 H         2 RES2    0.0000
     66 C27        3.1411   11.4192   14.5440 C.3       2 RES2    0.0000
     67 H32        3.2739   12.3596   14.8564 H         2 RES2    0.0000
     68 C28        1.7958   11.3671   13.7941 C.3       2 RES2    0.0000
     69 H33        1.1836   12.0707   14.1263 H         2 RES2    0.0000
     70 H34        1.3625   10.4847   13.9174 H         2 RES2    0.0000
     71 C29        4.1988   11.5762   10.8817 C.3       2 RES2    0.0000
     72 H35        3.6834   12.0277   10.1675 H         2 RES2    0.0000
     73 H36        4.0966   10.5979   10.7643 H         2 RES2    0.0000
     74 C30        5.7375   11.9673   10.7544 C.3       2 RES2    0.0000
     75 H37        5.8373   12.9375   10.8538 H         2 RES2    0.0000
     76 H38        6.0732   11.6931    9.8751 H         2 RES2    0.0000
     77 H39        6.2487   11.5132   11.4566 H         2 RES2    0.0000
     78 C31        3.1734   10.5434   15.7436 C.ar      2 RES2    0.0000
     79 C32        3.2262   11.0430   17.0088 C.ar      2 RES2    0.0000
     80 H40        3.2781   11.9899   17.0685 H         2 RES2    0.0000
     81 C33        3.2140   10.3771   18.2203 C.ar      2 RES2    0.0000
     82 H41        3.2620   10.7916   19.0738 H         2 RES2    0.0000
     83 C34        3.1242    9.0138   18.0015 C.ar      2 RES2    0.0000
     84 H42        3.1050    8.4705   18.7793 H         2 RES2    0.0000
     85 C35        3.0557    8.3262   16.7701 C.ar      2 RES2    0.0000
     86 H43        2.9803    7.3805   16.7164 H         2 RES2    0.0000
     87 C36        3.1073    9.1550   15.6223 C.ar      2 RES2    0.0000
     88 H44        3.0983    8.7602   14.7589 H         2 RES2    0.0000
     89 C37       -0.9141   11.9460   10.6680 C.ar      2 RES2    0.0000
     90 C38       -2.3030   11.8036   10.9123 C.ar      2 RES2    0.0000
     91 C39       -3.2451   12.0291    9.9178 C.ar      2 RES2    0.0000
     92 H45       -4.1726   11.9335   10.0979 H         2 RES2    0.0000
     93 C40       -2.8093   12.3918    8.6739 C.ar      2 RES2    0.0000
     94 C41       -1.4522   12.5430    8.3860 C.ar      2 RES2    0.0000
     95 H46       -1.1756   12.7986    7.5137 H         2 RES2    0.0000
     96 C42       -0.5280   12.3230    9.3576 C.ar      2 RES2    0.0000
     97 H47        0.3944   12.4233    9.1549 H         2 RES2    0.0000
     98 N5         1.3605   11.8541   11.3138 N.2       2 RES2    0.0000
     99 N6         0.0176   11.7283   11.6209 N.pl3     2 RES2    0.0000
    100 H48       -0.2287   11.5073   12.4353 H         2 RES2    0.0000
    101 N7        -2.8197   11.4101   12.2098 N.pl3     2 RES2    0.0000
    102 N8        -3.7905   12.6331    7.6305 N.pl3     2 RES2    0.0000
    103 O5        -2.0263   11.1529   13.1244 O.2       2 RES2    0.0000
    104 O6        -4.0334   11.3385   12.3609 O.2       2 RES2    0.0000
    105 O7        -4.9684   12.3616    7.8521 O.2       2 RES2    0.0000
    106 O8        -3.4081   13.0945    6.5614 O.2       2 RES2    0.0000
    107 H49        4.2349   12.0249   13.8080 Du        5 SUP5    0.0000
    108 H50        5.0380   10.7252   13.4559 Du        5 SUP5    0.0000
    109 C43        3.6383   11.2099   11.9022 Du        5 SUP5    0.0000
    110 H51        3.6833   10.3162   11.4546 Du        5 SUP5    0.0000
    111 C44        3.1193   10.3131   14.0646 Du        5 SUP5    0.0000
    112 H52        3.1945    9.3933   13.6787 Du        5 SUP5    0.0000
    113 C45        1.7972   10.9216   13.5275 Du        5 SUP5    0.0000
    114 H53        1.1314   10.2100   13.3584 Du        5 SUP5    0.0000
    115 H54        1.4190   11.5616   14.1820 Du        5 SUP5    0.0000
    116 C46        4.2393   12.2792   11.0627 Du        5 SUP5    0.0000
    117 H55        3.6974   12.3990   10.2431 Du        5 SUP5    0.0000
    118 H56        4.2345   13.1329   11.5620 Du        5 SUP5    0.0000
    119 C47        5.6169   11.9346   10.6927 Du        5 SUP5    0.0000
    120 H57        6.1419   11.7715   11.5043 Du        5 SUP5    0.0000
    121 H58        6.0155   12.6756   10.1894 Du        5 SUP5    0.0000
    122 H59        5.6138   11.1265   10.1377 Du        5 SUP5    0.0000
    123 C48        3.1914   10.1638   15.5685 Du        5 SUP5    0.0000
    124 C49        3.2329   11.3564   16.3484 Du        5 SUP5    0.0000
    125 H60        3.2575   12.2055   15.9227 Du        5 SUP5    0.0000
    126 C50        3.2392   11.2705   17.7290 Du        5 SUP5    0.0000
    127 H61        3.2642   12.0236   18.3079 Du        5 SUP5    0.0000
    128 C51        3.1996    9.8354   18.2104 Du        5 SUP5    0.0000
    129 H62        3.2108    9.7502   19.1553 Du        5 SUP5    0.0000
    130 C52        3.1533    8.6785   17.5718 Du        5 SUP5    0.0000
    131 H63        3.1201    7.8199   17.9776 Du        5 SUP5    0.0000
    132 C53        3.1613    8.9455   16.1594 Du        5 SUP5    0.0000
    133 H64        3.1439    8.1909   15.5825 Du        5 SUP5    0.0000
    134 C54        2.3182    9.4330    2.9072 C.2       3 RES3    0.0000
    135 C55        0.8198    9.1981    3.1710 C.3       3 RES3    0.0000
    136 H65        0.6359    8.2335    3.3660 H         3 RES3    0.0000
    137 C56        0.2383    9.6105    1.7805 C.3       3 RES3    0.0000
    138 H66        0.3007   10.5871    1.6293 H         3 RES3    0.0000
    139 H67       -0.7013    9.3166    1.6710 H         3 RES3    0.0000
    140 C57        1.2160    8.8091    0.8574 C.3       3 RES3    0.0000
    141 H68        1.0325    7.8368    0.9986 H         3 RES3    0.0000
    142 C58        2.5969    9.1149    1.4860 C.3       3 RES3    0.0000
    143 H69        3.1956    8.3292    1.4124 H         3 RES3    0.0000
    144 H70        3.0247    9.8846    1.0325 H         3 RES3    0.0000
    145 C59        0.2989   10.0754    4.2631 C.3       3 RES3    0.0000
    146 H71        0.3264   11.0152    3.9528 H         3 RES3    0.0000
    147 H72        0.9008    9.9996    5.0450 H         3 RES3    0.0000
    148 C60       -1.1208    9.7498    4.7048 C.3       3 RES3    0.0000
    149 H73       -1.7071    9.7150    3.9210 H         3 RES3    0.0000
    150 H74       -1.4390   10.4436    5.3195 H         3 RES3    0.0000
    151 H75       -1.1306    8.8807    5.1583 H         3 RES3    0.0000
    152 C61        1.1496    9.0701   -0.6207 C.ar      3 RES3    0.0000
    153 C62        1.0688   10.4028   -1.0882 C.ar      3 RES3    0.0000
    154 H76        1.0170   11.1218   -0.4715 H         3 RES3    0.0000
    155 C63        1.0655   10.6553   -2.4668 C.ar      3 RES3    0.0000
    156 H77        1.0183   11.5489   -2.7831 H         3 RES3    0.0000
    157 C64        1.1316    9.5864   -3.3839 C.ar      3 RES3    0.0000
    158 H78        1.1199    9.7583   -4.3188 H         3 RES3    0.0000
    159 C65        1.2149    8.3071   -2.9243 C.ar      3 RES3    0.0000
    160 H79        1.2616    7.5853   -3.5410 H         3 RES3    0.0000
    161 C66        1.2303    8.0519   -1.5517 C.ar      3 RES3    0.0000
    162 H80        1.2977    7.1542   -1.2493 H         3 RES3    0.0000
    163 C67        5.4015    9.5147    4.5132 C.ar      3 RES3    0.0000
    164 C68        6.7926    9.4224    4.2538 C.ar      3 RES3    0.0000
    165 C69        7.7306    9.3988    5.2801 C.ar      3 RES3    0.0000
    166 H81        8.6580    9.3410    5.0847 H         3 RES3    0.0000
    167 C70        7.2952    9.4605    6.5740 C.ar      3 RES3    0.0000
    168 C71        5.9357    9.5561    6.8813 C.ar      3 RES3    0.0000
    169 H82        5.6536    9.5955    7.7883 H         3 RES3    0.0000
    170 C72        5.0144    9.5927    5.8757 C.ar      3 RES3    0.0000
    171 H83        4.0926    9.6721    6.0933 H         3 RES3    0.0000
    172 N9         3.1271    9.5625    3.8780 N.2       3 RES3    0.0000
    173 N10        4.4660    9.5282    3.5366 N.pl3     3 RES3    0.0000
    174 H84        4.7073    9.5145    2.6916 H         3 RES3    0.0000
    175 N11        7.3176    9.3551    2.9090 N.pl3     3 RES3    0.0000
    176 N12        8.2791    9.4040    7.6430 N.pl3     3 RES3    0.0000
    177 O9         6.5309    9.3619    1.9555 O.2       3 RES3    0.0000
    178 O10        8.5298    9.2977    2.7483 O.2       3 RES3    0.0000
    179 O11        9.4698    9.4848    7.3480 O.2       3 RES3    0.0000
    180 O12        7.8778    9.2880    8.7931 O.2       3 RES3    0.0000
    181 C73        0.8258    9.8768    3.1014 Du        5 SUP5    0.0000
    182 H85        0.6807   10.8530    3.2665 Du        5 SUP5    0.0000
    183 C74        0.2996    9.3142    1.6452 Du        5 SUP5    0.0000
    184 H86        0.3132    8.3207    1.6094 Du        5 SUP5    0.0000
    185 H87       -0.6209    9.6294    1.4403 Du        5 SUP5    0.0000
    186 C75        1.2967    9.9086    0.7321 Du        5 SUP5    0.0000
    187 H88        1.1965   10.9017    0.7937 Du        5 SUP5    0.0000
    188 C76        2.6259    9.5478    1.3726 Du        5 SUP5    0.0000
    189 H89        3.2995   10.2531    1.2035 Du        5 SUP5    0.0000
    190 H90        2.9647    8.6892    1.0185 Du        5 SUP5    0.0000
    191 C77        0.2634    8.9402    4.1537 Du        5 SUP5    0.0000
    192 H91        0.8157    9.0122    4.9733 Du        5 SUP5    0.0000
    193 H92        0.3320    8.0098    3.8235 Du        5 SUP5    0.0000
    194 C78       -1.1886    9.2275    4.5158 Du        5 SUP5    0.0000
    195 H93       -1.2554   10.1205    4.9137 Du        5 SUP5    0.0000
    196 H94       -1.5037    8.5587    5.1583 Du        5 SUP5    0.0000
    197 H95       -1.7395    9.1875    3.7061 Du        5 SUP5    0.0000
    198 C79        1.1788    9.5404   -0.7102 Du        5 SUP5    0.0000
    199 C80        1.1421   10.5162   -1.6651 Du        5 SUP5    0.0000
    200 H96        1.1286   11.4220   -1.3806 Du        5 SUP5    0.0000
    201 C81        1.1261   10.2559   -3.0138 Du        5 SUP5    0.0000
    202 H97        1.0656   10.9485   -3.6624 Du        5 SUP5    0.0000
    203 C82        1.2002    8.9589   -3.3580 Du        5 SUP5    0.0000
    204 H98        1.2142    8.7638   -4.2870 Du        5 SUP5    0.0000
    205 C83        1.2568    7.9291   -2.5384 Du        5 SUP5    0.0000
    206 H99        1.3247    7.0334   -2.8487 Du        5 SUP5    0.0000
    207 C84        1.2100    8.2359   -1.2135 Du        5 SUP5    0.0000
    208 H100       1.2058    7.5240   -0.5888 Du        5 SUP5    0.0000
    209 C85        8.3202   12.6272    2.1867 C.2       4 RES4    0.0000
    210 C86        7.9926   12.3807    0.7518 C.3       4 RES4    0.0000
    211 H101       7.6486   13.2033    0.3203 H         4 RES4    0.0000
    212 H102       7.3216   11.6584    0.6525 H         4 RES4    0.0000
    213 C87        9.8183   12.5232    2.4031 C.3       4 RES4    0.0000
    214 H103      10.1021   11.6400    2.7751 H         4 RES4    0.0000
    215 C88       10.3393   12.7744    0.9250 C.3       4 RES4    0.0000
    216 H104      10.2888   13.7315    0.6764 H         4 RES4    0.0000
    217 H105      11.2656   12.4500    0.8037 H         4 RES4    0.0000
    218 C89        9.3640   11.9540    0.1552 C.3       4 RES4    0.0000
    219 H106       9.5156   10.9944    0.3899 H         4 RES4    0.0000
    220 C90       10.2878   13.7356    3.2685 C.3       4 RES4    0.0000
    221 H107      10.1610   14.5651    2.7453 H         4 RES4    0.0000
    222 H108       9.7068   13.7968    4.0682 H         4 RES4    0.0000
    223 C91       11.7236   13.6674    3.7240 C.3       4 RES4    0.0000
    224 H109      11.8723   12.8328    4.2134 H         4 RES4    0.0000
    225 H110      11.9172   14.4288    4.3109 H         4 RES4    0.0000
    226 H111      12.3162   13.6984    2.9422 H         4 RES4    0.0000
    227 C92        9.4112   12.0842   -1.3794 C.ar      4 RES4    0.0000
    228 C93       10.6142   12.2146   -2.0592 C.ar      4 RES4    0.0000
    229 H112      11.4061   12.4316   -1.5795 H         4 RES4    0.0000
    230 C94       10.6701   12.0329   -3.4223 C.ar      4 RES4    0.0000
    231 H113      11.5049   12.1094   -3.8712 H         4 RES4    0.0000
    232 C95        9.5409   11.7452   -4.1418 C.ar      4 RES4    0.0000
    233 H114       9.5858   11.6329   -5.0847 H         4 RES4    0.0000
    234 C96        8.3442   11.6193   -3.4790 C.ar      4 RES4    0.0000
    235 H115       7.5553   11.4122   -3.9647 H         4 RES4    0.0000
    236 C97        8.2842   11.7911   -2.1107 C.ar      4 RES4    0.0000
    237 H116       7.4487   11.7076   -1.6671 H         4 RES4    0.0000
    238 C98        5.2523   12.8347    3.8229 C.ar      4 RES4    0.0000
    239 C99        3.8610   12.8109    3.5553 C.ar      4 RES4    0.0000
    240 C100       2.9273   12.9365    4.5635 C.ar      4 RES4    0.0000
    241 H117       1.9993   12.9300    4.3626 H         4 RES4    0.0000
    242 C101       3.3527   13.0701    5.8556 C.ar      4 RES4    0.0000
    243 C102       4.7111   13.0759    6.1743 C.ar      4 RES4    0.0000
    244 H118       4.9907   13.1536    7.0800 H         4 RES4    0.0000
    245 C103       5.6353   12.9693    5.1761 C.ar      4 RES4    0.0000
    246 H119       6.5596   12.9863    5.3971 H         4 RES4    0.0000
    247 N13        7.5278   12.7808    3.1720 N.2       4 RES4    0.0000
    248 N14        6.1860   12.7150    2.8581 N.pl3     4 RES4    0.0000
    249 H120       5.9375   12.5946    2.0232 H         4 RES4    0.0000
    250 N15        3.3410   12.6263    2.2213 N.pl3     4 RES4    0.0000
    251 N16        2.3615   13.2069    6.9064 N.pl3     4 RES4    0.0000
    252 O13        4.1414   12.5049    1.2700 O.2       4 RES4    0.0000
    253 O14        2.1298   12.5812    2.0468 O.2       4 RES4    0.0000
    254 O15        1.1804   13.3312    6.5857 O.2       4 RES4    0.0000
    255 O16        2.7416   13.2122    8.0687 O.2       4 RES4    0.0000
    256 C104       9.7921   13.2023    2.3017 Du        5 SUP5    0.0000
    257 H121       9.9338   14.1778    2.1365 Du        5 SUP5    0.0000
    258 C105      10.2981   12.0353    1.0126 Du        5 SUP5    0.0000
    259 H122      11.2569   12.0850    0.7739 Du        5 SUP5    0.0000
    260 H123      10.0148   11.1005    1.1777 Du        5 SUP5    0.0000
    261 C106       9.3243   12.8603    0.0259 Du        5 SUP5    0.0000
    262 H124       9.4714   13.8493   -0.0099 Du        5 SUP5    0.0000
    263 C107      10.3908   12.6346    3.4057 Du        5 SUP5    0.0000
    264 H125      10.4983   11.6639    3.2446 Du        5 SUP5    0.0000
    265 H126       9.7902   12.7464    4.1856 Du        5 SUP5    0.0000
    266 C108      11.7624   13.2303    3.7400 Du        5 SUP5    0.0000
    267 H127      12.3301   13.2082    2.9562 Du        5 SUP5    0.0000
    268 H128      12.1701   12.7059    4.4661 Du        5 SUP5    0.0000
    269 H129      11.6431   14.1569    4.0463 Du        5 SUP5    0.0000
@<TRIPOS>BOND
     1    1    2 1
     2    2    3 1
     3    4    2 1
     4    5    2 1
     5    6    5 1
     6    7    1 1
     7    8    7 1
     8    9    5 1
     9   10    9 1
    10   11    9 1
    11   12    7 1
    12   13   12 1
    13   14   12 1
    14   15   12 1
    15   16   15 1
    16   17   15 1
    17   18   15 1
    18   19    5 1
    19   20   19 ar
    20   21   20 1
    21   22   20 ar
    22   23   22 1
    23   24   22 ar
    24   25   24 1
    25   26   24 ar
    26   27   26 1
    27   28   19 ar
    28   29   28 1
    29   30   31 ar
    30   31   32 ar
    31   32   33 1
    32   34   32 ar
    33   35   34 ar
    34   36   35 1
    35   37   30 ar
    36   38   37 1
    37   39   30 1
    38   40   39 1
    39   41    1 2
    40   42   31 1
    41   43   34 1
    42   44   42 2
    43   45   42 2
    44   46   43 2
    45   47   43 2
    46   60   64 1
    47   61   62 1
    48   63   61 1
    49   64   61 1
    50   65   64 1
    51   66   61 1
    52   67   66 1
    53   68   60 1
    54   69   68 1
    55   70   68 1
    56   71   64 1
    57   72   71 1
    58   73   71 1
    59   74   71 1
    60   75   74 1
    61   76   74 1
    62   77   74 1
    63   78   66 1
    64   79   78 ar
    65   80   79 1
    66   81   79 ar
    67   82   81 1
    68   83   81 ar
    69   84   83 1
    70   85   83 ar
    71   86   85 1
    72   87   78 ar
    73   88   87 1
    74   89   90 ar
    75   90   91 ar
    76   91   92 1
    77   93   91 ar
    78   94   93 ar
    79   95   94 1
    80   96   89 ar
    81   97   96 1
    82   98   60 2
    83   99   89 1
    84  100   99 1
    85  101   90 1
    86  102   93 1
    87  103  101 2
    88  104  101 2
    89  105  102 2
    90  106  102 2
    91  134  135 1
    92  135  136 1
    93  137  135 1
    94  138  137 1
    95  139  137 1
    96  140  137 1
    97  141  140 1
    98  142  134 1
    99  143  142 1
   100  144  142 1
   101  145  135 1
   102  146  145 1
   103  147  145 1
   104  148  145 1
   105  149  148 1
   106  150  148 1
   107  151  148 1
   108  152  140 1
   109  153  152 ar
   110  154  153 1
   111  155  153 ar
   112  156  155 1
   113  157  155 ar
   114  158  157 1
   115  159  157 ar
   116  160  159 1
   117  161  152 ar
   118  162  161 1
   119  163  164 ar
   120  164  165 ar
   121  165  166 1
   122  167  165 ar
   123  168  167 ar
   124  169  168 1
   125  170  163 ar
   126  171  170 1
   127  172  134 2
   128  173  163 1
   129  174  173 1
   130  175  164 1
   131  176  167 1
   132  177  175 2
   133  178  175 2
   134  179  176 2
   135  180  176 2
   136  209  210 1
   137  210  211 1
   138  212  210 1
   139  213  209 1
   140  214  213 1
   141  215  213 1
   142  216  215 1
   143  217  215 1
   144  218  210 1
   145  219  218 1
   146  220  213 1
   147  221  220 1
   148  222  220 1
   149  223  220 1
   150  224  223 1
   151  225  223 1
   152  226  223 1
   153  227  218 1
   154  228  227 ar
   155  229  228 1
   156  230  228 ar
   157  231  230 1
   158  232  230 ar
   159  233  232 1
   160  234  232 ar
   161  235  234 1
   162  236  227 ar
   163  237  236 1
   164  238  239 ar
   165  239  240 ar
   166  240  241 1
   167  242  240 ar
   168  243  242 ar
   169  244  243 1
   170  245  238 ar
   171  246  245 1
   172  247  209 2
   173  248  238 1
   174  249  248 1
   175  250  239 1
   176  251  242 1
   177  252  250 2
   178  253  250 2
   179  254  251 2
   180  255  251 2
   181    7    9 1
   182   26   28 ar
   183   35   37 ar
   184   39   41 1
   185   66   68 1
   186   85   87 ar
   187   94   96 ar
   188   98   99 1
   189  140  142 1
   190  159  161 ar
   191  168  170 ar
   192  172  173 1
   193  215  218 1
   194  234  236 ar
   195  243  245 ar
   196  247  248 1
@<TRIPOS>SUBSTRUCTURE
     1 RES1 1
     2 RES2 60
     3 RES3 134
     4 RES4 209
     5 SUP5 48

@<TRIPOS>CRYSIN
  12.8241   14.0014   19.9527  90.7810  94.3400  90.7000   2 1

