# MOL2 file generated by ConQuest
# Please check atom types

@<TRIPOS>MOLECULE
WOMJUF
   141   104     3
SMALL
NO_CHARGES
****
Generated from CSD

@<TRIPOS>ATOM
      1 C1         3.2845   14.7232    5.6734 C.2       1 RES1    0.0000
      2 C2         2.2950   14.6476    4.5220 C.3       1 RES1    0.0000
      3 H1         1.8680   15.5455    4.4190 H         1 RES1    0.0000
      4 C3         3.2249   14.4282    3.3440 C.3       1 RES1    0.0000
      5 H2         3.4430   13.4666    3.2552 H         1 RES1    0.0000
      6 H3         2.7918   14.7310    2.5071 H         1 RES1    0.0000
      7 C4         4.6636   15.0135    5.1368 C.3       1 RES1    0.0000
      8 H4         5.2732   14.2532    5.3127 H         1 RES1    0.0000
      9 H5         5.0379   15.8268    5.5579 H         1 RES1    0.0000
     10 C5         1.2014   13.6216    4.6766 C.3       1 RES1    0.0000
     11 H6         1.6038   12.7814    5.0107 H         1 RES1    0.0000
     12 H7         0.8162   13.4357    3.7847 H         1 RES1    0.0000
     13 C6         0.0746   14.0218    5.6166 C.3       1 RES1    0.0000
     14 H8         0.4304   14.1413    6.5210 H         1 RES1    0.0000
     15 H9        -0.6089   13.3198    5.6237 H         1 RES1    0.0000
     16 H10       -0.3239   14.8626    5.3092 H         1 RES1    0.0000
     17 C7         4.4803   15.2254    3.5999 C.3       1 RES1    0.0000
     18 H11        4.2390   16.1883    3.4719 H         1 RES1    0.0000
     19 C8         5.7269   14.9830    2.7878 C.ar      1 RES1    0.0000
     20 C9         6.6479   16.0202    2.5373 C.ar      1 RES1    0.0000
     21 C10        7.7607   15.7346    1.7573 C.ar      1 RES1    0.0000
     22 H12        8.3706   16.4352    1.5618 H         1 RES1    0.0000
     23 C11        8.0178   14.4844    1.2598 C.ar      1 RES1    0.0000
     24 H13        8.7978   14.3174    0.7427 H         1 RES1    0.0000
     25 C12        7.1293   13.4877    1.5192 C.ar      1 RES1    0.0000
     26 H14        7.2921   12.6158    1.1798 H         1 RES1    0.0000
     27 C13        6.0084   13.7224    2.2619 C.ar      1 RES1    0.0000
     28 H15        5.4028   13.0071    2.4236 H         1 RES1    0.0000
     29 C14        6.4393   17.4229    3.0970 C.3       1 RES1    0.0000
     30 H16        7.2386   17.9636    2.9264 H         1 RES1    0.0000
     31 H17        6.2801   17.3689    4.0618 H         1 RES1    0.0000
     32 H18        5.6665   17.8372    2.6599 H         1 RES1    0.0000
     33 C15        3.7245   14.2493    9.0974 C.ar      1 RES1    0.0000
     34 C16        4.7341   14.1824   10.0871 C.ar      1 RES1    0.0000
     35 C17        4.4353   13.8902   11.4002 C.ar      1 RES1    0.0000
     36 H19        5.1256   13.8566   12.0523 H         1 RES1    0.0000
     37 C18        3.1257   13.6456   11.7609 C.ar      1 RES1    0.0000
     38 C19        2.1124   13.6798   10.8280 C.ar      1 RES1    0.0000
     39 H20        1.2196   13.4900   11.0910 H         1 RES1    0.0000
     40 C20        2.3889   13.9891    9.5238 C.ar      1 RES1    0.0000
     41 H21        1.6797   14.0307    8.8930 H         1 RES1    0.0000
     42 N1         2.9285   14.4858    6.8923 N.2       1 RES1    0.0000
     43 N2         3.9760   14.5275    7.8021 N.pl3     1 RES1    0.0000
     44 N3         6.1359   14.3355    9.7619 N.pl3     1 RES1    0.0000
     45 N4         2.8369   13.3249   13.1521 N.pl3     1 RES1    0.0000
     46 O1         6.4683   14.4830    8.5794 O.2       1 RES1    0.0000
     47 O2         6.9691   14.2895   10.6740 O.2       1 RES1    0.0000
     48 O3         3.7308   13.4230   13.9890 O.2       1 RES1    0.0000
     49 O4         1.6848   13.0130   13.4240 O.2       1 RES1    0.0000
     50 H22        4.8699   14.6241    7.5160 H         1 RES1    0.0000
     51 C21        4.4421   14.5352    3.7136 Du        3 SUP3    0.0000
     52 H23        4.7113   13.5704    3.7864 Du        3 SUP3    0.0000
     53 C22        5.6161   15.1181    2.9673 Du        3 SUP3    0.0000
     54 C23        6.4694   14.3129    2.1908 Du        3 SUP3    0.0000
     55 C24        7.5334   14.9339    1.5316 Du        3 SUP3    0.0000
     56 H24        8.0388   14.4320    0.9026 Du        3 SUP3    0.0000
     57 C25        7.8717   16.2441    1.7591 Du        3 SUP3    0.0000
     58 H25        8.7049   16.5938    1.4588 Du        3 SUP3    0.0000
     59 C26        6.9771   17.0215    2.4236 Du        3 SUP3    0.0000
     60 H26        7.0808   17.9657    2.4129 Du        3 SUP3    0.0000
     61 C27        5.9481   16.4601    3.1023 Du        3 SUP3    0.0000
     62 H27        5.4290   17.0038    3.6869 Du        3 SUP3    0.0000
     63 C28        6.2387   12.8179    2.0451 Du        3 SUP3    0.0000
     64 H28        6.9635   12.4202    1.5227 Du        3 SUP3    0.0000
     65 H29        5.3829   12.6651    1.5849 Du        3 SUP3    0.0000
     66 H30        6.2063   12.4032    2.9318 Du        3 SUP3    0.0000
     67 C29        5.2178   10.4252   13.5341 C.2       2 RES2    0.0000
     68 C30        5.0617    9.6446   15.7392 C.3       2 RES2    0.0000
     69 H31        4.7012    9.7879   16.6489 H         2 RES2    0.0000
     70 H32        5.0963    8.6719   15.5579 H         2 RES2    0.0000
     71 C31        6.6115   10.3798   14.0796 C.3       2 RES2    0.0000
     72 H33        7.1075   11.2017   13.8397 H         2 RES2    0.0000
     73 H34        7.1005    9.5960   13.7225 H         2 RES2    0.0000
     74 C32        4.1983   10.3624   14.6926 C.3       2 RES2    0.0000
     75 H35        4.0525   11.2977   15.0142 H         2 RES2    0.0000
     76 C33        2.9065    9.8201   14.3337 C.3       2 RES2    0.0000
     77 H36        2.4594   10.4831   13.7491 H         2 RES2    0.0000
     78 H37        2.3704    9.7584   15.1635 H         2 RES2    0.0000
     79 C34        2.8264    8.4805   13.6407 C.3       2 RES2    0.0000
     80 H38        3.5038    8.4367   12.9336 H         2 RES2    0.0000
     81 H39        1.9352    8.3695   13.2463 H         2 RES2    0.0000
     82 H40        2.9870    7.7656   14.2911 H         2 RES2    0.0000
     83 C35        6.4487   10.2709   15.6006 C.3       2 RES2    0.0000
     84 H41        6.4072   11.1978   15.9737 H         2 RES2    0.0000
     85 C36        7.5684    9.5318   16.3060 C.ar      2 RES2    0.0000
     86 C37        8.2511   10.0680   17.3952 C.ar      2 RES2    0.0000
     87 C38        9.2573    9.3494   18.0135 C.ar      2 RES2    0.0000
     88 H42        9.7341    9.7252   18.7456 H         2 RES2    0.0000
     89 C39        9.5674    8.0616   17.5533 C.ar      2 RES2    0.0000
     90 H43       10.2361    7.5551   17.9993 H         2 RES2    0.0000
     91 C40        8.9353    7.5281   16.4890 C.ar      2 RES2    0.0000
     92 H44        9.1644    6.6632   16.1674 H         2 RES2    0.0000
     93 C41        7.9292    8.2846   15.8671 C.ar      2 RES2    0.0000
     94 H45        7.4810    7.9177   15.1137 H         2 RES2    0.0000
     95 C42        7.8925   11.4530   17.9442 C.3       2 RES2    0.0000
     96 H46        8.0078   12.1244   17.2388 H         2 RES2    0.0000
     97 H47        8.4807   11.6682   18.6994 H         2 RES2    0.0000
     98 H48        6.9606   11.4540   18.2463 H         2 RES2    0.0000
     99 C43        5.4984   10.9054   10.1013 C.ar      2 RES2    0.0000
    100 C44        6.4433   11.1015    9.0636 C.ar      2 RES2    0.0000
    101 C45        6.0600   11.2315    7.7399 C.ar      2 RES2    0.0000
    102 H49        6.7080   11.3808    7.0629 H         2 RES2    0.0000
    103 C46        4.7328   11.1432    7.4254 C.ar      2 RES2    0.0000
    104 C47        3.7721   10.9240    8.4026 C.ar      2 RES2    0.0000
    105 H50        2.8573   10.8567    8.1539 H         2 RES2    0.0000
    106 C48        4.1241   10.8036    9.7033 C.ar      2 RES2    0.0000
    107 H51        3.4537   10.6520   10.3607 H         2 RES2    0.0000
    108 N5         4.8212   10.5809   12.3365 N.2       2 RES2    0.0000
    109 N6         5.8399   10.7766   11.4002 N.pl3     2 RES2    0.0000
    110 N7         7.8779   11.1414    9.3284 N.pl3     2 RES2    0.0000
    111 N8         4.3565   11.2329    6.0199 N.pl3     2 RES2    0.0000
    112 O5         8.2812   11.0149   10.4993 O.2       2 RES2    0.0000
    113 O6         8.6347   11.2869    8.3813 O.2       2 RES2    0.0000
    114 O7         5.1678   11.6173    5.1937 O.2       2 RES2    0.0000
    115 O8         3.1834   10.9094    5.7267 O.2       2 RES2    0.0000
    116 H52        6.8559   10.9192   11.7093 H         2 RES2    0.0000
    117 C49        4.2996    9.6742   14.5256 Du        3 SUP3    0.0000
    118 H53        3.8151   10.5080   14.7903 Du        3 SUP3    0.0000
    119 C50        3.0797    8.9664   14.2360 Du        3 SUP3    0.0000
    120 H54        2.6498    8.7713   15.1048 Du        3 SUP3    0.0000
    121 H55        3.3444    8.0943   13.8469 Du        3 SUP3    0.0000
    122 C51        2.0094    9.5459   13.3316 Du        3 SUP3    0.0000
    123 H56        1.7258   10.4162   13.6781 Du        3 SUP3    0.0000
    124 H57        1.2411    8.9380   13.3067 Du        3 SUP3    0.0000
    125 H58        2.3692    9.6556   12.4272 Du        3 SUP3    0.0000
    126 C52        6.3352    9.5134   15.4371 Du        3 SUP3    0.0000
    127 H59        6.4320    8.5549   15.1528 Du        3 SUP3    0.0000
    128 C53        7.4478    9.7323   16.4535 Du        3 SUP3    0.0000
    129 C54        8.3269    8.7148   16.8195 Du        3 SUP3    0.0000
    130 C55        9.2792    8.9378   17.8039 Du        3 SUP3    0.0000
    131 H60        9.8743    8.2484   18.0633 Du        3 SUP3    0.0000
    132 C56        9.3601   10.2118   18.3884 Du        3 SUP3    0.0000
    133 H61       10.0739   10.4006   18.9908 Du        3 SUP3    0.0000
    134 C57        8.4582   11.1742   18.1237 Du        3 SUP3    0.0000
    135 H62        8.4512   11.9870   18.6088 Du        3 SUP3    0.0000
    136 C58        7.5108   10.9279   17.1109 Du        3 SUP3    0.0000
    137 H63        6.9040   11.6174   16.8763 Du        3 SUP3    0.0000
    138 C59        8.2834    7.3250   16.1692 Du        3 SUP3    0.0000
    139 H64        7.3536    7.0508   16.0519 Du        3 SUP3    0.0000
    140 H65        8.7485    6.6821   16.7431 Du        3 SUP3    0.0000
    141 H66        8.7284    7.3635   15.2950 Du        3 SUP3    0.0000
@<TRIPOS>BOND
     1    1    2 1
     2    2    3 1
     3    4    2 1
     4    5    4 1
     5    6    4 1
     6    7    1 1
     7    8    7 1
     8    9    7 1
     9   10    2 1
    10   11   10 1
    11   12   10 1
    12   13   10 1
    13   14   13 1
    14   15   13 1
    15   16   13 1
    16   17    4 1
    17   18   17 1
    18   19   17 1
    19   20   19 ar
    20   21   20 ar
    21   22   21 1
    22   23   21 ar
    23   24   23 1
    24   25   23 ar
    25   26   25 1
    26   27   19 ar
    27   28   27 1
    28   29   20 1
    29   30   29 1
    30   31   29 1
    31   32   29 1
    32   33   34 ar
    33   34   35 ar
    34   35   36 1
    35   37   35 ar
    36   38   37 ar
    37   39   38 1
    38   40   33 ar
    39   41   40 1
    40   42    1 2
    41   43   33 1
    42   44   34 1
    43   45   37 1
    44   46   44 2
    45   47   44 2
    46   48   45 2
    47   49   45 2
    48   50   43 1
    49   67   71 1
    50   68   69 1
    51   70   68 1
    52   71   72 1
    53   73   71 1
    54   74   67 1
    55   75   74 1
    56   76   74 1
    57   77   76 1
    58   78   76 1
    59   79   76 1
    60   80   79 1
    61   81   79 1
    62   82   79 1
    63   83   68 1
    64   84   83 1
    65   85   83 1
    66   86   85 ar
    67   87   86 ar
    68   88   87 1
    69   89   87 ar
    70   90   89 1
    71   91   89 ar
    72   92   91 1
    73   93   85 ar
    74   94   93 1
    75   95   86 1
    76   96   95 1
    77   97   95 1
    78   98   95 1
    79   99  100 ar
    80  100  101 ar
    81  101  102 1
    82  103  101 ar
    83  104  103 ar
    84  105  104 1
    85  106   99 ar
    86  107  106 1
    87  108   67 2
    88  109   99 1
    89  110  100 1
    90  111  103 1
    91  112  110 2
    92  113  110 2
    93  114  111 2
    94  115  111 2
    95  116  109 1
    96    7   17 1
    97   25   27 ar
    98   38   40 ar
    99   42   43 1
   100   68   74 1
   101   71   83 1
   102   91   93 ar
   103  104  106 ar
   104  108  109 1
@<TRIPOS>SUBSTRUCTURE
     1 RES1 1
     2 RES2 67
     3 SUP3 51

@<TRIPOS>CRYSIN
   8.1240   13.2520   18.6470  72.4910  88.9520  79.1860   2 1

