# MOL2 file generated by ConQuest
# Please check atom types

@<TRIPOS>MOLECULE
WOMWUR
    30    31     1
SMALL
NO_CHARGES
****
Generated from CSD

@<TRIPOS>ATOM
      1 O1        -1.0976    7.9259    7.5335 O.2       1 RES1    0.0000
      2 O2         0.7878    7.3276   14.1495 O.2       1 RES1    0.0000
      3 O3         2.3422    5.8438   13.9144 O.2       1 RES1    0.0000
      4 O4        -1.9286    5.1320    7.4232 O.2       1 RES1    0.0000
      5 O5        -3.1865    4.5177    5.7840 O.2       1 RES1    0.0000
      6 N1         0.7326    6.5956    7.8942 N.am      1 RES1    0.0000
      7 H1         1.3631    6.1717    7.4501 H         1 RES1    0.0000
      8 N2         1.4958    6.6016   13.4553 N.pl3     1 RES1    0.0000
      9 N3        -2.1933    5.0645    6.2305 N.pl3     1 RES1    0.0000
     10 C1         0.8944    6.6671    9.2922 C.ar      1 RES1    0.0000
     11 C2         0.1342    7.5051   10.1091 C.ar      1 RES1    0.0000
     12 H2        -0.5179    8.0826    9.7301 H         1 RES1    0.0000
     13 C3         0.3417    7.4863   11.4836 C.ar      1 RES1    0.0000
     14 H3        -0.1717    8.0438   12.0557 H         1 RES1    0.0000
     15 C4         1.3050    6.6450   12.0053 C.ar      1 RES1    0.0000
     16 C5         2.0804    5.8241   11.2094 C.ar      1 RES1    0.0000
     17 H4         2.7423    5.2615   11.5933 H         1 RES1    0.0000
     18 C6         1.8720    5.8382    9.8458 C.ar      1 RES1    0.0000
     19 H5         2.3953    5.2819    9.2816 H         1 RES1    0.0000
     20 C7        -0.2876    7.1071    7.1519 C.2       1 RES1    0.0000
     21 C8        -0.3089    6.5963    5.7293 C.ar      1 RES1    0.0000
     22 C9         0.5689    7.1324    4.7983 C.ar      1 RES1    0.0000
     23 H6         1.2361    7.7475    5.0804 H         1 RES1    0.0000
     24 C10        0.4821    6.7782    3.4596 C.ar      1 RES1    0.0000
     25 H7         1.0948    7.1471    2.8335 H         1 RES1    0.0000
     26 C11       -0.4901    5.8918    3.0278 C.ar      1 RES1    0.0000
     27 H8        -0.5510    5.6646    2.1075 H         1 RES1    0.0000
     28 C12       -1.3738    5.3369    3.9391 C.ar      1 RES1    0.0000
     29 H9        -2.0465    4.7291    3.6533 H         1 RES1    0.0000
     30 C13       -1.2594    5.6849    5.2780 C.ar      1 RES1    0.0000
@<TRIPOS>BOND
     1    1   20 2
     2    2    8 2
     3    3    8 2
     4    4    9 2
     5    5    9 2
     6    6    7 1
     7    8   15 1
     8    9   30 1
     9   10    6 1
    10   11   10 ar
    11   12   11 1
    12   13   11 ar
    13   14   13 1
    14   15   13 ar
    15   16   15 ar
    16   17   16 1
    17   18   10 ar
    18   19   18 1
    19   20    6 1
    20   21   20 1
    21   22   21 ar
    22   23   22 1
    23   24   22 ar
    24   25   24 1
    25   26   24 ar
    26   27   26 1
    27   28   26 ar
    28   29   28 1
    29   30   21 ar
    30   16   18 ar
    31   28   30 ar
@<TRIPOS>SUBSTRUCTURE
     1 RES1 1

@<TRIPOS>CRYSIN
   8.9443    9.7147   13.8016  90.0000  90.0000  90.0000  19 1

