# MOL2 file generated by ConQuest
# Please check atom types

@<TRIPOS>MOLECULE
WOMXIF
    30    30     2
SMALL
NO_CHARGES
****
Generated from CSD

@<TRIPOS>ATOM
      1 O1         9.0702    1.5569    1.7361 O.3       1 RES1    0.0000
      2 H1         9.4690    0.7371    1.3750 H         1 RES1    0.0000
      3 O2        -0.7934    1.5966    7.6351 O.3       2 RES2    0.0000
      4 H2        -0.6443    0.7388    8.1442 H         2 RES2    0.0000
      5 N1         5.3008    3.3188    3.6441 N.ar      1 RES1    0.0000
      6 N2         7.8379    1.2676    2.3134 N.2       1 RES1    0.0000
      7 N3        -2.9930    3.3745    4.0460 N.ar      2 RES2    0.0000
      8 N4        -1.5405    1.3107    6.4914 N.2       2 RES2    0.0000
      9 C1         5.9501    2.1574    3.4054 C.ar      1 RES1    0.0000
     10 C2         5.4047    0.9269    3.7387 C.ar      1 RES1    0.0000
     11 H3         5.8640    0.1021    3.6094 H         1 RES1    0.0000
     12 C3         4.1527    0.8788    4.3256 C.ar      1 RES1    0.0000
     13 H4         3.6543    0.0017    4.4983 H         1 RES1    0.0000
     14 C4         3.4772    2.0621    4.5582 C.ar      1 RES1    0.0000
     15 H5         2.5852    2.0427    4.9089 H         1 RES1    0.0000
     16 C5         4.0922    3.2480    4.2179 C.ar      1 RES1    0.0000
     17 H6         3.6911    4.1226    4.3794 H         1 RES1    0.0000
     18 C6         7.2693    2.2991    2.7795 C.2       1 RES1    0.0000
     19 H7         7.8020    3.1940    2.6137 H         1 RES1    0.0000
     20 C7        -2.5822    2.2140    4.5834 C.ar      2 RES2    0.0000
     21 C8        -2.8839    0.9809    4.0087 C.ar      2 RES2    0.0000
     22 H8        -2.5570    0.1139    4.3811 H         2 RES2    0.0000
     23 C9        -3.6453    0.9438    2.8655 C.ar      2 RES2    0.0000
     24 H9        -3.9554    0.0489    2.4063 H         2 RES2    0.0000
     25 C10       -4.0791    2.1347    2.3056 C.ar      2 RES2    0.0000
     26 H10       -4.6549    2.1170    1.4896 H         2 RES2    0.0000
     27 C11       -3.7261    3.3163    2.9193 C.ar      2 RES2    0.0000
     28 H11       -3.9923    4.1842    2.5547 H         2 RES2    0.0000
     29 C12       -1.7828    2.3447    5.8056 C.2       2 RES2    0.0000
     30 H12       -1.4106    3.2463    6.1849 H         2 RES2    0.0000
@<TRIPOS>BOND
     1    1    2 1
     2    3    4 1
     3    5    9 ar
     4    6    1 1
     5    7   20 ar
     6    8    3 1
     7    9   10 ar
     8   10   11 1
     9   12   10 ar
    10   13   12 1
    11   14   12 ar
    12   15   14 1
    13   16    5 ar
    14   17   16 1
    15   18    6 2
    16   19   18 1
    17   20   21 ar
    18   21   22 1
    19   23   21 ar
    20   24   23 1
    21   25   23 ar
    22   26   25 1
    23   27    7 ar
    24   28   27 1
    25   29    8 2
    26   30   29 1
    27    9   18 1
    28   14   16 ar
    29   20   29 1
    30   25   27 ar
@<TRIPOS>SUBSTRUCTURE
     1 RES1 1
     2 RES2 3

@<TRIPOS>CRYSIN
  16.4065    8.4341    9.0196  90.0000 105.7580  90.0000  14 1

