# MOL2 file generated by ConQuest
# Please check atom types

@<TRIPOS>MOLECULE
WOMXOL
    15    15     1
SMALL
NO_CHARGES
****
Generated from CSD

@<TRIPOS>ATOM
      1 O1        17.9650    1.0482    9.8121 O.3       1 RES1    0.0000
      2 H1        17.5157    0.6162   10.6945 H         1 RES1    0.0000
      3 N1        16.7956    0.3661    4.0500 N.ar      1 RES1    0.0000
      4 N2        17.0962    0.6074    8.8136 N.2       1 RES1    0.0000
      5 C1        17.3963    0.6606    5.2117 C.ar      1 RES1    0.0000
      6 H2        18.2801    1.1431    5.2011 H         1 RES1    0.0000
      7 C2        16.8439    0.3879    6.4545 C.ar      1 RES1    0.0000
      8 C3        15.5949   -0.2183    6.4927 C.ar      1 RES1    0.0000
      9 H3        15.2093   -0.4695    7.3199 H         1 RES1    0.0000
     10 C4        14.9532   -0.5070    5.3018 C.ar      1 RES1    0.0000
     11 H4        14.0285   -1.0619    5.2434 H         1 RES1    0.0000
     12 C5        15.5835   -0.2198    4.1068 C.ar      1 RES1    0.0000
     13 H5        15.2017   -0.4442    3.2537 H         1 RES1    0.0000
     14 C6        17.6005    0.7709    7.6576 C.2       1 RES1    0.0000
     15 H6        18.6451    1.1033    7.5821 H         1 RES1    0.0000
@<TRIPOS>BOND
     1    1    2 1
     2    3    5 ar
     3    4    1 1
     4    5    6 1
     5    7    5 ar
     6    8    7 ar
     7    9    8 1
     8   10    8 ar
     9   11   10 1
    10   12    3 ar
    11   13   12 1
    12   14    4 2
    13   15   14 1
    14    7   14 1
    15   10   12 ar
@<TRIPOS>SUBSTRUCTURE
     1 RES1 1

@<TRIPOS>CRYSIN
  19.0140    3.8296    8.1179  90.0000  90.0000  90.0000  33 1

