# MOL2 file generated by ConQuest
# Please check atom types

@<TRIPOS>MOLECULE
WOMYEC
    17    17     1
SMALL
NO_CHARGES
****
Generated from CSD

@<TRIPOS>ATOM
      1 O1         1.6583    0.9499    0.4362 O.3       1 RES1    0.0000
      2 H1         1.2782    1.5298    0.9355 H         1 RES1    0.0000
      3 N1         6.4506    1.8708   -3.6519 N.ar      1 RES1    0.0000
      4 N2         2.7398    1.5506   -0.2621 N.2       1 RES1    0.0000
      5 N3         2.5528   -0.4741   -1.4262 N.pl3     1 RES1    0.0000
      6 H2         3.0066   -1.0723   -1.9469 H         1 RES1    0.0000
      7 H3         2.0082   -0.7834   -0.8719 H         1 RES1    0.0000
      8 C1         6.2506    2.4388   -2.4479 C.ar      1 RES1    0.0000
      9 H4         7.0368    3.0843   -2.1899 H         1 RES1    0.0000
     10 C2         5.1943    2.1109   -1.6136 C.ar      1 RES1    0.0000
     11 H5         5.0361    2.5494   -0.8268 H         1 RES1    0.0000
     12 C3         4.2832    1.1365   -2.0279 C.ar      1 RES1    0.0000
     13 C4         4.4780    0.5545   -3.2788 C.ar      1 RES1    0.0000
     14 H6         4.0101   -0.1590   -3.5709 H         1 RES1    0.0000
     15 C5         5.5613    0.9453   -4.0488 C.ar      1 RES1    0.0000
     16 H7         5.7699    0.5814   -4.8802 H         1 RES1    0.0000
     17 C6         3.1441    0.7189   -1.1699 C.2       1 RES1    0.0000
@<TRIPOS>BOND
     1    1    2 1
     2    3    8 ar
     3    4    1 1
     4    5    6 1
     5    7    5 1
     6    8    9 1
     7   10    8 ar
     8   11   10 1
     9   12   10 ar
    10   13   12 ar
    11   14   13 1
    12   15    3 ar
    13   16   15 1
    14   17    4 2
    15    5   17 1
    16   12   17 1
    17   13   15 ar
@<TRIPOS>SUBSTRUCTURE
     1 RES1 1

@<TRIPOS>CRYSIN
  12.5433    8.7821    5.7857  90.0000  90.0000  90.0000  33 1

