# MOL2 file generated by ConQuest
# Please check atom types

@<TRIPOS>MOLECULE
WONTUO
    27    27     1
SMALL
NO_CHARGES
****
Generated from CSD

@<TRIPOS>ATOM
      1 O1         0.6124    7.9798    6.3290 O.2       1 RES1    0.0000
      2 O2        -0.9290    6.7540    7.1090 O.2       1 RES1    0.0000
      3 O3         1.9358    1.7176    3.4502 O.3       1 RES1    0.0000
      4 O4         4.7245    2.3761    6.4506 O.2       1 RES1    0.0000
      5 N1         0.1316    6.9029    6.5296 N.pl3     1 RES1    0.0000
      6 C1         2.6412    4.7481    4.8440 C.ar      1 RES1    0.0000
      7 C2         2.0015    5.8764    5.3140 C.ar      1 RES1    0.0000
      8 C3         0.8391    5.7096    6.0413 C.ar      1 RES1    0.0000
      9 C4         0.3141    4.4712    6.3280 C.ar      1 RES1    0.0000
     10 C5         0.9710    3.3587    5.8458 C.ar      1 RES1    0.0000
     11 C6         2.1361    3.4761    5.0942 C.ar      1 RES1    0.0000
     12 C7         2.7808    2.2440    4.4753 C.3       1 RES1    0.0000
     13 C8         2.9921    1.1367    5.4832 C.2       1 RES1    0.0000
     14 C9         4.0334    1.3747    6.5114 C.2       1 RES1    0.0000
     15 C10        2.3252   -0.0084    5.4305 C.2       1 RES1    0.0000
     16 C11        4.2457    0.3859    7.6115 C.3       1 RES1    0.0000
     17 H1         3.4020    4.8340    4.3051 H         1 RES1    0.0000
     18 H2         2.2828    6.8149    5.1682 H         1 RES1    0.0000
     19 H3        -0.4898    4.3496    6.7950 H         1 RES1    0.0000
     20 H4         0.5960    2.4894    6.0099 H         1 RES1    0.0000
     21 H5         3.7306    2.4915    4.1268 H         1 RES1    0.0000
     22 H6         1.6875   -0.1720    4.7488 H         1 RES1    0.0000
     23 H7         2.5141   -0.6858    6.1102 H         1 RES1    0.0000
     24 H8         4.4748   -0.4100    7.3015 H         1 RES1    0.0000
     25 H9         3.4356    0.0409    7.9326 H         1 RES1    0.0000
     26 H10        4.6963    0.7550    8.3256 H         1 RES1    0.0000
     27 H11        1.6844    2.3300    2.8312 H         1 RES1    0.0000
@<TRIPOS>BOND
     1    1    5 2
     2    2    5 2
     3    3   12 1
     4    4   14 2
     5    5    8 1
     6    6    7 ar
     7    7    8 ar
     8    8    9 ar
     9    9   10 ar
    10   10   11 ar
    11   11    6 ar
    12   12   11 1
    13   13   12 1
    14   14   13 1
    15   15   13 2
    16   16   14 1
    17   17    6 1
    18   18    7 1
    19   19    9 1
    20   20   10 1
    21   21   12 1
    22   22   15 1
    23   23   15 1
    24   24   16 1
    25   25   16 1
    26   26   16 1
    27   27    3 1
@<TRIPOS>SUBSTRUCTURE
     1 RES1 1

@<TRIPOS>CRYSIN
  19.9580   10.4860   15.0090  90.0000 137.5530  90.0000  15 1

