# MOL2 file generated by ConQuest
# Please check atom types

@<TRIPOS>MOLECULE
WOQNUL
    34    34     1
SMALL
NO_CHARGES
****
Generated from CSD

@<TRIPOS>ATOM
      1 C1         3.1768   11.2204    2.2972 C.ar      1 RES1    0.0000
      2 C2         3.2052   11.3732    3.6855 C.ar      1 RES1    0.0000
      3 H1         2.6468   12.0242    4.1170 H         1 RES1    0.0000
      4 C3         4.0503   10.5686    4.4292 C.ar      1 RES1    0.0000
      5 O1         4.1822   10.6371    5.7901 O.3       1 RES1    0.0000
      6 C4         4.8795    9.6297    3.8158 C.ar      1 RES1    0.0000
      7 H2         5.4679    9.0824    4.3410 H         1 RES1    0.0000
      8 C5         4.8353    9.5017    2.4391 C.ar      1 RES1    0.0000
      9 O2         5.5966    8.6099    1.7331 O.3       1 RES1    0.0000
     10 C6         3.9802   10.2886    1.6739 C.ar      1 RES1    0.0000
     11 H3         3.9450   10.1817    0.7205 H         1 RES1    0.0000
     12 C7         2.2185   12.0887    1.5019 C.3       1 RES1    0.0000
     13 H4         2.2023   12.9635    1.8968 H         1 RES1    0.0000
     14 O3         2.6655   12.1702    0.1607 O.3       1 RES1    0.0000
     15 H5         2.2182   12.7014   -0.3324 H         1 RES1    0.0000
     16 C8         0.8092   11.5226    1.5485 C.2       1 RES1    0.0000
     17 N1        -0.0226   12.1897    2.2400 N.2       1 RES1    0.0000
     18 O4        -1.3083   11.5950    2.2285 O.3       1 RES1    0.0000
     19 C9         0.5023   10.2817    0.7670 C.3       1 RES1    0.0000
     20 H6         1.2987    9.9735    0.3285 H         1 RES1    0.0000
     21 H7        -0.1704   10.4749    0.1100 H         1 RES1    0.0000
     22 H8         0.1813    9.6010    1.3629 H         1 RES1    0.0000
     23 C10       -2.2203   12.4535    2.8675 C.3       1 RES1    0.0000
     24 H9        -3.0942   12.0564    2.8631 H         1 RES1    0.0000
     25 H10       -2.2460   13.2888    2.3952 H         1 RES1    0.0000
     26 H11       -1.9430   12.6067    3.7737 H         1 RES1    0.0000
     27 C11        3.1707   11.2923    6.5340 C.3       1 RES1    0.0000
     28 H12        3.3946   11.2673    7.4672 H         1 RES1    0.0000
     29 H13        2.3334   10.8441    6.3937 H         1 RES1    0.0000
     30 H14        3.0969   12.2054    6.2470 H         1 RES1    0.0000
     31 C12        6.4839    7.7680    2.4555 C.3       1 RES1    0.0000
     32 H15        6.9506    7.1961    1.8419 H         1 RES1    0.0000
     33 H16        5.9853    7.2321    3.0766 H         1 RES1    0.0000
     34 H17        7.1171    8.3076    2.9348 H         1 RES1    0.0000
@<TRIPOS>BOND
     1    1    2 ar
     2    2    3 1
     3    4    2 ar
     4    5    4 1
     5    6    4 ar
     6    7    6 1
     7    8    6 ar
     8    9    8 1
     9   10    1 ar
    10   11   10 1
    11   12    1 1
    12   13   12 1
    13   14   12 1
    14   15   14 1
    15   16   12 1
    16   17   16 2
    17   18   17 1
    18   19   16 1
    19   20   19 1
    20   21   19 1
    21   22   19 1
    22   23   18 1
    23   24   23 1
    24   25   23 1
    25   26   23 1
    26   27    5 1
    27   28   27 1
    28   29   27 1
    29   30   27 1
    30   31    9 1
    31   32   31 1
    32   33   31 1
    33   34   31 1
    34    8   10 ar
@<TRIPOS>SUBSTRUCTURE
     1 RES1 1

@<TRIPOS>CRYSIN
   9.3800   17.6310    8.2480  90.0000 113.0500  90.0000  14 1

