# MOL2 file generated by ConQuest
# Please check atom types

@<TRIPOS>MOLECULE
WORWAB
    45    41     2
SMALL
NO_CHARGES
****
Generated from CSD

@<TRIPOS>ATOM
      1 O1        -0.5885   11.4283    3.0249 O.2       1 RES1    0.0000
      2 O2        -2.3226   10.7596    5.4897 O.2       1 RES1    0.0000
      3 O3        -0.2275   10.1098    5.9212 O.3       1 RES1    0.0000
      4 O4        -2.2688    9.0032    0.7059 O.2       1 RES1    0.0000
      5 O5        -1.4487    7.1432    0.1329 O.2       1 RES1    0.0000
      6 N1        -1.8218    7.9202    0.9731 N.pl3     1 RES1    0.0000
      7 N2         0.0381    6.8639    5.8826 N.1       1 RES1    0.0000
      8 C1        -1.6265    8.5637    4.7924 C.3       1 RES1    0.0000
      9 C2        -3.0716    8.0819    5.0539 C.3       1 RES1    0.0000
     10 C3        -3.4213    6.8466    4.2609 C.3       1 RES1    0.0000
     11 C4        -3.2343    7.0852    2.7791 C.3       1 RES1    0.0000
     12 C5        -1.7842    7.4697    2.4605 C.3       1 RES1    0.0000
     13 C6        -1.3539    8.7207    3.2578 C.3       1 RES1    0.0000
     14 C7         0.0778    9.1539    2.9349 C.3       1 RES1    0.0000
     15 C8         0.3061   10.6403    2.8420 C.2       1 RES1    0.0000
     16 C9         1.6886   11.0829    2.4977 C.3       1 RES1    0.0000
     17 C10       -0.8485    6.2831    2.5548 C.3       1 RES1    0.0000
     18 C11       -0.6743    7.6141    5.4068 C.1       1 RES1    0.0000
     19 C12       -1.4529    9.9497    5.4511 C.2       1 RES1    0.0000
     20 C13        0.0561   11.3890    6.5771 C.3       1 RES1    0.0000
     21 C14        1.4991   11.4581    6.8028 C.3       1 RES1    0.0000
     22 C15        1.2082   12.0263    6.0155 Du        2 SUP2    0.0000
     23 H1        -3.1781    7.9579    6.0041 H         1 RES1    0.0000
     24 H2        -3.6495    8.8306    4.7996 H         1 RES1    0.0000
     25 H3        -4.3353    6.6033    4.4466 H         1 RES1    0.0000
     26 H4        -2.8660    6.1387    4.5124 H         1 RES1    0.0000
     27 H5        -3.7863    7.8213    2.5077 H         1 RES1    0.0000
     28 H6        -3.4392    6.2596    2.2719 H         1 RES1    0.0000
     29 H7        -1.9474    9.4584    3.0035 H         1 RES1    0.0000
     30 H8         0.7078    8.8149    3.5807 H         1 RES1    0.0000
     31 H9         0.3606    8.7945    2.1019 H         1 RES1    0.0000
     32 H10        1.6958   11.9870    2.2890 H         1 RES1    0.0000
     33 H11        1.9728   10.6026    1.7747 H         1 RES1    0.0000
     34 H12        2.2344   10.9323    3.1864 H         1 RES1    0.0000
     35 H13       -1.1761    5.6003    2.0190 H         1 RES1    0.0000
     36 H14       -0.8546    5.9441    3.5179 H         1 RES1    0.0000
     37 H15        0.0894    6.4934    2.2419 H         1 RES1    0.0000
     38 H16       -0.4217   11.4251    7.4615 H         1 RES1    0.0000
     39 H17       -0.1608   12.0608    5.9484 H         1 RES1    0.0000
     40 H18        1.7163   12.2868    7.2386 H         1 RES1    0.0000
     41 H19        1.9578   11.4094    5.9598 H         1 RES1    0.0000
     42 H20        1.7719   10.7219    7.3587 H         1 RES1    0.0000
     43 H21        1.3907   12.8393    6.4928 Du        2 SUP2    0.0000
     44 H22        1.0428   12.2288    5.0896 Du        2 SUP2    0.0000
     45 H23        1.9647   11.4377    6.0841 Du        2 SUP2    0.0000
@<TRIPOS>BOND
     1    1   15 2
     2    2   19 2
     3    3   19 1
     4    4    6 2
     5    5    6 2
     6    6   12 1
     7    7   18 3
     8    8    9 1
     9    9   10 1
    10   10   11 1
    11   11   12 1
    12   12   13 1
    13   13    8 1
    14   14   13 1
    15   15   14 1
    16   16   15 1
    17   17   12 1
    18   18    8 1
    19   19    8 1
    20   20    3 1
    21   21   20 1
    22   23    9 1
    23   24    9 1
    24   25   10 1
    25   26   10 1
    26   27   11 1
    27   28   11 1
    28   29   13 1
    29   30   14 1
    30   31   14 1
    31   32   16 1
    32   33   16 1
    33   34   16 1
    34   35   17 1
    35   36   17 1
    36   37   17 1
    37   38   20 1
    38   39   20 1
    39   40   21 1
    40   41   21 1
    41   42   21 1
@<TRIPOS>SUBSTRUCTURE
     1 RES1 1
     2 SUP2 22

@<TRIPOS>CRYSIN
   6.7650   15.6960   14.4180  90.0000  97.6800  90.0000 231 1

