# MOL2 file generated by ConQuest
# Please check atom types

@<TRIPOS>MOLECULE
WORZUY
    31    32     1
SMALL
NO_CHARGES
****
Generated from CSD

@<TRIPOS>ATOM
      1 O1         4.7949    0.9899   17.1011 O.3       1 RES1    0.0000
      2 O2         6.6233    2.4388   17.3860 O.3       1 RES1    0.0000
      3 O3         4.0303    0.4738   15.1059 O.2       1 RES1    0.0000
      4 O4         7.6269    3.3563   15.6601 O.2       1 RES1    0.0000
      5 O5         4.8991   -3.0151    9.6629 O.2       1 RES1    0.0000
      6 C1         6.5988    0.8942   11.5777 C.ar      1 RES1    0.0000
      7 H1         7.0067    1.7227   11.4649 H         1 RES1    0.0000
      8 O6         5.8135   -1.5349    8.3910 O.2       1 RES1    0.0000
      9 C2         6.6580    1.3428   13.9685 C.2       1 RES1    0.0000
     10 H2         7.3765    1.8988   13.7680 H         1 RES1    0.0000
     11 N1         5.4621   -1.9497    9.4869 N.pl3     1 RES1    0.0000
     12 C3         6.1760    1.5165   15.2116 C.2       1 RES1    0.0000
     13 C4         5.7440   -1.1108   10.6623 C.ar      1 RES1    0.0000
     14 C5         6.3198    0.1234   10.4689 C.ar      1 RES1    0.0000
     15 H3         6.5153    0.4296    9.6118 H         1 RES1    0.0000
     16 C6         5.4282   -1.5926   11.9235 C.ar      1 RES1    0.0000
     17 H4         5.0393   -2.4315   12.0262 H         1 RES1    0.0000
     18 C7         5.7012   -0.8064   13.0230 C.ar      1 RES1    0.0000
     19 H5         5.4971   -1.1182   13.8742 H         1 RES1    0.0000
     20 C8         4.9314    0.9193   15.7599 C.2       1 RES1    0.0000
     21 C9         6.8785    2.5100   16.0666 C.2       1 RES1    0.0000
     22 C10        6.2806    0.4548   12.8683 C.ar      1 RES1    0.0000
     23 C11        5.9499    1.2777   17.9083 C.3       1 RES1    0.0000
     24 C12        5.4354    1.6895   19.2583 C.3       1 RES1    0.0000
     25 H6         4.8632    2.4548   19.1630 H         1 RES1    0.0000
     26 H7         6.1743    1.9111   19.8279 H         1 RES1    0.0000
     27 H8         4.9385    0.9647   19.6459 H         1 RES1    0.0000
     28 C13        6.8753    0.0921   17.9407 C.3       1 RES1    0.0000
     29 H9         6.4064   -0.6702   18.2883 H         1 RES1    0.0000
     30 H10        7.6278    0.2884   18.5032 H         1 RES1    0.0000
     31 H11        7.1812   -0.0994   17.0520 H         1 RES1    0.0000
@<TRIPOS>BOND
     1    1   20 1
     2    2   21 1
     3    3   20 2
     4    4   21 2
     5    5   11 2
     6    6    7 1
     7    8   11 2
     8    9   10 1
     9   11   13 1
    10   12    9 2
    11   13   14 ar
    12   14    6 ar
    13   15   14 1
    14   16   13 ar
    15   17   16 1
    16   18   16 ar
    17   19   18 1
    18   20   12 1
    19   21   12 1
    20   22    6 ar
    21   23    1 1
    22   24   23 1
    23   25   24 1
    24   26   24 1
    25   27   24 1
    26   28   23 1
    27   29   28 1
    28   30   28 1
    29   31   28 1
    30    2   23 1
    31    9   22 1
    32   18   22 ar
@<TRIPOS>SUBSTRUCTURE
     1 RES1 1

@<TRIPOS>CRYSIN
  16.0080    6.1370   25.2810  90.0000  90.0000  90.0000  61 1

