# MOL2 file generated by ConQuest
# Please check atom types

@<TRIPOS>MOLECULE
WOTGAN
    57    58     1
SMALL
NO_CHARGES
****
Generated from CSD

@<TRIPOS>ATOM
      1 C1         0.6897    3.4914    6.7630 C.2       1 RES1    0.0000
      2 C2         1.3909    3.2675    8.0805 C.3       1 RES1    0.0000
      3 H1         0.7112    3.1442    8.7483 H         1 RES1    0.0000
      4 C3         2.2245    1.9610    8.0280 C.3       1 RES1    0.0000
      5 H2         1.6099    1.2442    7.8548 H         1 RES1    0.0000
      6 C4         3.1725    1.9398    6.8154 C.3       1 RES1    0.0000
      7 H3         3.7134    2.7295    6.8929 H         1 RES1    0.0000
      8 C5         2.3533    2.0935    5.5230 C.3       1 RES1    0.0000
      9 H4         2.0685    1.2071    5.2882 H         1 RES1    0.0000
     10 H5         2.9214    2.4181    4.8209 H         1 RES1    0.0000
     11 C6         1.1398    2.9534    5.6529 C.2       1 RES1    0.0000
     12 H6         0.6826    3.1747    4.8369 H         1 RES1    0.0000
     13 C7        -0.5717    4.2970    6.7653 C.3       1 RES1    0.0000
     14 H7        -0.9294    4.3738    5.8763 H         1 RES1    0.0000
     15 H8        -1.2099    3.8571    7.3306 H         1 RES1    0.0000
     16 H9        -0.3864    5.1728    7.1117 H         1 RES1    0.0000
     17 C8         2.2238    4.4785    8.5295 C.3       1 RES1    0.0000
     18 H10        2.8692    4.6932    7.8525 H         1 RES1    0.0000
     19 H11        2.6846    4.2837    9.3501 H         1 RES1    0.0000
     20 O1         1.2879    5.5716    8.7424 O.3       1 RES1    0.0000
     21 C9         1.8438    6.7297    9.1313 C.2       1 RES1    0.0000
     22 O2         3.0337    6.8768    9.3000 O.2       1 RES1    0.0000
     23 C10        0.8371    7.8135    9.3091 C.ar      1 RES1    0.0000
     24 C11        1.3144    9.1134    9.4663 C.ar      1 RES1    0.0000
     25 H12        2.2624    9.2591    9.4436 H         1 RES1    0.0000
     26 C12        0.4279   10.1495    9.6236 C.ar      1 RES1    0.0000
     27 H13        0.7591   11.0412    9.7513 H         1 RES1    0.0000
     28 C13       -0.9144    9.8805    9.6350 C.ar      1 RES1    0.0000
     29 C14       -1.4052    8.6085    9.4823 C.ar      1 RES1    0.0000
     30 H14       -2.3533    8.4601    9.4709 H         1 RES1    0.0000
     31 C15       -0.5223    7.5843    9.3068 C.ar      1 RES1    0.0000
     32 H15       -0.8307    6.6793    9.2179 H         1 RES1    0.0000
     33 N1        -1.8646   11.0015    9.8151 N.pl3     1 RES1    0.0000
     34 O3        -3.0545   10.7749    9.8493 O.2       1 RES1    0.0000
     35 O4        -1.4024   12.1132    9.9154 O.2       1 RES1    0.0000
     36 C16        2.9436    1.6430    9.3410 C.3       1 RES1    0.0000
     37 H16        3.2362    0.7288    9.3387 H         1 RES1    0.0000
     38 O5         2.1129    1.8510   10.4508 O.3       1 RES1    0.0000
     39 C17        1.2908    0.7698   10.7588 C.3       1 RES1    0.0000
     40 H17        0.7484    1.0030   11.5155 H         1 RES1    0.0000
     41 H18        0.7255    0.5737   10.0088 H         1 RES1    0.0000
     42 H19        1.8202   -0.0026   10.9708 H         1 RES1    0.0000
     43 O6         4.0605    2.4711    9.4780 O.3       1 RES1    0.0000
     44 C18        4.8861    2.1412   10.5810 C.3       1 RES1    0.0000
     45 H20        5.6245    2.7520   10.6311 H         1 RES1    0.0000
     46 H21        4.3617    2.2061   11.3833 H         1 RES1    0.0000
     47 H22        5.2189    1.2455   10.4898 H         1 RES1    0.0000
     48 C19        4.1277    0.7129    6.7926 C.3       1 RES1    0.0000
     49 H23        4.6279    0.7155    7.6109 H         1 RES1    0.0000
     50 C20        3.4036   -0.6373    6.7220 C.3       1 RES1    0.0000
     51 H24        2.7790   -0.7354    7.4445 H         1 RES1    0.0000
     52 H25        2.9328   -0.6651    5.8854 H         1 RES1    0.0000
     53 H26        4.0426   -1.3541    6.7539 H         1 RES1    0.0000
     54 C21        5.1251    0.8162    5.6233 C.3       1 RES1    0.0000
     55 H27        5.6052    1.6457    5.6666 H         1 RES1    0.0000
     56 H28        5.7455    0.0848    5.6666 H         1 RES1    0.0000
     57 H29        4.6357    0.7725    4.7981 H         1 RES1    0.0000
@<TRIPOS>BOND
     1    1    2 1
     2    2    3 1
     3    4    2 1
     4    5    4 1
     5    6    4 1
     6    7    6 1
     7    8    6 1
     8    9    8 1
     9   10    8 1
    10   11    1 2
    11   12   11 1
    12   13    1 1
    13   14   13 1
    14   15   13 1
    15   16   13 1
    16   17    2 1
    17   18   17 1
    18   19   17 1
    19   20   17 1
    20   21   20 1
    21   22   21 2
    22   23   21 1
    23   24   23 ar
    24   25   24 1
    25   26   24 ar
    26   27   26 1
    27   28   26 ar
    28   29   28 ar
    29   30   29 1
    30   31   23 ar
    31   32   31 1
    32   33   28 1
    33   34   33 2
    34   35   33 2
    35   36    4 1
    36   37   36 1
    37   38   36 1
    38   39   38 1
    39   40   39 1
    40   41   39 1
    41   42   39 1
    42   43   36 1
    43   44   43 1
    44   45   44 1
    45   46   44 1
    46   47   44 1
    47   48    6 1
    48   49   48 1
    49   50   48 1
    50   51   50 1
    51   52   50 1
    52   53   50 1
    53   54   48 1
    54   55   54 1
    55   56   54 1
    56   57   54 1
    57    8   11 1
    58   29   31 ar
@<TRIPOS>SUBSTRUCTURE
     1 RES1 1

@<TRIPOS>CRYSIN
   7.1550   13.2500   22.7940  90.0000  90.0000  90.0000  19 1

