# MOL2 file generated by ConQuest
# Please check atom types

@<TRIPOS>MOLECULE
WOTKUL
    41    42     1
SMALL
NO_CHARGES
****
Generated from CSD

@<TRIPOS>ATOM
      1 C1         4.5851    3.3176    7.5581 C.3       1 RES1    0.0000
      2 C2         4.4041    4.8231    7.3903 C.3       1 RES1    0.0000
      3 H1         4.6787    5.2986    8.2478 H         1 RES1    0.0000
      4 H2         4.9696    5.1708    6.7775 H         1 RES1    0.0000
      5 O1         2.4647    6.1505    7.9522 O.3       1 RES1    0.0000
      6 H3         2.1563    6.7754    7.3015 H         1 RES1    0.0000
      7 C3         2.9523    5.1825    7.0190 C.3       1 RES1    0.0000
      8 H4         2.9073    5.4806    5.9125 H         1 RES1    0.0000
      9 C4         2.1212    3.8799    7.1521 C.3       1 RES1    0.0000
     10 O2         1.8774    1.6653    6.1236 O.3       1 RES1    0.0000
     11 H5         1.2295    1.6725    5.5411 H         1 RES1    0.0000
     12 C5         2.5920    2.9145    6.0218 C.3       1 RES1    0.0000
     13 H6         2.3312    3.3313    5.1210 H         1 RES1    0.0000
     14 C6         4.0888    2.6249    6.2903 C.3       1 RES1    0.0000
     15 H7         4.1910    1.6992    6.4376 H         1 RES1    0.0000
     16 H8         4.5439    3.0580    5.4621 H         1 RES1    0.0000
     17 C7         3.7210    2.8434    8.7491 C.3       1 RES1    0.0000
     18 H9         3.8024    1.7703    8.7556 H         1 RES1    0.0000
     19 H10        4.0410    3.3352    9.4939 H         1 RES1    0.0000
     20 C8         2.2466    3.2667    8.5001 C.3       1 RES1    0.0000
     21 H11        1.6138    2.4500    8.5823 H         1 RES1    0.0000
     22 H12        1.9451    3.8773    9.2363 H         1 RES1    0.0000
     23 C9         6.0541    2.9732    7.7790 C.2       1 RES1    0.0000
     24 O3         6.7229    2.3483    7.0125 O.2       1 RES1    0.0000
     25 O4         6.4849    3.4696    8.9212 O.3       1 RES1    0.0000
     26 C10        7.8852    3.2556    9.4106 C.3       1 RES1    0.0000
     27 C11        8.8260    3.9399    8.4481 C.3       1 RES1    0.0000
     28 H13        8.8641    3.4422    7.6285 H         1 RES1    0.0000
     29 H14        9.7036    3.9836    8.8357 H         1 RES1    0.0000
     30 H15        8.5112    4.8283    8.2694 H         1 RES1    0.0000
     31 C12        8.1659    1.7664    9.5405 C.3       1 RES1    0.0000
     32 H16        9.0017    1.6360    9.9920 H         1 RES1    0.0000
     33 H17        8.2099    1.3711    8.6668 H         1 RES1    0.0000
     34 H18        7.4613    1.3509   10.0450 H         1 RES1    0.0000
     35 C13        7.8574    3.8968   10.7683 C.3       1 RES1    0.0000
     36 H19        8.7130    3.7873   11.1916 H         1 RES1    0.0000
     37 H20        7.1791    3.4813   11.3053 H         1 RES1    0.0000
     38 H21        7.6656    4.8329   10.6762 H         1 RES1    0.0000
     39 N1         0.6696    4.2458    6.8425 N.pl3     1 RES1    0.0000
     40 O5         0.4432    4.8127    5.7739 O.2       1 RES1    0.0000
     41 O6        -0.1885    3.9477    7.6274 O.2       1 RES1    0.0000
@<TRIPOS>BOND
     1    1    2 1
     2    2    3 1
     3    4    2 1
     4    5    6 1
     5    7    2 1
     6    8    7 1
     7    9    7 1
     8   10   11 1
     9   12    9 1
    10   13   12 1
    11   14    1 1
    12   15   14 1
    13   16   14 1
    14   17    1 1
    15   18   17 1
    16   19   17 1
    17   20    9 1
    18   21   20 1
    19   22   20 1
    20   23    1 1
    21   24   23 2
    22   25   23 1
    23   26   25 1
    24   27   26 1
    25   28   27 1
    26   29   27 1
    27   30   27 1
    28   31   26 1
    29   32   31 1
    30   33   31 1
    31   34   31 1
    32   35   26 1
    33   36   35 1
    34   37   35 1
    35   38   35 1
    36   39    9 1
    37   40   39 2
    38   41   39 2
    39    5    7 1
    40   10   12 1
    41   12   14 1
    42   17   20 1
@<TRIPOS>SUBSTRUCTURE
     1 RES1 1

@<TRIPOS>CRYSIN
  20.9350    6.5230   10.8320  90.0000  91.7900  90.0000  14 1

