# MOL2 file generated by ConQuest
# Please check atom types

@<TRIPOS>MOLECULE
WOTQED
   140   116     5
SMALL
NO_CHARGES
****
Generated from CSD

@<TRIPOS>ATOM
      1 O1         6.8130   -3.8027    4.0938 O.3       1 RES1    0.0000
      2 O2         3.0519    6.5369   -1.8628 O.2       1 RES1    0.0000
      3 O3         1.0535    5.8726   -1.5509 O.2       1 RES1    0.0000
      4 N1         5.2314    0.9574    1.7062 N.2       1 RES1    0.0000
      5 N2         2.2612    5.7168   -1.4553 N.pl3     1 RES1    0.0000
      6 C1         6.8676   -0.6901    2.2554 C.ar      1 RES1    0.0000
      7 C2         7.2743   -1.8961    2.8189 C.ar      1 RES1    0.0000
      8 C3         6.3803   -2.6221    3.5723 C.ar      1 RES1    0.0000
      9 C4         5.0932   -2.1364    3.7917 C.ar      1 RES1    0.0000
     10 C5         4.7000   -0.9636    3.2093 C.ar      1 RES1    0.0000
     11 C6         5.5728   -0.2274    2.3991 C.ar      1 RES1    0.0000
     12 C7         4.0294    1.1103    1.3065 C.2       1 RES1    0.0000
     13 C8         3.6159    2.3002    0.5693 C.ar      1 RES1    0.0000
     14 C9         2.3113    2.3853    0.1089 C.ar      1 RES1    0.0000
     15 C10        1.8636    3.4887   -0.5629 C.ar      1 RES1    0.0000
     16 C11        2.7533    4.5222   -0.7990 C.ar      1 RES1    0.0000
     17 C12        4.0808    4.4382   -0.4172 C.ar      1 RES1    0.0000
     18 C13        4.4947    3.3420    0.2687 C.ar      1 RES1    0.0000
     19 H1         7.4803   -0.1828    1.7722 H         1 RES1    0.0000
     20 H2         6.2118   -4.1888    4.4752 H         1 RES1    0.0000
     21 H3         8.1389   -2.2098    2.6859 H         1 RES1    0.0000
     22 H4         4.5025   -2.6092    4.3323 H         1 RES1    0.0000
     23 H5         3.8372   -0.6499    3.3535 H         1 RES1    0.0000
     24 H6         3.4020    0.4487    1.4894 H         1 RES1    0.0000
     25 H7         1.7281    1.6755    0.2588 H         1 RES1    0.0000
     26 H8         0.9811    3.5440   -0.8557 H         1 RES1    0.0000
     27 H9         4.6783    5.1197   -0.6266 H         1 RES1    0.0000
     28 H10        5.3817    3.2854    0.5445 H         1 RES1    0.0000
     29 O4         9.9631    1.9961    4.8066 O.3       2 RES2    0.0000
     30 O5         3.8652   11.1881   -1.4230 O.2       2 RES2    0.0000
     31 O6         5.6925   12.2588   -1.1079 O.2       2 RES2    0.0000
     32 N3         8.0303    6.5180    2.1258 N.2       2 RES2    0.0000
     33 N4         5.0151   11.2595   -0.9919 N.pl3     2 RES2    0.0000
     34 C14        9.6873    5.2924    3.3337 C.ar      2 RES2    0.0000
     35 C15       10.1847    4.1854    3.9957 C.ar      2 RES2    0.0000
     36 C16        9.4198    3.0416    4.1292 C.ar      2 RES2    0.0000
     37 C17        8.1443    3.0034    3.5728 C.ar      2 RES2    0.0000
     38 C18        7.6698    4.1092    2.9168 C.ar      2 RES2    0.0000
     39 C19        8.4116    5.2787    2.7980 C.ar      2 RES2    0.0000
     40 C20        6.9069    6.6767    1.7779 C.2       2 RES2    0.0000
     41 C21        6.4592    7.9141    1.0481 C.ar      2 RES2    0.0000
     42 C22        7.2964    9.0345    0.8981 C.ar      2 RES2    0.0000
     43 C23        6.8463   10.1625    0.2141 C.ar      2 RES2    0.0000
     44 C24        5.5697   10.0998   -0.3133 C.ar      2 RES2    0.0000
     45 C25        4.7697    8.9850   -0.1895 C.ar      2 RES2    0.0000
     46 C26        5.2115    7.9216    0.5078 C.ar      2 RES2    0.0000
     47 H11        9.3549    1.4500    4.8486 H         2 RES2    0.0000
     48 H12       10.2149    6.0539    3.2475 H         2 RES2    0.0000
     49 H13       11.0419    4.2112    4.3549 H         2 RES2    0.0000
     50 H14        7.6218    2.2386    3.6449 H         2 RES2    0.0000
     51 H15        6.8216    4.0748    2.5374 H         2 RES2    0.0000
     52 H16        6.2821    6.0140    1.9618 H         2 RES2    0.0000
     53 H17        8.1537    9.0236    1.2574 H         2 RES2    0.0000
     54 H18        7.3786   10.9189    0.1174 H         2 RES2    0.0000
     55 H19        3.9279    8.9676   -0.5856 H         2 RES2    0.0000
     56 H20        4.6583    7.1821    0.6209 H         2 RES2    0.0000
     57 O7         2.3111   -2.1820   11.1218 O.3       3 RES3    0.0000
     58 O8         6.2165    8.3441    5.5487 O.2       3 RES3    0.0000
     59 O9         8.1584    7.4669    5.4538 O.2       3 RES3    0.0000
     60 N5         3.9570    2.6026    8.8052 N.2       3 RES3    0.0000
     61 N6         6.9680    7.4115    5.7327 N.pl3     3 RES3    0.0000
     62 C27        4.4679    0.6321   10.2319 C.ar      3 RES3    0.0000
     63 C28        4.0619   -0.5453   10.8060 C.ar      3 RES3    0.0000
     64 C29        2.7674   -1.0045   10.5991 C.ar      3 RES3    0.0000
     65 C30        1.8854   -0.2532    9.8640 C.ar      3 RES3    0.0000
     66 C31        2.2920    0.9504    9.3014 C.ar      3 RES3    0.0000
     67 C32        3.6012    1.3923    9.4461 C.ar      3 RES3    0.0000
     68 C33        5.1334    2.7256    8.3345 C.2       3 RES3    0.0000
     69 C34        5.5730    3.9446    7.6486 C.ar      3 RES3    0.0000
     70 C35        6.8139    3.9721    7.0324 C.ar      3 RES3    0.0000
     71 C36        7.2760    5.0857    6.3871 C.ar      3 RES3    0.0000
     72 C37        6.4639    6.2025    6.3553 C.ar      3 RES3    0.0000
     73 C38        5.2011    6.2007    6.9362 C.ar      3 RES3    0.0000
     74 C39        4.7706    5.0766    7.5868 C.ar      3 RES3    0.0000
     75 H21        2.9577   -2.5045   11.5019 H         3 RES3    0.0000
     76 H22        5.3380    0.9298   10.3690 H         3 RES3    0.0000
     77 H23        4.6517   -1.0358   11.3322 H         3 RES3    0.0000
     78 H24        1.0126   -0.5499    9.7424 H         3 RES3    0.0000
     79 H25        1.6824    1.4653    8.8230 H         3 RES3    0.0000
     80 H26        5.7318    2.0208    8.4284 H         3 RES3    0.0000
     81 H27        7.3494    3.2110    7.0593 H         3 RES3    0.0000
     82 H28        8.1139    5.0922    5.9815 H         3 RES3    0.0000
     83 H29        4.6572    6.9528    6.8825 H         3 RES3    0.0000
     84 H30        3.9338    5.0712    7.9914 H         3 RES3    0.0000
     85 O10        5.2085    3.7856   12.0266 O.3       4 RES4    0.0000
     86 O11        9.7351   13.7349    5.8599 O.2       4 RES4    0.0000
     87 O12       11.6034   12.7452    5.7707 O.2       4 RES4    0.0000
     88 N7         7.1542    8.1756    9.1837 N.2       4 RES4    0.0000
     89 N8        10.4027   12.9081    6.0239 N.pl3     4 RES4    0.0000
     90 C40        7.5826    5.7031   10.0762 C.ar      4 RES4    0.0000
     91 C41        7.0075    4.6795   10.8201 C.ar      4 RES4    0.0000
     92 C42        5.7405    4.8443   11.3647 C.ar      4 RES4    0.0000
     93 C43        5.0454    6.0311   11.1638 C.ar      4 RES4    0.0000
     94 C44        5.6188    7.0544   10.4185 C.ar      4 RES4    0.0000
     95 C45        6.8879    6.8913    9.8753 C.ar      4 RES4    0.0000
     96 C46        8.3526    8.4150    8.9729 C.2       4 RES4    0.0000
     97 C47        8.8168    9.5797    8.1950 C.ar      4 RES4    0.0000
     98 C48       10.1495    9.5985    7.7976 C.ar      4 RES4    0.0000
     99 C49       10.6427   10.6782    7.0748 C.ar      4 RES4    0.0000
    100 C50        9.8056   11.7389    6.7495 C.ar      4 RES4    0.0000
    101 C51        8.4741   11.7201    7.1470 C.ar      4 RES4    0.0000
    102 C52        7.9797   10.6404    7.8697 C.ar      4 RES4    0.0000
    103 H31        5.7634    3.1798   12.0577 H         4 RES4    0.0000
    104 H32        8.4315    5.5937    9.7113 H         4 RES4    0.0000
    105 H33        7.4730    3.8862   10.9545 H         4 RES4    0.0000
    106 H34        4.1960    6.1402   11.5273 H         4 RES4    0.0000
    107 H35        5.1547    7.8490   10.2841 H         4 RES4    0.0000
    108 H36        8.9886    7.8324    9.3195 H         4 RES4    0.0000
    109 H37       10.7084    8.8886    8.0140 H         4 RES4    0.0000
    110 H38       11.5343   10.6914    6.8089 H         4 RES4    0.0000
    111 H39        7.9134   12.4297    6.9291 H         4 RES4    0.0000
    112 H40        7.0881   10.6272    8.1356 H         4 RES4    0.0000
    113 O13        5.3712    3.8935   12.2628 Du        5 SUP5    0.0000
    114 O14        9.6384   14.0618    5.7990 Du        5 SUP5    0.0000
    115 O15       11.3610   12.7184    5.6010 Du        5 SUP5    0.0000
    116 N9         7.7413    7.7680    9.1568 Du        5 SUP5    0.0000
    117 N10       10.2639   12.7208    6.1668 Du        5 SUP5    0.0000
    118 C53        7.5418    6.0013   10.0323 Du        5 SUP5    0.0000
    119 C54        7.1814    4.8450   10.7127 Du        5 SUP5    0.0000
    120 C55        5.9266    4.7473   11.3025 Du        5 SUP5    0.0000
    121 C56        5.0318    5.8068   11.2105 Du        5 SUP5    0.0000
    122 C57        5.3924    6.9644   10.5302 Du        5 SUP5    0.0000
    123 C58        6.6479    7.0625    9.9418 Du        5 SUP5    0.0000
    124 C59        7.2893    8.9438    8.8980 Du        5 SUP5    0.0000
    125 C60        8.1296    9.9017    8.2191 Du        5 SUP5    0.0000
    126 C61        9.4563    9.6167    7.9136 Du        5 SUP5    0.0000
    127 C62       10.2236   10.5431    7.2177 Du        5 SUP5    0.0000
    128 C63        9.6655   11.7546    6.8273 Du        5 SUP5    0.0000
    129 C64        8.3403   12.0410    7.1328 Du        5 SUP5    0.0000
    130 C65        7.5717   11.1145    7.8287 Du        5 SUP5    0.0000
    131 H41        5.8287    3.2176   12.3350 Du        5 SUP5    0.0000
    132 H42        8.3815    6.0666    9.6377 Du        5 SUP5    0.0000
    133 H43        7.7798    4.1351   10.7735 Du        5 SUP5    0.0000
    134 H44        4.1924    5.7428   11.6051 Du        5 SUP5    0.0000
    135 H45        4.7940    7.6743   10.4694 Du        5 SUP5    0.0000
    136 H46        6.4236    9.1759    9.1455 Du        5 SUP5    0.0000
    137 H47        9.8295    8.8063    8.1752 Du        5 SUP5    0.0000
    138 H48       11.1099   10.3524    7.0126 Du        5 SUP5    0.0000
    139 H49        7.9671   12.8513    6.8711 Du        5 SUP5    0.0000
    140 H50        6.6855   11.3053    8.0338 Du        5 SUP5    0.0000
@<TRIPOS>BOND
     1    1    8 1
     2    2    5 2
     3    3    5 2
     4    4   11 1
     5    5   16 1
     6    6    7 ar
     7    7    8 ar
     8    8    9 ar
     9    9   10 ar
    10   10   11 ar
    11   11    6 ar
    12   12    4 2
    13   13   12 1
    14   14   13 ar
    15   15   14 ar
    16   16   15 ar
    17   17   16 ar
    18   18   13 ar
    19   19    6 1
    20   20    1 1
    21   21    7 1
    22   22    9 1
    23   23   10 1
    24   24   12 1
    25   25   14 1
    26   26   15 1
    27   27   17 1
    28   28   18 1
    29   29   36 1
    30   30   33 2
    31   31   33 2
    32   32   39 1
    33   33   44 1
    34   34   35 ar
    35   35   36 ar
    36   36   37 ar
    37   37   38 ar
    38   38   39 ar
    39   39   34 ar
    40   40   32 2
    41   41   40 1
    42   42   41 ar
    43   43   42 ar
    44   44   43 ar
    45   45   44 ar
    46   46   41 ar
    47   47   29 1
    48   48   34 1
    49   49   35 1
    50   50   37 1
    51   51   38 1
    52   52   40 1
    53   53   42 1
    54   54   43 1
    55   55   45 1
    56   56   46 1
    57   57   64 1
    58   58   61 2
    59   59   61 2
    60   60   67 1
    61   61   72 1
    62   62   63 ar
    63   63   64 ar
    64   64   65 ar
    65   65   66 ar
    66   66   67 ar
    67   67   62 ar
    68   68   60 2
    69   69   68 1
    70   70   69 ar
    71   71   70 ar
    72   72   71 ar
    73   73   72 ar
    74   74   69 ar
    75   75   57 1
    76   76   62 1
    77   77   63 1
    78   78   65 1
    79   79   66 1
    80   80   68 1
    81   81   70 1
    82   82   71 1
    83   83   73 1
    84   84   74 1
    85   85   92 1
    86   86   89 2
    87   87   89 2
    88   88   95 1
    89   89  100 1
    90   90   91 ar
    91   91   92 ar
    92   92   93 ar
    93   93   94 ar
    94   94   95 ar
    95   95   90 ar
    96   96   88 2
    97   97   96 1
    98   98   97 ar
    99   99   98 ar
   100  100   99 ar
   101  101  100 ar
   102  102   97 ar
   103  103   85 1
   104  104   90 1
   105  105   91 1
   106  106   93 1
   107  107   94 1
   108  108   96 1
   109  109   98 1
   110  110   99 1
   111  111  101 1
   112  112  102 1
   113   17   18 ar
   114   45   46 ar
   115   73   74 ar
   116  101  102 ar
@<TRIPOS>SUBSTRUCTURE
     1 RES1 1
     2 RES2 29
     3 RES3 57
     4 RES4 85
     5 SUP5 113

@<TRIPOS>CRYSIN
  12.3449   13.4266   15.7404  72.9260  67.3900  76.8240   2 1

