# MOL2 file generated by ConQuest
# Please check atom types

@<TRIPOS>MOLECULE
WOTRAA
    40    42     1
SMALL
NO_CHARGES
****
Generated from CSD

@<TRIPOS>ATOM
      1 O1        11.2059    2.6134   -5.8887 O.2       1 RES1    0.0000
      2 O2        11.2410    4.5065   -4.8911 O.2       1 RES1    0.0000
      3 O3         6.8487    6.2324    0.4942 O.2       1 RES1    0.0000
      4 N1        10.8422    3.3615   -5.0026 N.pl3     1 RES1    0.0000
      5 C1         9.8636    2.8568   -4.0245 C.ar      1 RES1    0.0000
      6 C2         9.4422    3.7050   -3.0277 C.ar      1 RES1    0.0000
      7 C3         8.4677    3.2754   -2.1286 C.ar      1 RES1    0.0000
      8 C4         7.9968    1.9718   -2.2511 C.ar      1 RES1    0.0000
      9 C5         8.4483    1.1457   -3.2519 C.ar      1 RES1    0.0000
     10 C6         9.3871    1.5790   -4.1658 C.ar      1 RES1    0.0000
     11 C7         7.9492    4.2201   -1.1292 C.2       1 RES1    0.0000
     12 C8         6.8862    4.0548   -0.3635 C.2       1 RES1    0.0000
     13 C9         6.4364    5.0868    0.5785 C.2       1 RES1    0.0000
     14 C10        5.4739    4.7204    1.6566 C.ar      1 RES1    0.0000
     15 C11        5.1377    5.6873    2.5965 C.ar      1 RES1    0.0000
     16 C12        4.2999    5.4015    3.6423 C.ar      1 RES1    0.0000
     17 C13        3.7504    4.1322    3.8044 C.ar      1 RES1    0.0000
     18 C14        4.0825    3.1685    2.8606 C.ar      1 RES1    0.0000
     19 C15        4.9317    3.4475    1.8086 C.ar      1 RES1    0.0000
     20 C16        2.8520    3.8311    4.9437 C.ar      1 RES1    0.0000
     21 C17        1.9113    4.7579    5.3758 C.ar      1 RES1    0.0000
     22 C18        1.0592    4.4586    6.4225 C.ar      1 RES1    0.0000
     23 C19        1.1310    3.2361    7.0513 C.ar      1 RES1    0.0000
     24 C20        2.0747    2.3172    6.6529 C.ar      1 RES1    0.0000
     25 C21        2.9332    2.6098    5.6074 C.ar      1 RES1    0.0000
     26 H1         9.8044    4.5582   -2.9538 H         1 RES1    0.0000
     27 H2         7.3661    1.6541   -1.6456 H         1 RES1    0.0000
     28 H3         8.1158    0.2792   -3.3143 H         1 RES1    0.0000
     29 H4         9.6849    1.0255   -4.8514 H         1 RES1    0.0000
     30 H5         8.4179    5.0169   -1.0257 H         1 RES1    0.0000
     31 H6         6.4079    3.2594   -0.4229 H         1 RES1    0.0000
     32 H7         5.4879    6.5448    2.5140 H         1 RES1    0.0000
     33 H8         4.0942    6.0687    4.2566 H         1 RES1    0.0000
     34 H9         3.7240    2.3139    2.9393 H         1 RES1    0.0000
     35 H10        5.1429    2.7801    1.1964 H         1 RES1    0.0000
     36 H11        1.8547    5.5865    4.9576 H         1 RES1    0.0000
     37 H12        0.4339    5.0873    6.7035 H         1 RES1    0.0000
     38 H13        0.5437    3.0318    7.7428 H         1 RES1    0.0000
     39 H14        2.1357    1.4973    7.0874 H         1 RES1    0.0000
     40 H15        3.5703    1.9849    5.3456 H         1 RES1    0.0000
@<TRIPOS>BOND
     1    1    4 2
     2    2    4 2
     3    3   13 2
     4    4    5 1
     5    5    6 ar
     6    6    7 ar
     7    7    8 ar
     8    8    9 ar
     9    9   10 ar
    10   10    5 ar
    11   11    7 1
    12   12   11 2
    13   13   12 1
    14   14   13 1
    15   15   14 ar
    16   16   15 ar
    17   17   16 ar
    18   18   17 ar
    19   19   14 ar
    20   20   17 1
    21   21   20 ar
    22   22   21 ar
    23   23   22 ar
    24   24   23 ar
    25   25   20 ar
    26   26    6 1
    27   27    8 1
    28   28    9 1
    29   29   10 1
    30   30   11 1
    31   31   12 1
    32   32   15 1
    33   33   16 1
    34   34   18 1
    35   35   19 1
    36   36   21 1
    37   37   22 1
    38   38   23 1
    39   39   24 1
    40   40   25 1
    41   18   19 ar
    42   24   25 ar
@<TRIPOS>SUBSTRUCTURE
     1 RES1 1

@<TRIPOS>CRYSIN
  17.6546    6.1464   30.0234  90.0000  99.8990  90.0000  15 1

