# MOL2 file generated by ConQuest
# Please check atom types

@<TRIPOS>MOLECULE
WOTVAC
    37    37     1
SMALL
NO_CHARGES
****
Generated from CSD

@<TRIPOS>ATOM
      1 N1         4.1511   -3.2188    6.9449 N.am      1 RES1    0.0000
      2 H1         4.9404   -3.5112    7.4619 H         1 RES1    0.0000
      3 O1         4.6557   -4.8730    5.5764 O.3       1 RES1    0.0000
      4 C1         2.3989    0.1209    8.6813 C.ar      1 RES1    0.0000
      5 O2         2.4027    1.8436   10.2207 O.2       1 RES1    0.0000
      6 N2         1.8083    1.2916    9.3136 N.pl3     1 RES1    0.0000
      7 O3         0.7169    1.6911    8.9013 O.2       1 RES1    0.0000
      8 C2         3.5744   -0.3972    9.1994 C.ar      1 RES1    0.0000
      9 H2         3.9825   -0.0046    9.9370 H         1 RES1    0.0000
     10 C3         1.7836   -0.4530    7.5961 C.ar      1 RES1    0.0000
     11 H3         0.9949   -0.0904    7.2625 H         1 RES1    0.0000
     12 C4         2.3333   -1.5610    7.0046 C.ar      1 RES1    0.0000
     13 H4         1.9143   -1.9547    6.2735 H         1 RES1    0.0000
     14 C5         3.5195   -2.0975    7.4991 C.ar      1 RES1    0.0000
     15 C6         3.7836   -3.8870    5.8176 C.2       1 RES1    0.0000
     16 C7         4.1244   -1.5017    8.6009 C.ar      1 RES1    0.0000
     17 H5         4.9144   -1.8586    8.9375 H         1 RES1    0.0000
     18 C8         4.4003   -5.6305    4.3677 C.3       1 RES1    0.0000
     19 H6         4.3013   -5.0279    3.6143 H         1 RES1    0.0000
     20 H7         3.5785   -6.1370    4.4628 H         1 RES1    0.0000
     21 C9         6.5435   -8.2662    2.5830 C.3       1 RES1    0.0000
     22 H8         7.3538   -7.7349    2.5361 H         1 RES1    0.0000
     23 H9         6.6341   -8.8700    3.3359 H         1 RES1    0.0000
     24 O4         2.8449   -3.6447    5.1229 O.2       1 RES1    0.0000
     25 C10        5.5364   -6.5521    4.1318 C.3       1 RES1    0.0000
     26 H10        5.6065   -7.1679    4.8779 H         1 RES1    0.0000
     27 H11        6.3587   -6.0386    4.0923 H         1 RES1    0.0000
     28 C11        5.3827   -7.3435    2.8469 C.3       1 RES1    0.0000
     29 H12        4.5678   -7.8673    2.8944 H         1 RES1    0.0000
     30 H13        5.2954   -6.7259    2.1042 H         1 RES1    0.0000
     31 C12        6.4402   -9.0835    1.3310 C.3       1 RES1    0.0000
     32 H14        6.3927   -8.4838    0.5695 H         1 RES1    0.0000
     33 H15        5.6151   -9.5924    1.3566 H         1 RES1    0.0000
     34 C13        7.5885  -10.0333    1.1283 C.3       1 RES1    0.0000
     35 H16        7.4725  -10.5030    0.2986 H         1 RES1    0.0000
     36 H17        7.6144  -10.6636    1.8514 H         1 RES1    0.0000
     37 H18        8.4120   -9.5400    1.1027 H         1 RES1    0.0000
@<TRIPOS>BOND
     1    1    2 1
     2    3   15 1
     3    4    6 1
     4    5    6 2
     5    6    7 2
     6    8    4 ar
     7    9    8 1
     8   10    4 ar
     9   11   10 1
    10   12   10 ar
    11   13   12 1
    12   14    1 1
    13   15    1 1
    14   16    8 ar
    15   17   16 1
    16   18    3 1
    17   19   18 1
    18   20   18 1
    19   21   22 1
    20   23   21 1
    21   24   15 2
    22   25   18 1
    23   26   25 1
    24   27   25 1
    25   28   21 1
    26   29   28 1
    27   30   28 1
    28   31   21 1
    29   32   31 1
    30   33   31 1
    31   34   31 1
    32   35   34 1
    33   36   34 1
    34   37   34 1
    35   12   14 ar
    36   14   16 ar
    37   25   28 1
@<TRIPOS>SUBSTRUCTURE
     1 RES1 1

@<TRIPOS>CRYSIN
   5.6070    5.7560   21.4870  90.0000  96.9400  90.0000   4 1

