# MOL2 file generated by ConQuest
# Please check atom types

@<TRIPOS>MOLECULE
WOVCIT
    44    46     1
SMALL
NO_CHARGES
****
Generated from CSD

@<TRIPOS>ATOM
      1 O1        -0.3595    1.4680    5.8456 O.3       1 RES1    0.0000
      2 O2        -1.5513   -0.4072    6.0787 O.2       1 RES1    0.0000
      3 O3         4.8807   -1.4372    9.1713 O.2       1 RES1    0.0000
      4 O4         4.1428   -3.3485    8.5528 O.2       1 RES1    0.0000
      5 N1         4.0553   -2.1471    8.6336 N.pl3     1 RES1    0.0000
      6 C1        -1.5347    2.1270    5.2436 C.3       1 RES1    0.0000
      7 C2        -1.2325    3.5949    5.2895 C.3       1 RES1    0.0000
      8 C3        -1.1230    4.2901    6.5926 C.3       1 RES1    0.0000
      9 C4        -2.3004    4.5888    5.7447 C.3       1 RES1    0.0000
     10 C5        -3.6709    4.1776    6.0842 C.2       1 RES1    0.0000
     11 C6        -4.0482    3.8494    7.3011 C.2       1 RES1    0.0000
     12 C7        -4.6300    4.1963    4.9537 C.3       1 RES1    0.0000
     13 C8        -0.5316    0.2049    6.2329 C.2       1 RES1    0.0000
     14 C9        -1.7599    1.6100    3.8561 C.ar      1 RES1    0.0000
     15 C10       -2.9931    1.1037    3.4927 C.ar      1 RES1    0.0000
     16 C11       -3.2104    0.6697    2.2006 C.ar      1 RES1    0.0000
     17 C12       -2.2247    0.7246    1.2682 C.ar      1 RES1    0.0000
     18 C13       -1.0069    1.2055    1.6059 C.ar      1 RES1    0.0000
     19 C14       -0.7641    1.6555    2.9036 C.ar      1 RES1    0.0000
     20 C15        0.6828   -0.3724    6.8716 C.ar      1 RES1    0.0000
     21 C16        1.8248    0.3871    7.0974 C.ar      1 RES1    0.0000
     22 C17        2.9299   -0.1889    7.6994 C.ar      1 RES1    0.0000
     23 C18        2.8706   -1.5149    8.0206 C.ar      1 RES1    0.0000
     24 C19        1.7645   -2.2904    7.8058 C.ar      1 RES1    0.0000
     25 C20        0.6490   -1.7010    7.2497 C.ar      1 RES1    0.0000
     26 H1        -2.3030    1.9515    5.9062 H         1 RES1    0.0000
     27 H2        -0.7049    3.9459    4.5297 H         1 RES1    0.0000
     28 H3        -1.2031    3.7597    7.3470 H         1 RES1    0.0000
     29 H4        -0.4399    4.9544    6.6734 H         1 RES1    0.0000
     30 H5        -2.1973    5.4353    5.2638 H         1 RES1    0.0000
     31 H6        -5.0197    3.6887    7.4791 H         1 RES1    0.0000
     32 H7        -3.3505    3.7651    7.9361 H         1 RES1    0.0000
     33 H8        -5.5673    3.9124    5.2877 H         1 RES1    0.0000
     34 H9        -4.7853    5.0268    4.6123 H         1 RES1    0.0000
     35 H10       -4.4179    3.6659    4.1534 H         1 RES1    0.0000
     36 H11       -3.6999    1.0755    4.1241 H         1 RES1    0.0000
     37 H12       -4.1351    0.3857    1.9675 H         1 RES1    0.0000
     38 H13       -2.3864    0.4380    0.3267 H         1 RES1    0.0000
     39 H14       -0.2647    1.2644    1.0884 H         1 RES1    0.0000
     40 H15        0.1130    1.9756    3.1348 H         1 RES1    0.0000
     41 H16        1.8699    1.2698    6.9028 H         1 RES1    0.0000
     42 H17        3.6590    0.3228    7.8939 H         1 RES1    0.0000
     43 H18        1.7619   -3.1985    7.9949 H         1 RES1    0.0000
     44 H19       -0.0722   -2.1605    7.0074 H         1 RES1    0.0000
@<TRIPOS>BOND
     1    1    6 1
     2    2   13 2
     3    3    5 2
     4    4    5 2
     5    5   23 1
     6    6    7 1
     7    7    8 1
     8    8    9 1
     9    9    7 1
    10   10    9 1
    11   11   10 2
    12   12   10 1
    13   13    1 1
    14   14    6 1
    15   15   14 ar
    16   16   15 ar
    17   17   16 ar
    18   18   17 ar
    19   19   14 ar
    20   20   13 1
    21   21   20 ar
    22   22   21 ar
    23   23   22 ar
    24   24   23 ar
    25   25   20 ar
    26   26    6 1
    27   27    7 1
    28   28    8 1
    29   29    8 1
    30   30    9 1
    31   31   11 1
    32   32   11 1
    33   33   12 1
    34   34   12 1
    35   35   12 1
    36   36   15 1
    37   37   16 1
    38   38   17 1
    39   39   18 1
    40   40   19 1
    41   41   21 1
    42   42   22 1
    43   43   24 1
    44   44   25 1
    45   18   19 ar
    46   24   25 ar
@<TRIPOS>SUBSTRUCTURE
     1 RES1 1

@<TRIPOS>CRYSIN
   7.1550   13.3940   18.6490  90.0000 100.2100  90.0000  14 1

