# MOL2 file generated by ConQuest
# Please check atom types

@<TRIPOS>MOLECULE
WOVRII
    46    48     2
SMALL
NO_CHARGES
****
Generated from CSD

@<TRIPOS>ATOM
      1 C1         5.8781   -0.2651    5.2841 C.ar      1 RES1    0.0000
      2 H1         5.9795   -0.9442    5.9110 H         1 RES1    0.0000
      3 C2         4.7028    0.4916    5.2605 C.ar      1 RES1    0.0000
      4 H2         4.0403    0.3108    5.8886 H         1 RES1    0.0000
      5 C3         4.4916    1.4831    4.3524 C.ar      1 RES1    0.0000
      6 H3         3.6995    1.9712    4.3366 H         1 RES1    0.0000
      7 C4         5.5185    1.7289    3.4522 C.ar      1 RES1    0.0000
      8 C5         6.7079    1.0077    3.4470 C.ar      1 RES1    0.0000
      9 C6         6.8829   -0.0097    4.3853 C.ar      1 RES1    0.0000
     10 H4         7.6696   -0.5069    4.4010 H         1 RES1    0.0000
     11 N1         5.5871    2.6523    2.4285 N.pl3     1 RES1    0.0000
     12 C7         4.5408    3.6102    2.0882 C.3       1 RES1    0.0000
     13 H5         3.7637    3.1388    1.7820 H         1 RES1    0.0000
     14 H6         4.8549    4.1942    1.3943 H         1 RES1    0.0000
     15 H7         4.3165    4.1282    2.8648 H         1 RES1    0.0000
     16 C8         6.7919    2.5329    1.8214 C.2       1 RES1    0.0000
     17 H8         7.0774    3.0565    1.1078 H         1 RES1    0.0000
     18 C9         7.5257    1.5455    2.3943 C.2       1 RES1    0.0000
     19 C10        8.8297    1.0508    2.0474 C.2       1 RES1    0.0000
     20 H9         9.0387    0.2179    2.4049 H         1 RES1    0.0000
     21 N2         9.7585    1.5765    1.3207 N.2       1 RES1    0.0000
     22 O1         9.3416    2.8112    0.8318 O.3       1 RES1    0.0000
     23 H10        9.9736    3.1906    0.4718 H         1 RES1    0.0000
     24 C11        0.5111   -0.1971    5.7953 C.ar      2 RES2    0.0000
     25 H11        0.8833   -0.8848    6.2986 H         2 RES2    0.0000
     26 C12       -0.5210    0.5668    6.3367 C.ar      2 RES2    0.0000
     27 H12       -0.8180    0.3850    7.1988 H         2 RES2    0.0000
     28 C13       -1.1048    1.5775    5.6258 C.ar      2 RES2    0.0000
     29 H13       -1.7901    2.0875    5.9911 H         2 RES2    0.0000
     30 C14       -0.6372    1.8203    4.3314 C.ar      2 RES2    0.0000
     31 C15        0.4045    1.0646    3.7689 C.ar      2 RES2    0.0000
     32 C16        0.9858    0.0508    4.5272 C.ar      2 RES2    0.0000
     33 H14        1.6862   -0.4525    4.1816 H         2 RES2    0.0000
     34 N3        -1.0198    2.7447    3.3970 N.pl3     2 RES2    0.0000
     35 C17       -2.1022    3.6924    3.5679 C.3       2 RES2    0.0000
     36 H15       -2.9382    3.2226    3.5849 H         2 RES2    0.0000
     37 H16       -2.0999    4.3161    2.8385 H         2 RES2    0.0000
     38 H17       -1.9841    4.1663    4.3944 H         2 RES2    0.0000
     39 C18       -0.2578    2.6279    2.2879 C.2       2 RES2    0.0000
     40 H18       -0.3345    3.1571    1.5270 H         2 RES2    0.0000
     41 C19        0.6500    1.6034    2.4574 C.2       2 RES2    0.0000
     42 C20        1.6098    1.0859    1.5362 C.2       2 RES2    0.0000
     43 H19        1.9214    0.2372    1.7530 H         2 RES2    0.0000
     44 N4         2.1254    1.5725    0.4613 N.2       2 RES2    0.0000
     45 O2         1.5720    2.8229    0.1511 O.3       2 RES2    0.0000
     46 H20        2.0450    3.2033   -0.3995 H         2 RES2    0.0000
@<TRIPOS>BOND
     1    1    2 1
     2    3    1 ar
     3    4    3 1
     4    5    3 ar
     5    6    5 1
     6    7    5 ar
     7    8    7 ar
     8    9    1 ar
     9   10    9 1
    10   11    7 1
    11   12   11 1
    12   13   12 1
    13   14   12 1
    14   15   12 1
    15   16   11 1
    16   17   16 1
    17   18    8 1
    18   19   18 1
    19   20   19 1
    20   21   19 2
    21   22   21 1
    22   23   22 1
    23   24   25 1
    24   26   24 ar
    25   27   26 1
    26   28   26 ar
    27   29   28 1
    28   30   28 ar
    29   31   30 ar
    30   32   24 ar
    31   33   32 1
    32   34   30 1
    33   35   34 1
    34   36   35 1
    35   37   35 1
    36   38   35 1
    37   39   34 1
    38   40   39 1
    39   41   31 1
    40   42   41 1
    41   43   42 1
    42   44   42 2
    43   45   44 1
    44   46   45 1
    45    8    9 ar
    46   16   18 2
    47   31   32 ar
    48   39   41 2
@<TRIPOS>SUBSTRUCTURE
     1 RES1 1
     2 RES2 24

@<TRIPOS>CRYSIN
  13.4620    5.0790   14.1270  90.0000 111.5300  90.0000   4 1

