# MOL2 file generated by ConQuest
# Please check atom types

@<TRIPOS>MOLECULE
WOVROO
   108   112     4
SMALL
NO_CHARGES
****
Generated from CSD

@<TRIPOS>ATOM
      1 C1         4.0455    4.1215    8.2286 C.3       1 RES1    0.0000
      2 H1         4.7260    3.4468    8.2908 H         1 RES1    0.0000
      3 H2         3.5515    4.1548    9.0503 H         1 RES1    0.0000
      4 H3         4.4534    4.9737    8.0656 H         1 RES1    0.0000
      5 O1         3.1913    3.8160    7.1935 O.3       1 RES1    0.0000
      6 C2         2.0660    4.5733    6.9969 C.ar      1 RES1    0.0000
      7 C3         1.0407    4.0268    6.2038 C.ar      1 RES1    0.0000
      8 H4         1.1413    3.1676    5.8610 H         1 RES1    0.0000
      9 C4        -0.0862    4.7170    5.9299 C.ar      1 RES1    0.0000
     10 H5        -0.7522    4.3530    5.3922 H         1 RES1    0.0000
     11 C5        -0.2223    5.9852    6.4722 C.ar      1 RES1    0.0000
     12 C6         0.7849    6.5596    7.2660 C.ar      1 RES1    0.0000
     13 C7         1.9493    5.8383    7.5237 C.ar      1 RES1    0.0000
     14 H6         2.6304    6.2036    8.0404 H         1 RES1    0.0000
     15 N1        -1.2757    6.8747    6.3769 N.pl3     1 RES1    0.0000
     16 C8        -2.4945    6.6744    5.6073 C.3       1 RES1    0.0000
     17 H7        -2.9030    5.8443    5.8661 H         1 RES1    0.0000
     18 H8        -2.2826    6.6485    4.6713 H         1 RES1    0.0000
     19 H9        -3.1039    7.3957    5.7787 H         1 RES1    0.0000
     20 C9        -0.9488    7.9860    7.0737 C.2       1 RES1    0.0000
     21 H10       -1.4934    8.7355    7.1566 H         1 RES1    0.0000
     22 C10        0.2900    7.8625    7.6408 C.2       1 RES1    0.0000
     23 C11        0.8972    8.8839    8.4366 C.2       1 RES1    0.0000
     24 H11        0.4020    9.6510    8.6168 H         1 RES1    0.0000
     25 N2         2.0723    8.8078    8.9130 N.2       1 RES1    0.0000
     26 O2         2.3777    9.9515    9.6877 O.3       1 RES1    0.0000
     27 H12        3.1500    9.8987    9.9594 H         1 RES1    0.0000
     28 C12        3.8811   14.5618   13.2259 C.3       2 RES2    0.0000
     29 H13        3.0502   14.9752   12.9806 H         2 RES2    0.0000
     30 H14        4.6097   15.0578   12.8462 H         2 RES2    0.0000
     31 H15        3.9653   14.5524   14.1821 H         2 RES2    0.0000
     32 O3         3.9090   13.2307   12.7356 O.3       2 RES2    0.0000
     33 C13        5.0865   12.5274   12.8170 C.ar      2 RES2    0.0000
     34 C14        6.1476   12.9235   13.6412 C.ar      2 RES2    0.0000
     35 H16        6.0697   13.6989   14.1485 H         2 RES2    0.0000
     36 C15        7.2951   12.1858   13.7082 C.ar      2 RES2    0.0000
     37 H17        7.9967   12.4471   14.2610 H         2 RES2    0.0000
     38 C16        7.3907   11.0392   12.9327 C.ar      2 RES2    0.0000
     39 C17        6.3305   10.6195   12.1037 C.ar      2 RES2    0.0000
     40 C18        5.1716   11.3790   12.0590 C.ar      2 RES2    0.0000
     41 H18        4.4579   11.1169   11.5238 H         2 RES2    0.0000
     42 N3         8.4434   10.1523   12.7795 N.pl3     2 RES2    0.0000
     43 C19        9.7295   10.2359   13.4578 C.3       2 RES2    0.0000
     44 H19        9.6142   10.0262   14.3871 H         2 RES2    0.0000
     45 H20       10.0812   11.1239   13.3705 H         2 RES2    0.0000
     46 H21       10.3407    9.6092   13.0630 H         2 RES2    0.0000
     47 C20        8.0720    9.2113   11.8827 C.2       2 RES2    0.0000
     48 H22        8.6121    8.5048   11.6078 H         2 RES2    0.0000
     49 C21        6.7995    9.4312   11.4308 C.2       2 RES2    0.0000
     50 C22        6.1562    8.5802   10.4702 C.2       2 RES2    0.0000
     51 H23        6.6378    7.8550   10.1425 H         2 RES2    0.0000
     52 N4         4.9752    8.7514   10.0373 N.2       2 RES2    0.0000
     53 O4         4.6260    7.7149    9.1286 O.3       2 RES2    0.0000
     54 H24        3.8691    7.8451    8.8436 H         2 RES2    0.0000
     55 C23        7.1737    4.7553   10.0861 C.3       3 RES3    0.0000
     56 H25        6.3142    4.3699    9.9039 H         3 RES3    0.0000
     57 H26        7.8612    4.1189    9.8770 H         3 RES3    0.0000
     58 H27        7.2912    5.5428    9.5477 H         3 RES3    0.0000
     59 O5         7.2522    5.1062   11.4608 O.3       3 RES3    0.0000
     60 C24        8.4431    5.5618   11.9654 C.ar      3 RES3    0.0000
     61 C25        9.5428    5.8767   11.1669 C.ar      3 RES3    0.0000
     62 H28        9.4936    5.7498   10.2467 H         3 RES3    0.0000
     63 C26       10.6944    6.3715   11.7202 C.ar      3 RES3    0.0000
     64 H29       11.4259    6.5860   11.1860 H         3 RES3    0.0000
     65 C27       10.7439    6.5454   13.0932 C.ar      3 RES3    0.0000
     66 C28        9.6465    6.2189   13.9186 C.ar      3 RES3    0.0000
     67 C29        8.4870    5.7307   13.3365 C.ar      3 RES3    0.0000
     68 H30        7.7483    5.5195   13.8611 H         3 RES3    0.0000
     69 N5        11.7697    7.0034   13.8994 N.pl3     3 RES3    0.0000
     70 C30       13.0689    7.4672   13.4484 C.3       3 RES3    0.0000
     71 H31       12.9610    8.2686   12.9302 H         3 RES3    0.0000
     72 H32       13.4806    6.7902   12.9067 H         3 RES3    0.0000
     73 H33       13.6252    7.6503   14.2089 H         3 RES3    0.0000
     74 C31       11.3458    6.9556   15.1854 C.2       3 RES3    0.0000
     75 H34       11.8599    7.2146   15.9162 H         3 RES3    0.0000
     76 C32       10.0726    6.4807   15.2708 C.2       3 RES3    0.0000
     77 C33        9.4061    6.2423   16.5226 C.2       3 RES3    0.0000
     78 H35        9.8426    6.4782   17.3092 H         3 RES3    0.0000
     79 N6         8.2488    5.7246   16.6033 N.2       3 RES3    0.0000
     80 O6         7.8601    5.5602   17.9559 O.3       3 RES3    0.0000
     81 H36        7.0858    5.2901   17.9864 H         3 RES3    0.0000
     82 C34        8.8234    7.3665   20.7135 C.3       4 RES4    0.0000
     83 H37        7.9389    7.4284   21.0799 H         4 RES4    0.0000
     84 H38        9.4608    7.2798   21.4260 H         4 RES4    0.0000
     85 H39        8.8782    6.5984   20.1405 H         4 RES4    0.0000
     86 O7         9.1100    8.5409   19.9618 O.3       4 RES4    0.0000
     87 C35       10.2975    8.6390   19.2841 C.ar      4 RES4    0.0000
     88 C36       11.3644    7.7634   19.4834 C.ar      4 RES4    0.0000
     89 H40       11.2764    7.0633   20.0901 H         4 RES4    0.0000
     90 C37       12.5370    7.9190   18.7986 C.ar      4 RES4    0.0000
     91 H41       13.2465    7.3324   18.9324 H         4 RES4    0.0000
     92 C38       12.6461    8.9713   17.8981 C.ar      4 RES4    0.0000
     93 C39       11.5751    9.8676   17.6815 C.ar      4 RES4    0.0000
     94 C40       10.3987    9.6856   18.3849 C.ar      4 RES4    0.0000
     95 H42        9.6810   10.2619   18.2552 H         4 RES4    0.0000
     96 N7        13.6951    9.3496   17.0877 N.pl3     4 RES4    0.0000
     97 C41       15.0173    8.7364   17.0403 C.3       4 RES4    0.0000
     98 H43       14.9275    7.7944   16.8807 H         4 RES4    0.0000
     99 H44       15.4656    8.8772   17.8771 H         4 RES4    0.0000
    100 H45       15.5292    9.1334   16.3329 H         4 RES4    0.0000
    101 C42       13.3226   10.4510   16.3897 C.2       4 RES4    0.0000
    102 H46       13.8637   10.8956   15.7784 H         4 RES4    0.0000
    103 C43       12.0460   10.8192   16.7056 C.2       4 RES4    0.0000
    104 C44       11.4175   11.9915   16.1563 C.2       4 RES4    0.0000
    105 H47       11.8839   12.4869   15.5230 H         4 RES4    0.0000
    106 N8        10.2590   12.3829   16.4922 N.2       4 RES4    0.0000
    107 O8         9.9163   13.5850   15.8221 O.3       4 RES4    0.0000
    108 H48        9.1562   13.8080   16.0321 H         4 RES4    0.0000
@<TRIPOS>BOND
     1    1    2 1
     2    3    1 1
     3    4    1 1
     4    5    1 1
     5    6    5 1
     6    7    6 ar
     7    8    7 1
     8    9    7 ar
     9   10    9 1
    10   11    9 ar
    11   12   11 ar
    12   13    6 ar
    13   14   13 1
    14   15   11 1
    15   16   15 1
    16   17   16 1
    17   18   16 1
    18   19   16 1
    19   20   15 1
    20   21   20 1
    21   22   12 1
    22   23   22 1
    23   24   23 1
    24   25   23 2
    25   26   25 1
    26   27   26 1
    27   28   29 1
    28   30   28 1
    29   31   28 1
    30   32   28 1
    31   33   32 1
    32   34   33 ar
    33   35   34 1
    34   36   34 ar
    35   37   36 1
    36   38   36 ar
    37   39   38 ar
    38   40   33 ar
    39   41   40 1
    40   42   38 1
    41   43   42 1
    42   44   43 1
    43   45   43 1
    44   46   43 1
    45   47   42 1
    46   48   47 1
    47   49   39 1
    48   50   49 1
    49   51   50 1
    50   52   50 2
    51   53   52 1
    52   54   53 1
    53   55   56 1
    54   57   55 1
    55   58   55 1
    56   59   55 1
    57   60   59 1
    58   61   60 ar
    59   62   61 1
    60   63   61 ar
    61   64   63 1
    62   65   63 ar
    63   66   65 ar
    64   67   60 ar
    65   68   67 1
    66   69   65 1
    67   70   69 1
    68   71   70 1
    69   72   70 1
    70   73   70 1
    71   74   69 1
    72   75   74 1
    73   76   66 1
    74   77   76 1
    75   78   77 1
    76   79   77 2
    77   80   79 1
    78   81   80 1
    79   82   83 1
    80   84   82 1
    81   85   82 1
    82   86   82 1
    83   87   86 1
    84   88   87 ar
    85   89   88 1
    86   90   88 ar
    87   91   90 1
    88   92   90 ar
    89   93   92 ar
    90   94   87 ar
    91   95   94 1
    92   96   92 1
    93   97   96 1
    94   98   97 1
    95   99   97 1
    96  100   97 1
    97  101   96 1
    98  102  101 1
    99  103   93 1
   100  104  103 1
   101  105  104 1
   102  106  104 2
   103  107  106 1
   104  108  107 1
   105   12   13 ar
   106   20   22 2
   107   39   40 ar
   108   47   49 2
   109   66   67 ar
   110   74   76 2
   111   93   94 ar
   112  101  103 2
@<TRIPOS>SUBSTRUCTURE
     1 RES1 1
     2 RES2 28
     3 RES3 55
     4 RES4 82

@<TRIPOS>CRYSIN
   8.2351   15.8892   17.8070  71.1480  81.2450  75.1240   2 1

