# MOL2 file generated by ConQuest
# Please check atom types

@<TRIPOS>MOLECULE
WOVXOU
    21    22     1
SMALL
NO_CHARGES
****
Generated from CSD

@<TRIPOS>ATOM
      1 N1         9.3613    0.6411   12.8753 N.pl3     1 RES1    0.0000
      2 O1        10.5573    0.6286   13.1845 O.2       1 RES1    0.0000
      3 N2         7.7261    1.2611   11.1785 N.2       1 RES1    0.0000
      4 O2         8.4621    0.2479   13.6029 O.2       1 RES1    0.0000
      5 N3         9.1301    1.7985    9.5286 N.pl3     1 RES1    0.0000
      6 C1         9.9194    1.4582   10.5922 C.2       1 RES1    0.0000
      7 C2         9.5684    2.2310    8.2329 C.ar      1 RES1    0.0000
      8 C3        10.7977    2.8507    8.0966 C.ar      1 RES1    0.0000
      9 C4         9.1531    2.4631    5.8909 C.ar      1 RES1    0.0000
     10 C5         7.8286    1.6735    9.9386 C.2       1 RES1    0.0000
     11 C6        10.3736    3.0999    5.7421 C.ar      1 RES1    0.0000
     12 C7         9.0254    1.1310   11.5693 C.2       1 RES1    0.0000
     13 C8         8.7444    2.0211    7.1367 C.ar      1 RES1    0.0000
     14 C9        11.1974    3.2857    6.8402 C.ar      1 RES1    0.0000
     15 H1        11.3696    2.9670    8.8322 H         1 RES1    0.0000
     16 H2         7.0852    1.8587    9.3728 H         1 RES1    0.0000
     17 H3         7.8747    1.5902    7.2543 H         1 RES1    0.0000
     18 H4         8.5610    2.3406    5.1072 H         1 RES1    0.0000
     19 H5        10.8696    1.4732   10.5529 H         1 RES1    0.0000
     20 H6        12.0626    3.7655    6.7225 H         1 RES1    0.0000
     21 H7        10.6522    3.4282    4.8853 H         1 RES1    0.0000
@<TRIPOS>BOND
     1    1    2 2
     2    3   10 2
     3    4    1 2
     4    5    6 1
     5    6   12 2
     6    7    5 1
     7    8    7 ar
     8    9   11 ar
     9   10    5 1
    10   11   14 ar
    11   12    1 1
    12   13    7 ar
    13   14    8 ar
    14   15    8 1
    15   16   10 1
    16   17   13 1
    17   18    9 1
    18   19    6 1
    19   20   14 1
    20   21   11 1
    21    3   12 1
    22    9   13 ar
@<TRIPOS>SUBSTRUCTURE
     1 RES1 1

@<TRIPOS>CRYSIN
  11.0880    6.8840   21.9760  90.0000  90.0000  90.0000  61 1

