# MOL2 file generated by ConQuest
# Please check atom types

@<TRIPOS>MOLECULE
WOVXUA
    28    30     1
SMALL
NO_CHARGES
****
Generated from CSD

@<TRIPOS>ATOM
      1 N1         2.6348    0.1699    8.1837 N.pl3     1 RES1    0.0000
      2 N2        -0.5035   -1.3997    7.6809 N.pl3     1 RES1    0.0000
      3 C1        -2.4880   -2.1687    7.4586 C.2       1 RES1    0.0000
      4 N3        -1.8409   -2.5202    6.3133 N.2       1 RES1    0.0000
      5 C2         0.6710   -0.7306    8.1010 C.2       1 RES1    0.0000
      6 C3         1.7492   -0.4600    7.3439 C.2       1 RES1    0.0000
      7 N4         0.8108   -0.2912    9.3745 N.2       1 RES1    0.0000
      8 N5        -3.8572   -2.5501    7.6496 N.pl3     1 RES1    0.0000
      9 C4         3.9172    0.6855    7.8437 C.ar      1 RES1    0.0000
     10 C5        -1.6990   -1.4907    8.3233 C.2       1 RES1    0.0000
     11 O1        -4.4256   -2.1668    8.6594 O.2       1 RES1    0.0000
     12 C6         2.0128    0.2465    9.3830 C.2       1 RES1    0.0000
     13 C7        -0.6414   -2.0295    6.4866 C.2       1 RES1    0.0000
     14 O2        -4.3974   -3.2154    6.7828 O.2       1 RES1    0.0000
     15 C8         4.1594    1.1127    6.5432 C.ar      1 RES1    0.0000
     16 C9         4.9009    0.7768    8.8008 C.ar      1 RES1    0.0000
     17 C10        6.3826    1.7189    7.1766 C.ar      1 RES1    0.0000
     18 C11        5.3984    1.6306    6.2231 C.ar      1 RES1    0.0000
     19 C12        6.1376    1.2862    8.4585 C.ar      1 RES1    0.0000
     20 H1         4.7339    0.4316    9.6909 H         1 RES1    0.0000
     21 H2         2.4094    0.6726   10.1437 H         1 RES1    0.0000
     22 H3         1.8971   -0.6182    6.4510 H         1 RES1    0.0000
     23 H4        -1.8678   -1.1003    9.1784 H         1 RES1    0.0000
     24 H5         0.0812   -2.0762    5.8582 H         1 RES1    0.0000
     25 H6         3.3971    1.0536    5.8499 H         1 RES1    0.0000
     26 H7         7.2133    2.0684    6.9285 H         1 RES1    0.0000
     27 H8         5.5354    1.9440    5.2921 H         1 RES1    0.0000
     28 H9         6.7823    1.3491    9.1269 H         1 RES1    0.0000
@<TRIPOS>BOND
     1    1    6 1
     2    2    5 1
     3    3    4 1
     4    4   13 2
     5    5    6 2
     6    6   22 1
     7    7    5 1
     8    8    3 1
     9    9    1 1
    10   10    2 1
    11   11    8 2
    12   12    1 1
    13   13    2 1
    14   14    8 2
    15   15    9 ar
    16   16    9 ar
    17   17   18 ar
    18   18   15 ar
    19   19   16 ar
    20   20   16 1
    21   21   12 1
    22   23   10 1
    23   24   13 1
    24   25   15 1
    25   26   17 1
    26   27   18 1
    27   28   19 1
    28    3   10 2
    29    7   12 2
    30   17   19 ar
@<TRIPOS>SUBSTRUCTURE
     1 RES1 1

@<TRIPOS>CRYSIN
  14.1430    3.8880   20.6600  90.0000  94.9200  90.0000  14 1

