# MOL2 file generated by ConQuest
# Please check atom types

@<TRIPOS>MOLECULE
WOVXOU01
    21    22     1
SMALL
NO_CHARGES
****
Generated from CSD

@<TRIPOS>ATOM
      1 N1         3.5872    1.7976   -1.4605 N.pl3     1 RES1    0.0000
      2 C1         4.3794    1.4599   -0.3964 C.2       1 RES1    0.0000
      3 C2         3.4847    1.1266    0.5938 C.2       1 RES1    0.0000
      4 N2         2.1847    1.2556    0.1935 N.2       1 RES1    0.0000
      5 C3         2.2838    1.6745   -1.0538 C.2       1 RES1    0.0000
      6 N3         3.8206    0.6366    1.8963 N.pl3     1 RES1    0.0000
      7 O1         2.9189    0.2302    2.6213 O.2       1 RES1    0.0000
      8 O2         5.0166    0.6218    2.2057 O.2       1 RES1    0.0000
      9 C4         4.0211    2.2290   -2.7533 C.ar      1 RES1    0.0000
     10 C5         5.2607    2.8560   -2.8895 C.ar      1 RES1    0.0000
     11 C6         5.6560    3.2927   -4.1544 C.ar      1 RES1    0.0000
     12 C7         4.8314    3.1063   -5.2623 C.ar      1 RES1    0.0000
     13 C8         3.6019    2.4659   -5.1089 C.ar      1 RES1    0.0000
     14 C9         3.1895    2.0229   -3.8538 C.ar      1 RES1    0.0000
     15 H1         5.4391    1.4809   -0.4468 H         1 RES1    0.0000
     16 H2         1.4521    1.9079   -1.7189 H         1 RES1    0.0000
     17 H3         5.8958    3.0134   -2.0292 H         1 RES1    0.0000
     18 H4         6.6130    3.7814   -4.2477 H         1 RES1    0.0000
     19 H5         5.1554    3.4239   -6.2439 H         1 RES1    0.0000
     20 H6         2.9263    2.3136   -5.9490 H         1 RES1    0.0000
     21 H7         2.2368    1.5367   -3.7305 H         1 RES1    0.0000
@<TRIPOS>BOND
     1    1    2 1
     2    2    3 2
     3    3    4 1
     4    4    5 2
     5    5    1 1
     6    6    3 1
     7    7    6 2
     8    8    6 2
     9    9    1 1
    10   10    9 ar
    11   11   10 ar
    12   12   11 ar
    13   13   12 ar
    14   14    9 ar
    15   15    2 1
    16   16    5 1
    17   17   10 1
    18   18   11 1
    19   19   12 1
    20   20   13 1
    21   21   14 1
    22   13   14 ar
@<TRIPOS>SUBSTRUCTURE
     1 RES1 1

@<TRIPOS>CRYSIN
  11.0844    6.8878   22.0089  90.0000  90.0000  90.0000  61 1

