# MOL2 file generated by ConQuest
# Please check atom types

@<TRIPOS>MOLECULE
WOVZEO
    38    41     1
SMALL
NO_CHARGES
****
Generated from CSD

@<TRIPOS>ATOM
      1 O1         6.8766   -0.1202   -3.1367 O.3       1 RES1    0.0000
      2 H1         6.5624   -0.4919   -3.7640 H         1 RES1    0.0000
      3 N1         2.6329    3.9960    1.8549 N.pl3     1 RES1    0.0000
      4 N2         7.2381    0.3007   -0.6619 N.3       1 RES1    0.0000
      5 N3         5.8860    0.6906   -2.5109 N.2       1 RES1    0.0000
      6 C1         3.5095    3.2104    1.0614 C.ar      1 RES1    0.0000
      7 C2         3.6742    3.4795   -0.2821 C.ar      1 RES1    0.0000
      8 H2         3.2059    4.1784   -0.6762 H         1 RES1    0.0000
      9 C3         5.2571    1.6910   -0.4536 C.ar      1 RES1    0.0000
     10 C4         4.2358    2.1898    1.6458 C.ar      1 RES1    0.0000
     11 H3         4.1357    2.0091    2.5530 H         1 RES1    0.0000
     12 C5         1.8631    5.3601    3.4925 C.ar      1 RES1    0.0000
     13 C6        -1.3234    5.0931    1.4209 C.ar      1 RES1    0.0000
     14 H4        -2.2064    5.3750    1.3434 H         1 RES1    0.0000
     15 C7         6.1726    0.8614   -1.2675 C.2       1 RES1    0.0000
     16 C8         5.0968    1.4472    0.8966 C.ar      1 RES1    0.0000
     17 H5         5.5837    0.7655    1.2998 H         1 RES1    0.0000
     18 C9         2.9891    4.6465    3.0269 C.ar      1 RES1    0.0000
     19 C10        4.2005    4.6966    3.6670 C.ar      1 RES1    0.0000
     20 H6         4.9347    4.2282    3.3405 H         1 RES1    0.0000
     21 C11        1.2816    4.2779    1.5668 C.ar      1 RES1    0.0000
     22 C12        4.2965    5.4632    4.8111 C.ar      1 RES1    0.0000
     23 H7         5.1048    5.5077    5.2684 H         1 RES1    0.0000
     24 C13        4.5226    2.7204   -1.0335 C.ar      1 RES1    0.0000
     25 H8         4.6112    2.8934   -1.9437 H         1 RES1    0.0000
     26 C14       -0.5582    5.5444    2.4672 C.ar      1 RES1    0.0000
     27 H9        -0.9213    6.1156    3.1066 H         1 RES1    0.0000
     28 C15        0.4892    3.8048    0.5363 C.ar      1 RES1    0.0000
     29 H10        0.8294    3.2167   -0.0993 H         1 RES1    0.0000
     30 C16        0.8026    5.1252    2.5598 C.ar      1 RES1    0.0000
     31 C17        1.9906    6.1253    4.6434 C.ar      1 RES1    0.0000
     32 H11        1.2633    6.6020    4.9736 H         1 RES1    0.0000
     33 C18       -0.7994    4.2265    0.4814 C.ar      1 RES1    0.0000
     34 H12       -1.3463    3.9242   -0.2069 H         1 RES1    0.0000
     35 C19        3.1975    6.1720    5.2873 C.ar      1 RES1    0.0000
     36 H13        3.2851    6.6877    6.0568 H         1 RES1    0.0000
     37 H14        7.2136    0.0553    0.2001 H         1 RES1    0.0000
     38 H15        7.7461   -0.0746   -1.3013 H         1 RES1    0.0000
@<TRIPOS>BOND
     1    1    2 1
     2    3    6 1
     3    4   15 1
     4    5    1 1
     5    6    7 ar
     6    7    8 1
     7    9   15 1
     8   10    6 ar
     9   11   10 1
    10   12   18 ar
    11   13   14 1
    12   15    5 2
    13   16    9 ar
    14   17   16 1
    15   18    3 1
    16   19   18 ar
    17   20   19 1
    18   21    3 1
    19   22   19 ar
    20   23   22 1
    21   24    7 ar
    22   25   24 1
    23   26   13 ar
    24   27   26 1
    25   28   21 ar
    26   29   28 1
    27   30   12 1
    28   31   12 ar
    29   32   31 1
    30   33   13 ar
    31   34   33 1
    32   35   22 ar
    33   36   35 1
    34   37    4 1
    35   38    4 1
    36    9   24 ar
    37   10   16 ar
    38   21   30 ar
    39   26   30 ar
    40   28   33 ar
    41   31   35 ar
@<TRIPOS>SUBSTRUCTURE
     1 RES1 1

@<TRIPOS>CRYSIN
   8.7780   27.6350    7.7970  90.0000 105.2610  90.0000  14 1

