# MOL2 file generated by ConQuest
# Please check atom types

@<TRIPOS>MOLECULE
WOXXAK
    60    64     1
SMALL
NO_CHARGES
****
Generated from CSD

@<TRIPOS>ATOM
      1 O1         6.8446    1.6142   -0.0648 O.2       1 RES1    0.0000
      2 O2         4.7823    4.8796    4.3518 O.3       1 RES1    0.0000
      3 N1         5.3690    0.6380   -1.4650 N.am      1 RES1    0.0000
      4 N2         5.2178    1.4442    2.1212 N.pl3     1 RES1    0.0000
      5 N3         6.6050    4.3414    5.4942 N.2       1 RES1    0.0000
      6 N4         8.0029    4.0252   14.3425 N.ar      1 RES1    0.0000
      7 N5         7.4495    2.2810   15.7311 N.pl3     1 RES1    0.0000
      8 H1         7.1349    1.4958   15.8712 H         1 RES1    0.0000
      9 H2         7.8249    2.7238   16.3667 H         1 RES1    0.0000
     10 N6         5.8676    0.6592    3.0159 N.2       1 RES1    0.0000
     11 N7         5.0673    5.9764    5.1982 N.2       1 RES1    0.0000
     12 N8         6.7715    2.1366   13.5421 N.ar      1 RES1    0.0000
     13 C1         4.0649    0.0446   -1.7277 C.3       1 RES1    0.0000
     14 H3         4.0880   -0.9086   -1.5027 H         1 RES1    0.0000
     15 H4         3.8434    0.1502   -2.6760 H         1 RES1    0.0000
     16 H5         3.3858    0.4935   -1.1813 H         1 RES1    0.0000
     17 C2         5.7550    1.0877   -0.2644 C.2       1 RES1    0.0000
     18 C3         4.7329    0.9202    0.8593 C.3       1 RES1    0.0000
     19 H6         3.8976    1.3896    0.6107 H         1 RES1    0.0000
     20 H7         4.5211   -0.0411    0.9670 H         1 RES1    0.0000
     21 C4         5.0890    2.7003    2.5370 C.2       1 RES1    0.0000
     22 H8         4.6687    3.4115    2.0679 H         1 RES1    0.0000
     23 C5         5.6862    2.7714    3.7831 C.2       1 RES1    0.0000
     24 C6         5.7535    3.9697    4.5859 C.2       1 RES1    0.0000
     25 C7         6.1411    5.6077    5.8358 C.2       1 RES1    0.0000
     26 C8         6.8107    6.5269    6.8277 C.3       1 RES1    0.0000
     27 C9         6.9458    5.8201    8.1826 C.ar      1 RES1    0.0000
     28 C10        5.9908    4.9109    8.6178 C.ar      1 RES1    0.0000
     29 H9         5.2687    4.6825    8.0441 H         1 RES1    0.0000
     30 C11        6.0729    4.3323    9.8717 C.ar      1 RES1    0.0000
     31 H10        5.3997    3.7214   10.1495 H         1 RES1    0.0000
     32 C12        7.1259    4.6289   10.7380 C.ar      1 RES1    0.0000
     33 C13        7.2383    3.9794   12.0669 C.ar      1 RES1    0.0000
     34 C14        7.9089    4.5669   13.1349 C.ar      1 RES1    0.0000
     35 H11        8.3253    5.4084   12.9916 H         1 RES1    0.0000
     36 C15        7.4086    2.8283   14.4997 C.ar      1 RES1    0.0000
     37 C16        6.3633    0.6018   -2.5351 C.3       1 RES1    0.0000
     38 H12        6.5752    1.5169   -2.8153 H         1 RES1    0.0000
     39 H13        6.0040    0.1014   -3.2975 H         1 RES1    0.0000
     40 H14        7.1769    0.1626   -2.2099 H         1 RES1    0.0000
     41 C17        6.1450    1.4670    4.0285 C.2       1 RES1    0.0000
     42 H15        6.5970    1.1984    4.8189 H         1 RES1    0.0000
     43 C18        6.6998    2.7277   12.3501 C.ar      1 RES1    0.0000
     44 H16        6.2538    2.2657   11.6496 H         1 RES1    0.0000
     45 C19        8.0720    5.5525   10.3089 C.ar      1 RES1    0.0000
     46 H17        8.7942    5.7843   10.8808 H         1 RES1    0.0000
     47 C20        7.9754    6.1393    9.0558 C.ar      1 RES1    0.0000
     48 H18        8.6292    6.7751    8.7887 H         1 RES1    0.0000
     49 C21        5.9226    7.7767    7.0168 C.3       1 RES1    0.0000
     50 H19        5.8512    8.2585    6.1663 H         1 RES1    0.0000
     51 H20        6.3236    8.3637    7.6905 H         1 RES1    0.0000
     52 H21        5.0294    7.5010    7.3128 H         1 RES1    0.0000
     53 C22        8.1639    7.0141    6.2957 C.3       1 RES1    0.0000
     54 H22        8.5567    7.7593    6.8360 H         1 RES1    0.0000
     55 C23        8.4515    7.1269    4.8278 C.3       1 RES1    0.0000
     56 H23        8.9471    7.9247    4.5136 H         1 RES1    0.0000
     57 H24        7.7707    6.7837    4.1948 H         1 RES1    0.0000
     58 C24        9.1936    6.1264    5.6724 C.3       1 RES1    0.0000
     59 H25        8.9689    5.1693    5.5583 H         1 RES1    0.0000
     60 H26       10.1452    6.3103    5.8770 H         1 RES1    0.0000
@<TRIPOS>BOND
     1    1   17 2
     2    2   11 1
     3    3   13 1
     4    4   10 1
     5    5   24 2
     6    6   34 ar
     7    7    8 1
     8    9    7 1
     9   10   41 2
    10   11   25 2
    11   12   36 ar
    12   13   14 1
    13   15   13 1
    14   16   13 1
    15   17    3 1
    16   18    4 1
    17   19   18 1
    18   20   18 1
    19   21    4 1
    20   22   21 1
    21   23   21 2
    22   24    2 1
    23   25    5 1
    24   26   25 1
    25   27   26 1
    26   28   27 ar
    27   29   28 1
    28   30   28 ar
    29   31   30 1
    30   32   30 ar
    31   33   32 1
    32   34   33 ar
    33   35   34 1
    34   36    6 ar
    35   37    3 1
    36   38   37 1
    37   39   37 1
    38   40   37 1
    39   41   23 1
    40   42   41 1
    41   43   12 ar
    42   44   43 1
    43   45   32 ar
    44   46   45 1
    45   47   27 ar
    46   48   47 1
    47   49   26 1
    48   50   49 1
    49   51   49 1
    50   52   49 1
    51   53   26 1
    52   54   53 1
    53   55   53 1
    54   56   55 1
    55   57   55 1
    56   58   53 1
    57   59   58 1
    58   60   58 1
    59    7   36 1
    60   17   18 1
    61   23   24 1
    62   33   43 ar
    63   45   47 ar
    64   55   58 1
@<TRIPOS>SUBSTRUCTURE
     1 RES1 1

@<TRIPOS>CRYSIN
   8.7331    9.5640   26.7868  90.0000  90.0000  90.0000  19 1

