# MOL2 file generated by ConQuest
# Please check atom types

@<TRIPOS>MOLECULE
WOZLOO
    26    26     1
SMALL
NO_CHARGES
****
Generated from CSD

@<TRIPOS>ATOM
      1 O1         0.8975   -2.7053    4.3309 O.2       1 RES1    0.0000
      2 O2         1.6341   -3.2338    2.3358 O.2       1 RES1    0.0000
      3 O3        -1.4951   -2.1999    2.9296 O.2       1 RES1    0.0000
      4 O4        -1.4345   -0.0400    2.6570 O.2       1 RES1    0.0000
      5 O5        -0.0636   -1.4742    0.4089 O.2       1 RES1    0.0000
      6 O6         1.9780   -0.8207    0.7852 O.2       1 RES1    0.0000
      7 O7         4.7983    3.5497    3.7156 O.2       1 RES1    0.0000
      8 O8         5.0947    3.7671    1.5732 O.2       1 RES1    0.0000
      9 N1         1.2034    1.1936    2.7830 N.2       1 RES1    0.0000
     10 N2         1.9566    1.8725    3.6363 N.3       1 RES1    0.0000
     11 N3         2.4716    1.1389    4.6193 N.2       1 RES1    0.0000
     12 N4         2.0386   -0.0881    4.4213 N.2       1 RES1    0.0000
     13 N5         1.0989   -2.5031    3.1568 N.pl3     1 RES1    0.0000
     14 N6        -0.9302   -1.1366    2.7784 N.pl3     1 RES1    0.0000
     15 N7         0.8589   -1.1402    1.1178 N.pl3     1 RES1    0.0000
     16 N8         3.0389    3.5977    2.3512 N.3       1 RES1    0.0000
     17 N9         4.3879    3.6325    2.5628 N.pl3     1 RES1    0.0000
     18 C1         1.2819   -0.0157    3.3061 C.2       1 RES1    0.0000
     19 C2         0.6011   -1.1598    2.6402 C.3       1 RES1    0.0000
     20 C3         2.5726    3.5098    0.9744 C.3       1 RES1    0.0000
     21 C4         2.1895    3.3160    3.4729 C.3       1 RES1    0.0000
     22 H1         1.3246    3.6674    3.3266 H         1 RES1    0.0000
     23 H2         2.5898    3.6226    4.2607 H         1 RES1    0.0000
     24 H3         1.6216    3.4919    1.0140 H         1 RES1    0.0000
     25 H4         2.8928    2.6964    0.6166 H         1 RES1    0.0000
     26 H5         2.9165    4.2518    0.5039 H         1 RES1    0.0000
@<TRIPOS>BOND
     1    1   13 2
     2    2   13 2
     3    3   14 2
     4    4   14 2
     5    5   15 2
     6    6   15 2
     7    7   17 2
     8    8   17 2
     9    9   10 1
    10   10   11 1
    11   11   12 2
    12   12   18 1
    13   13   19 1
    14   14   19 1
    15   15   19 1
    16   16   17 1
    17   18    9 2
    18   19   18 1
    19   20   16 1
    20   21   10 1
    21   22   21 1
    22   23   21 1
    23   24   20 1
    24   25   20 1
    25   26   20 1
    26   16   21 1
@<TRIPOS>SUBSTRUCTURE
     1 RES1 1

@<TRIPOS>CRYSIN
   5.9400   18.6730   20.4840  90.0000  90.0000  90.0000  61 1

