# MOL2 file generated by ConQuest
# Please check atom types

@<TRIPOS>MOLECULE
WUCQER
   100   106     2
SMALL
NO_CHARGES
****
Generated from CSD

@<TRIPOS>ATOM
      1 O1        11.4478    1.9002    8.7143 O.2       1 RES1    0.0000
      2 O2        13.9996    3.0136   10.7361 O.3       1 RES1    0.0000
      3 O3        13.9528    0.7620   10.6366 O.2       1 RES1    0.0000
      4 O4        13.5272    2.3063   13.6403 O.3       1 RES1    0.0000
      5 O5        11.9345    3.8621   13.3017 O.2       1 RES1    0.0000
      6 O6        11.7768    0.7048   12.2578 O.3       1 RES1    0.0000
      7 O7         3.0273    2.3073   14.7900 O.2       2 RES2    0.0000
      8 O8         0.5966    3.6121   12.8768 O.2       2 RES2    0.0000
      9 O9         0.4456    1.3667   12.7344 O.3       2 RES2    0.0000
     10 O10        2.4205    0.4473   10.1908 O.2       2 RES2    0.0000
     11 O11        0.9821    2.1465    9.8523 O.3       2 RES2    0.0000
     12 O12        2.8253    3.5905   11.3050 O.3       2 RES2    0.0000
     13 N1        10.4706    0.4044   11.8073 N.2       1 RES1    0.0000
     14 N2         4.1440    3.7920   11.8043 N.2       2 RES2    0.0000
     15 C1        11.4809    4.5225    7.6786 C.ar      1 RES1    0.0000
     16 H1        11.3640    3.8338    7.0638 H         1 RES1    0.0000
     17 C2        11.6535    5.8202    7.2365 C.ar      1 RES1    0.0000
     18 H2        11.6304    6.0074    6.3261 H         1 RES1    0.0000
     19 C3        11.8589    6.8443    8.1470 C.ar      1 RES1    0.0000
     20 H3        11.9818    7.7151    7.8440 H         1 RES1    0.0000
     21 C4        11.8835    6.5800    9.4995 C.ar      1 RES1    0.0000
     22 H4        12.0363    7.2696   10.1044 H         1 RES1    0.0000
     23 C5        11.6814    5.2839    9.9605 C.ar      1 RES1    0.0000
     24 H5        11.6807    5.1104   10.8736 H         1 RES1    0.0000
     25 C6        11.4799    4.2421    9.0524 C.ar      1 RES1    0.0000
     26 C7        11.3222    2.8385    9.4858 C.2       1 RES1    0.0000
     27 C8        10.9900    2.5284   10.9549 C.3       1 RES1    0.0000
     28 H6        10.6180    3.3231   11.3916 H         1 RES1    0.0000
     29 C9        12.1837    1.9903   11.7662 C.3       1 RES1    0.0000
     30 C10       13.4870    1.8110   10.9673 C.2       1 RES1    0.0000
     31 C11       15.3137    3.0554   10.1197 C.3       1 RES1    0.0000
     32 H7        15.9662    2.7055   10.7323 H         1 RES1    0.0000
     33 H8        15.5357    3.9626    9.9004 H         1 RES1    0.0000
     34 H9        15.3103    2.5243    9.3196 H         1 RES1    0.0000
     35 C12       12.5110    2.8600   12.9918 C.2       1 RES1    0.0000
     36 C13       14.0074    3.0207   14.8031 C.3       1 RES1    0.0000
     37 H10       14.1367    3.9448   14.5798 H         1 RES1    0.0000
     38 H11       14.8419    2.6403   15.0899 H         1 RES1    0.0000
     39 H12       13.3623    2.9495   15.5106 H         1 RES1    0.0000
     40 C14       10.0228    1.3637   11.0772 C.2       1 RES1    0.0000
     41 C15        8.6780    1.3778   10.4780 C.ar      1 RES1    0.0000
     42 C16        8.2090    2.5805    9.9832 C.ar      1 RES1    0.0000
     43 H13        8.7617    3.3273   10.0275 H         1 RES1    0.0000
     44 C17        6.9340    2.7174    9.4178 C.ar      1 RES1    0.0000
     45 H14        6.6548    3.5424    9.0919 H         1 RES1    0.0000
     46 C18        6.1052    1.6357    9.3484 C.ar      1 RES1    0.0000
     47 H15        5.2621    1.7246    8.9664 H         1 RES1    0.0000
     48 C19        6.5189    0.3786    9.8539 C.ar      1 RES1    0.0000
     49 C20        5.6311   -0.7268    9.8302 C.ar      1 RES1    0.0000
     50 H16        4.7844   -0.6251    9.4577 H         1 RES1    0.0000
     51 C21        5.9949   -1.9347   10.3437 C.ar      1 RES1    0.0000
     52 H17        5.3927   -2.6420   10.3462 H         1 RES1    0.0000
     53 C22        7.2845   -2.1067   10.8684 C.ar      1 RES1    0.0000
     54 H18        7.5355   -2.9376   11.2017 H         1 RES1    0.0000
     55 C23        8.1779   -1.0682   10.8968 C.ar      1 RES1    0.0000
     56 H19        9.0315   -1.2088   11.2346 H         1 RES1    0.0000
     57 C24        7.8200    0.2161   10.4199 C.ar      1 RES1    0.0000
     58 C25        2.9375   -0.3160   15.8194 C.ar      2 RES2    0.0000
     59 H20        3.0766    0.3676   16.4352 H         2 RES2    0.0000
     60 C26        2.7370   -1.6103   16.2602 C.ar      2 RES2    0.0000
     61 H21        2.7525   -1.7992   17.1714 H         2 RES2    0.0000
     62 C27        2.5110   -2.6293   15.3458 C.ar      2 RES2    0.0000
     63 H22        2.3800   -3.4992   15.6456 H         2 RES2    0.0000
     64 C28        2.4789   -2.3554   13.9899 C.ar      2 RES2    0.0000
     65 H23        2.3073   -3.0376   13.3821 H         2 RES2    0.0000
     66 C29        2.7036   -1.0649   13.5368 C.ar      2 RES2    0.0000
     67 H24        2.7021   -0.8860   12.6239 H         2 RES2    0.0000
     68 C30        2.9336   -0.0324   14.4485 C.ar      2 RES2    0.0000
     69 C31        3.1279    1.3647   14.0194 C.2       2 RES2    0.0000
     70 C32        3.4690    1.6728   12.5502 C.3       2 RES2    0.0000
     71 H25        3.7956    0.8674   12.0964 H         2 RES2    0.0000
     72 C33        2.3252    2.3181   11.7492 C.3       2 RES2    0.0000
     73 C34        1.0243    2.5456   12.5366 C.2       2 RES2    0.0000
     74 C35       -0.8942    1.3748   13.2951 C.3       2 RES2    0.0000
     75 H26       -0.9630    2.0719   13.9519 H         2 RES2    0.0000
     76 H27       -1.0741    0.5277   13.7086 H         2 RES2    0.0000
     77 H28       -1.5324    1.5298   12.5956 H         2 RES2    0.0000
     78 C36        1.9410    1.5001   10.5028 C.2       2 RES2    0.0000
     79 C37        0.4352    1.4714    8.6918 C.3       2 RES2    0.0000
     80 H29        1.1081    1.4121    8.0104 H         2 RES2    0.0000
     81 H30       -0.3175    1.9669    8.3573 H         2 RES2    0.0000
     82 H31        0.1512    0.5879    8.9397 H         2 RES2    0.0000
     83 C38        4.5075    2.7723   12.4904 C.2       2 RES2    0.0000
     84 C39        5.8267    2.6579   13.1431 C.ar      2 RES2    0.0000
     85 C40        6.4158    1.4148   13.1909 C.ar      2 RES2    0.0000
     86 H32        5.9569    0.6819   12.8483 H         2 RES2    0.0000
     87 C41        7.6974    1.2266   13.7464 C.ar      2 RES2    0.0000
     88 H33        8.0830    0.3803   13.7525 H         2 RES2    0.0000
     89 C42        8.3686    2.2896   14.2760 C.ar      2 RES2    0.0000
     90 H34        9.2213    2.1668   14.6237 H         2 RES2    0.0000
     91 C43        7.7826    3.5763   14.3036 C.ar      2 RES2    0.0000
     92 C44        8.4474    4.6648   14.9226 C.ar      2 RES2    0.0000
     93 H35        9.2984    4.5394   15.2752 H         2 RES2    0.0000
     94 C45        7.8599    5.8905   15.0105 C.ar      2 RES2    0.0000
     95 H36        8.3081    6.5936   15.4211 H         2 RES2    0.0000
     96 C46        6.5780    6.0896   14.4818 C.ar      2 RES2    0.0000
     97 H37        6.1745    6.9240   14.5594 H         2 RES2    0.0000
     98 C47        5.9141    5.0724   13.8538 C.ar      2 RES2    0.0000
     99 H38        5.0728    5.2298   13.4919 H         2 RES2    0.0000
    100 C48        6.4892    3.7845   13.7450 C.ar      2 RES2    0.0000
@<TRIPOS>BOND
     1    1   26 2
     2    2   30 1
     3    3   30 2
     4    4   35 1
     5    5   35 2
     6    6   13 1
     7    7   69 2
     8    8   73 2
     9    9   73 1
    10   10   78 2
    11   11   78 1
    12   12   14 1
    13   13   40 2
    14   14   83 2
    15   15   16 1
    16   17   15 ar
    17   18   17 1
    18   19   17 ar
    19   20   19 1
    20   21   19 ar
    21   22   21 1
    22   23   21 ar
    23   24   23 1
    24   25   15 ar
    25   26   25 1
    26   27   26 1
    27   28   27 1
    28   29    6 1
    29   30   29 1
    30   31    2 1
    31   32   31 1
    32   33   31 1
    33   34   31 1
    34   35   29 1
    35   36    4 1
    36   37   36 1
    37   38   36 1
    38   39   36 1
    39   40   27 1
    40   41   40 1
    41   42   41 ar
    42   43   42 1
    43   44   42 ar
    44   45   44 1
    45   46   44 ar
    46   47   46 1
    47   48   46 ar
    48   49   48 ar
    49   50   49 1
    50   51   49 ar
    51   52   51 1
    52   53   51 ar
    53   54   53 1
    54   55   53 ar
    55   56   55 1
    56   57   41 ar
    57   58   59 1
    58   60   58 ar
    59   61   60 1
    60   62   60 ar
    61   63   62 1
    62   64   62 ar
    63   65   64 1
    64   66   64 ar
    65   67   66 1
    66   68   58 ar
    67   69   68 1
    68   70   69 1
    69   71   70 1
    70   72   12 1
    71   73   72 1
    72   74    9 1
    73   75   74 1
    74   76   74 1
    75   77   74 1
    76   78   72 1
    77   79   11 1
    78   80   79 1
    79   81   79 1
    80   82   79 1
    81   83   70 1
    82   84   83 1
    83   85   84 ar
    84   86   85 1
    85   87   85 ar
    86   88   87 1
    87   89   87 ar
    88   90   89 1
    89   91   89 ar
    90   92   91 ar
    91   93   92 1
    92   94   92 ar
    93   95   94 1
    94   96   94 ar
    95   97   96 1
    96   98   96 ar
    97   99   98 1
    98  100   84 ar
    99   23   25 ar
   100   27   29 1
   101   48   57 ar
   102   55   57 ar
   103   66   68 ar
   104   70   72 1
   105   91  100 ar
   106   98  100 ar
@<TRIPOS>SUBSTRUCTURE
     1 RES1 1
     2 RES2 7

@<TRIPOS>CRYSIN
  30.4270    8.4707   15.7050  90.0000  91.7800  90.0000  14 1

