# MOL2 file generated by ConQuest
# Please check atom types

@<TRIPOS>MOLECULE
WUDKAJ
    29    29     1
SMALL
USER_CHARGES
****
Generated from CSD

@<TRIPOS>ATOM
      1 O1         1.3405    7.2242    4.2846 O.3       1 RES1    0.0000
      2 O2         2.6551    5.0821    5.6401 O.2       1 RES1   -1.0000
      3 N1         2.9000    5.4601    4.4206 N.pl3     1 RES1    1.0000
      4 H1         1.2505    7.5471    5.0759 H         1 RES1    0.0000
      5 C1         2.6575    6.9026    4.0139 C.3       1 RES1    0.0000
      6 C2         2.8731    6.8171    2.5063 C.3       1 RES1    0.0000
      7 H2         3.4499    7.5620    2.2032 H         1 RES1    0.0000
      8 H3         2.0049    6.8822    2.0355 H         1 RES1    0.0000
      9 C3         3.5454    5.4653    2.1899 C.3       1 RES1    0.0000
     10 C4         3.3718    4.7133    3.4789 C.2       1 RES1    0.0000
     11 C5         3.7197    3.2918    3.7414 C.3       1 RES1    0.0000
     12 H4         3.8332    2.8225    2.8776 H         1 RES1    0.0000
     13 H5         2.9715    2.8606    4.2241 H         1 RES1    0.0000
     14 C6         4.9874    3.1392    4.5564 C.3       1 RES1    0.0000
     15 H6         5.7366    3.5472    4.0746 H         1 RES1    0.0000
     16 H7         5.1704    2.1876    4.7004 H         1 RES1    0.0000
     17 H8         4.8753    3.5852    5.4223 H         1 RES1    0.0000
     18 C7         3.6429    7.7732    4.7587 C.3       1 RES1    0.0000
     19 H9         3.5331    8.7055    4.4768 H         1 RES1    0.0000
     20 H10        4.5557    7.4777    4.5595 H         1 RES1    0.0000
     21 H11        3.4793    7.7007    5.7224 H         1 RES1    0.0000
     22 C8         2.8494    4.7553    1.0297 C.3       1 RES1    0.0000
     23 H12        3.3029    3.9061    0.8470 H         1 RES1    0.0000
     24 H13        2.8855    5.3228    0.2309 H         1 RES1    0.0000
     25 H14        1.9144    4.5832    1.2663 H         1 RES1    0.0000
     26 C9         5.0334    5.6143    1.8735 C.3       1 RES1    0.0000
     27 H15        5.4856    6.0502    2.6261 H         1 RES1    0.0000
     28 H16        5.1426    6.1589    1.0670 H         1 RES1    0.0000
     29 H17        5.4261    4.7287    1.7256 H         1 RES1    0.0000
@<TRIPOS>BOND
     1    1    4 1
     2    2    3 1
     3    3    5 1
     4    5    1 1
     5    6    5 1
     6    7    6 1
     7    8    6 1
     8    9    6 1
     9   10    3 2
    10   11   10 1
    11   12   11 1
    12   13   11 1
    13   14   11 1
    14   15   14 1
    15   16   14 1
    16   17   14 1
    17   18    5 1
    18   19   18 1
    19   20   18 1
    20   21   18 1
    21   22    9 1
    22   23   22 1
    23   24   22 1
    24   25   22 1
    25   26    9 1
    26   27   26 1
    27   28   26 1
    28   29   26 1
    29    9   10 1
@<TRIPOS>SUBSTRUCTURE
     1 RES1 1

@<TRIPOS>CRYSIN
   5.9141   13.5959   12.3925  90.0000 101.3030  90.0000  14 1

