# MOL2 file generated by ConQuest
# Please check atom types

@<TRIPOS>MOLECULE
WUDNAL
    33    35     1
SMALL
NO_CHARGES
****
Generated from CSD

@<TRIPOS>ATOM
      1 C1        10.7697    1.8559   -0.8008 C.3       1 RES1    0.0000
      2 H1        10.9711    2.7096   -1.1897 H         1 RES1    0.0000
      3 H2        10.9346    1.1632   -1.4455 H         1 RES1    0.0000
      4 H3        11.3266    1.7154   -0.0314 H         1 RES1    0.0000
      5 O1         7.1282    1.5886    3.1437 O.3       1 RES1    0.0000
      6 C2         7.4006    1.7460    0.7932 C.ar      1 RES1    0.0000
      7 C3         8.8478    1.7663    0.8455 C.2       1 RES1    0.0000
      8 N1         4.8959    1.9135   -1.9700 N.pl3     1 RES1    0.0000
      9 C4         6.5795    1.6826    1.9041 C.ar      1 RES1    0.0000
     10 C5         8.4705    1.0299    3.1589 C.3       1 RES1    0.0000
     11 H4         8.4241    0.0961    2.9020 H         1 RES1    0.0000
     12 H5         8.8162    1.0700    4.0650 H         1 RES1    0.0000
     13 C6         9.4425    1.7445    2.2318 C.3       1 RES1    0.0000
     14 H6         9.5930    2.6513    2.5426 H         1 RES1    0.0000
     15 H7        10.2942    1.2798    2.2208 H         1 RES1    0.0000
     16 O2         5.5634    1.9222   -2.9855 O.2       1 RES1    0.0000
     17 C7         5.2038    1.7292    1.7225 C.ar      1 RES1    0.0000
     18 H8         4.6263    1.7081    2.4515 H         1 RES1    0.0000
     19 C8         8.2837    0.6381   -2.3398 C.3       1 RES1    0.0000
     20 H9         8.2315   -0.1624   -1.8128 H         1 RES1    0.0000
     21 H10        9.1180    0.6556   -2.8125 H         1 RES1    0.0000
     22 H11        7.5592    0.6541   -2.9695 H         1 RES1    0.0000
     23 C9         6.9509    1.8217   -0.5214 C.ar      1 RES1    0.0000
     24 C10        9.3342    1.8227   -0.3892 C.2       1 RES1    0.0000
     25 C11        5.5543    1.8472   -0.6736 C.ar      1 RES1    0.0000
     26 C12        8.2928    3.1627   -2.2331 C.3       1 RES1    0.0000
     27 H12        7.5583    3.2137   -2.8486 H         1 RES1    0.0000
     28 H13        9.1203    3.1714   -2.7199 H         1 RES1    0.0000
     29 H14        8.2635    3.9158   -1.6385 H         1 RES1    0.0000
     30 C13        8.1897    1.8640   -1.4210 C.3       1 RES1    0.0000
     31 O3         3.6726    1.9521   -1.9954 O.2       1 RES1    0.0000
     32 C14        4.7140    1.8071    0.4365 C.ar      1 RES1    0.0000
     33 H15        3.7934    1.8341    0.3060 H         1 RES1    0.0000
@<TRIPOS>BOND
     1    1    2 1
     2    3    1 1
     3    4    1 1
     4    5    9 1
     5    6    7 1
     6    7   13 1
     7    8   16 2
     8    9    6 ar
     9   10    5 1
    10   11   10 1
    11   12   10 1
    12   13   10 1
    13   14   13 1
    14   15   13 1
    15   17    9 ar
    16   18   17 1
    17   19   20 1
    18   21   19 1
    19   22   19 1
    20   23    6 ar
    21   24    1 1
    22   25    8 1
    23   26   27 1
    24   28   26 1
    25   29   26 1
    26   30   19 1
    27   31    8 2
    28   32   17 ar
    29   33   32 1
    30    7   24 2
    31   23   25 ar
    32   23   30 1
    33   24   30 1
    34   25   32 ar
    35   26   30 1
@<TRIPOS>SUBSTRUCTURE
     1 RES1 1

@<TRIPOS>CRYSIN
  10.5007    7.2839   17.4464  90.0000 115.8940  90.0000  14 1

