# MOL2 file generated by ConQuest
# Please check atom types

@<TRIPOS>MOLECULE
WUDRUK
    47    50     1
SMALL
NO_CHARGES
****
Generated from CSD

@<TRIPOS>ATOM
      1 O1         7.3535   11.2958    4.7741 O.2       1 RES1    0.0000
      2 O2        10.3044   10.7986    8.1372 O.2       1 RES1    0.0000
      3 O3        11.8272    9.6099    7.0204 O.3       1 RES1    0.0000
      4 N1        11.9879    9.0870    5.6855 N.2       1 RES1    0.0000
      5 C1        10.4096    8.0033    1.0260 C.ar      1 RES1    0.0000
      6 H1        10.2854    7.6921    0.1576 H         1 RES1    0.0000
      7 C2         9.4949    8.8720    1.5916 C.ar      1 RES1    0.0000
      8 H2         8.7608    9.1553    1.0958 H         1 RES1    0.0000
      9 C3         9.6610    9.3212    2.8817 C.ar      1 RES1    0.0000
     10 H3         9.0449    9.9135    3.2496 H         1 RES1    0.0000
     11 C4        10.7518    8.8909    3.6409 C.ar      1 RES1    0.0000
     12 C5        10.8949    9.3091    5.0359 C.2       1 RES1    0.0000
     13 C6         9.8539    9.9927    5.8560 C.3       1 RES1    0.0000
     14 H4         9.6295   10.8549    5.4478 H         1 RES1    0.0000
     15 C7         8.5488    9.1585    6.0640 C.3       1 RES1    0.0000
     16 H5         8.1900    8.9627    5.1732 H         1 RES1    0.0000
     17 C8         7.4907    9.9966    6.7973 C.3       1 RES1    0.0000
     18 H6         7.8985   10.3676    7.6073 H         1 RES1    0.0000
     19 C9         6.2400    9.1968    7.2075 C.3       1 RES1    0.0000
     20 H7         5.8277    8.8149    6.4162 H         1 RES1    0.0000
     21 H8         6.5020    8.4675    7.7904 H         1 RES1    0.0000
     22 C10        5.2311   10.0799    7.9257 C.3       1 RES1    0.0000
     23 H9         4.4579    9.5500    8.1755 H         1 RES1    0.0000
     24 H10        5.6295   10.4329    8.7371 H         1 RES1    0.0000
     25 C11        4.7910   11.2303    7.0353 C.3       1 RES1    0.0000
     26 H11        4.1755   11.7991    7.5243 H         1 RES1    0.0000
     27 H12        4.3233   10.8781    6.2614 H         1 RES1    0.0000
     28 C12        9.6657    5.3758    7.7871 C.ar      1 RES1    0.0000
     29 H13        9.9352    4.5628    8.1491 H         1 RES1    0.0000
     30 C13        9.5450    5.5157    6.4228 C.ar      1 RES1    0.0000
     31 H14        9.7250    4.7953    5.8622 H         1 RES1    0.0000
     32 C14        9.1541    6.7317    5.8876 C.ar      1 RES1    0.0000
     33 H15        9.0643    6.8178    4.9655 H         1 RES1    0.0000
     34 C15        8.8927    7.8253    6.7056 C.ar      1 RES1    0.0000
     35 C16        5.9900   12.0577    6.5719 C.3       1 RES1    0.0000
     36 H16        5.6992   12.7285    5.9348 H         1 RES1    0.0000
     37 H17        6.3882   12.5123    7.3308 H         1 RES1    0.0000
     38 C17        7.0057   11.1536    5.9308 C.2       1 RES1    0.0000
     39 C18       10.6094   10.2252    7.1356 C.2       1 RES1    0.0000
     40 C19       11.5108    7.6019    1.7621 C.ar      1 RES1    0.0000
     41 H18       12.1401    7.0361    1.3761 H         1 RES1    0.0000
     42 C20       11.6821    8.0287    3.0567 C.ar      1 RES1    0.0000
     43 H19       12.4204    7.7428    3.5451 H         1 RES1    0.0000
     44 C21        9.0127    7.6649    8.0778 C.ar      1 RES1    0.0000
     45 H20        8.8405    8.3829    8.6427 H         1 RES1    0.0000
     46 C22        9.3876    6.4384    8.6158 C.ar      1 RES1    0.0000
     47 H21        9.4510    6.3362    9.5384 H         1 RES1    0.0000
@<TRIPOS>BOND
     1    1   38 2
     2    2   39 2
     3    3    4 1
     4    4   12 2
     5    5    6 1
     6    7    5 ar
     7    8    7 1
     8    9    7 ar
     9   10    9 1
    10   11    9 ar
    11   12   11 1
    12   13   12 1
    13   14   13 1
    14   15   13 1
    15   16   15 1
    16   17   15 1
    17   18   17 1
    18   19   17 1
    19   20   19 1
    20   21   19 1
    21   22   19 1
    22   23   22 1
    23   24   22 1
    24   25   22 1
    25   26   25 1
    26   27   25 1
    27   28   29 1
    28   30   28 ar
    29   31   30 1
    30   32   30 ar
    31   33   32 1
    32   34   15 1
    33   35   25 1
    34   36   35 1
    35   37   35 1
    36   38   17 1
    37   39    3 1
    38   40    5 ar
    39   41   40 1
    40   42   11 ar
    41   43   42 1
    42   44   34 ar
    43   45   44 1
    44   46   28 ar
    45   47   46 1
    46   13   39 1
    47   32   34 ar
    48   35   38 1
    49   40   42 ar
    50   44   46 ar
@<TRIPOS>SUBSTRUCTURE
     1 RES1 1

@<TRIPOS>CRYSIN
   9.7240   10.1780   10.6760  62.1650  79.3280  69.0890   2 1

