# MOL2 file generated by ConQuest
# Please check atom types

@<TRIPOS>MOLECULE
WUDYOJ
    28    32     1
SMALL
NO_CHARGES
****
Generated from CSD

@<TRIPOS>ATOM
      1 O1         6.3294    0.9474    5.9776 O.3       1 RES1    0.0000
      2 O2         4.3048    6.3748    8.1945 O.2       1 RES1    0.0000
      3 O3         6.2234    6.2850    9.1148 O.2       1 RES1    0.0000
      4 N1         5.7966   -0.5698    4.3062 N.3       1 RES1    0.0000
      5 N2         5.3607    5.8096    8.4017 N.pl3     1 RES1    0.0000
      6 C1         5.2738   -0.0127    5.5304 C.3       1 RES1    0.0000
      7 C2         5.3179   -1.2248    6.5283 C.3       1 RES1    0.0000
      8 C3         7.2124   -3.0032    6.5042 C.ar      1 RES1    0.0000
      9 C4         8.2061   -3.5914    5.7548 C.ar      1 RES1    0.0000
     10 C5         8.4373   -3.1632    4.4599 C.ar      1 RES1    0.0000
     11 C6         7.7038   -2.1480    3.8866 C.ar      1 RES1    0.0000
     12 C7         6.7004   -1.5713    4.6532 C.ar      1 RES1    0.0000
     13 C8         6.4763   -1.9822    5.9655 C.ar      1 RES1    0.0000
     14 C9         6.0682    0.3396    3.1839 C.3       1 RES1    0.0000
     15 C10        5.5791   -0.8058    7.9666 C.3       1 RES1    0.0000
     16 C11        4.0860   -2.1457    6.4023 C.3       1 RES1    0.0000
     17 C12        2.7534   -1.6231    7.0291 C.3       1 RES1    0.0000
     18 C13        1.6284   -1.5425    6.0449 C.3       1 RES1    0.0000
     19 C14        1.5773   -0.2993    5.1954 C.3       1 RES1    0.0000
     20 C15        2.8716    0.0483    4.4581 C.3       1 RES1    0.0000
     21 C16        3.9494    0.6815    5.3232 C.2       1 RES1    0.0000
     22 C17        3.7414    1.8705    5.8912 C.2       1 RES1    0.0000
     23 C18        4.5091    3.8435    7.2104 C.ar      1 RES1    0.0000
     24 C19        5.5665    4.5008    7.7940 C.ar      1 RES1    0.0000
     25 C20        6.8440    3.9989    7.7767 C.ar      1 RES1    0.0000
     26 C21        7.1014    2.7926    7.1827 C.ar      1 RES1    0.0000
     27 C22        6.0327    2.1157    6.6009 C.ar      1 RES1    0.0000
     28 C23        4.7538    2.6153    6.6112 C.ar      1 RES1    0.0000
@<TRIPOS>BOND
     1    1    6 1
     2    2    5 2
     3    3    5 2
     4    4    6 1
     5    5   24 1
     6    6    7 1
     7    7   13 1
     8    8    9 ar
     9    9   10 ar
    10   10   11 ar
    11   11   12 ar
    12   12    4 1
    13   13    8 ar
    14   14    4 1
    15   15    7 1
    16   16    7 1
    17   17   16 1
    18   18   17 1
    19   19   18 1
    20   20   19 1
    21   21    6 1
    22   22   21 2
    23   23   24 ar
    24   24   25 ar
    25   25   26 ar
    26   26   27 ar
    27   27    1 1
    28   28   22 1
    29   12   13 ar
    30   20   21 1
    31   23   28 ar
    32   27   28 ar
@<TRIPOS>SUBSTRUCTURE
     1 RES1 1

@<TRIPOS>CRYSIN
   9.9430   11.5110   17.6820  90.0000 102.4500  90.0000  14 1

