# MOL2 file generated by ConQuest
# Please check atom types

@<TRIPOS>MOLECULE
WUDYID
    26    30     1
SMALL
NO_CHARGES
****
Generated from CSD

@<TRIPOS>ATOM
      1 O1        10.9314   -0.2870    3.4247 O.3       1 RES1    0.0000
      2 O2        10.4000   -6.2662    5.0345 O.2       1 RES1    0.0000
      3 O3        12.4956   -6.1742    4.5775 O.2       1 RES1    0.0000
      4 N1         9.2222    0.7089    2.1412 N.3       1 RES1    0.0000
      5 N2        11.3882   -5.6493    4.6885 N.pl3     1 RES1    0.0000
      6 C1         9.6872    0.4931    3.4939 C.3       1 RES1    0.0000
      7 C2        10.1037    1.9133    3.9652 C.3       1 RES1    0.0000
      8 C3        11.1231    3.7335    2.3749 C.ar      1 RES1    0.0000
      9 C4        11.2180    4.1640    1.0536 C.ar      1 RES1    0.0000
     10 C5        10.6384    3.4268    0.0431 C.ar      1 RES1    0.0000
     11 C6         9.9621    2.2396    0.3042 C.ar      1 RES1    0.0000
     12 C7         9.8909    1.8263    1.6229 C.ar      1 RES1    0.0000
     13 C8        10.4683    2.5585    2.6517 C.ar      1 RES1    0.0000
     14 C9         8.9033   -0.4182    1.2860 C.3       1 RES1    0.0000
     15 C10       11.2247    1.8962    4.9849 C.3       1 RES1    0.0000
     16 C11        8.8903    2.6799    4.5292 C.3       1 RES1    0.0000
     17 C12        8.0484    1.8949    5.4980 C.3       1 RES1    0.0000
     18 C13        7.5096    0.6574    4.8086 C.3       1 RES1    0.0000
     19 C14        8.6472   -0.1999    4.3386 C.2       1 RES1    0.0000
     20 C15        8.7517   -1.4816    4.6663 C.2       1 RES1    0.0000
     21 C16       10.0606   -3.6035    4.6311 C.ar      1 RES1    0.0000
     22 C17       11.2608   -4.2314    4.3765 C.ar      1 RES1    0.0000
     23 C18       12.3380   -3.5556    3.8281 C.ar      1 RES1    0.0000
     24 C19       12.2041   -2.2384    3.4965 C.ar      1 RES1    0.0000
     25 C20       10.9958   -1.5957    3.7354 C.ar      1 RES1    0.0000
     26 C21        9.9213   -2.2641    4.3255 C.ar      1 RES1    0.0000
@<TRIPOS>BOND
     1    1    6 1
     2    2    5 2
     3    3    5 2
     4    4    6 1
     5    5   22 1
     6    6    7 1
     7    7   13 1
     8    8    9 ar
     9    9   10 ar
    10   10   11 ar
    11   11   12 ar
    12   12    4 1
    13   13    8 ar
    14   14    4 1
    15   15    7 1
    16   16    7 1
    17   17   16 1
    18   18   17 1
    19   19    6 1
    20   20   19 2
    21   21   22 ar
    22   22   23 ar
    23   23   24 ar
    24   24   25 ar
    25   25    1 1
    26   26   20 1
    27   12   13 ar
    28   18   19 1
    29   21   26 ar
    30   25   26 ar
@<TRIPOS>SUBSTRUCTURE
     1 RES1 1

@<TRIPOS>CRYSIN
  11.0940   12.2650   13.1520  90.0000  96.9180  90.0000 231 1

