# MOL2 file generated by ConQuest
# Please check atom types

@<TRIPOS>MOLECULE
WUGCUX
    27    27     1
SMALL
USER_CHARGES
****
Generated from CSD

@<TRIPOS>ATOM
      1 O1        -0.1066    8.5472    1.8123 O.2       1 RES1   -1.0000
      2 C1         0.0151    7.2755    2.0545 C.ar      1 RES1    0.0000
      3 C2        -0.6704    6.3171    1.2515 C.ar      1 RES1    0.0000
      4 H1        -1.2298    6.6237    0.5474 H         1 RES1    0.0000
      5 C3        -0.5477    4.9671    1.4631 C.ar      1 RES1    0.0000
      6 H2        -1.0342    4.3504    0.9288 H         1 RES1    0.0000
      7 C4         0.3025    4.5097    2.4737 C.ar      1 RES1    0.0000
      8 N1         0.4299    3.0956    2.7156 N.pl3     1 RES1    0.0000
      9 O2        -0.1458    2.3041    1.9555 O.2       1 RES1    0.0000
     10 O3         1.1092    2.7164    3.6761 O.2       1 RES1    0.0000
     11 C5         0.9734    5.4031    3.2937 C.ar      1 RES1    0.0000
     12 H3         1.5450    5.0730    3.9761 H         1 RES1    0.0000
     13 C6         0.8216    6.7720    3.1314 C.ar      1 RES1    0.0000
     14 C7         1.4123    7.6325    4.1974 C.2       1 RES1    0.0000
     15 O4         2.1929    7.1689    5.0452 O.2       1 RES1    0.0000
     16 N2         1.0033    8.9144    4.2513 N.am      1 RES1    0.0000
     17 H4         0.5237    9.1780    3.6010 H         1 RES1    0.0000
     18 C8         1.3666    9.7872    5.3556 C.3       1 RES1    0.0000
     19 H5         2.0120   10.4668    5.0366 H         1 RES1    0.0000
     20 H6         1.8109    9.2534    6.0616 H         1 RES1    0.0000
     21 C9         0.1523   10.4858    5.9442 C.3       1 RES1    0.0000
     22 H7         0.4420   11.0842    6.6774 H         1 RES1    0.0000
     23 H8        -0.2746   11.0426    5.2457 H         1 RES1    0.0000
     24 N3        -0.8421    9.5085    6.4713 N.4       1 RES1    1.0000
     25 H9        -1.5548    9.9567    6.8156 H         1 RES1    0.0000
     26 H10       -0.4562    9.0051    7.1247 H         1 RES1    0.0000
     27 H11       -1.1219    8.9665    5.7956 H         1 RES1    0.0000
@<TRIPOS>BOND
     1    1    2 1
     2    2    3 ar
     3    3    4 1
     4    5    3 ar
     5    6    5 1
     6    7    5 ar
     7    8    7 1
     8    9    8 2
     9   10    8 2
    10   11    7 ar
    11   12   11 1
    12   13    2 ar
    13   14   13 1
    14   15   14 2
    15   16   14 1
    16   17   16 1
    17   18   16 1
    18   19   18 1
    19   20   18 1
    20   21   18 1
    21   22   21 1
    22   23   21 1
    23   24   21 1
    24   25   24 1
    25   26   24 1
    26   27   24 1
    27   11   13 ar
@<TRIPOS>SUBSTRUCTURE
     1 RES1 1

@<TRIPOS>CRYSIN
  15.5904    9.6611   13.7196  90.0000 112.5500  90.0000  15 1

