# MOL2 file generated by ConQuest
# Please check atom types

@<TRIPOS>MOLECULE
WUHDEI
    29    24     2
SMALL
NO_CHARGES
****
Generated from CSD

@<TRIPOS>ATOM
      1 O1         8.1900    5.1599    2.1395 O.3       1 RES1    0.0000
      2 H1         8.4332    5.5901    2.9374 H         1 RES1    0.0000
      3 N1         6.2714    7.3740    0.0673 N.3       1 RES1    0.0000
      4 H2         6.4023    8.1320    0.5388 H         1 RES1    0.0000
      5 C1         7.4955    6.5716    0.2526 C.3       1 RES1    0.0000
      6 O2         5.4694    5.2273    2.7882 O.2       1 RES1    0.0000
      7 N2         7.2555    6.0416    1.6070 N.am      1 RES1    0.0000
      8 C2         5.9510    5.8812    1.8802 C.2       1 RES1    0.0000
      9 C3         5.2155    6.6769    0.8236 C.3       1 RES1    0.0000
     10 H3         4.6190    7.2984    1.2263 H         1 RES1    0.0000
     11 H4         4.7549    6.0641    0.2433 H         1 RES1    0.0000
     12 C4         7.6443    5.4437   -0.7931 C.3       1 RES1    0.0000
     13 H5         7.8986    4.6241   -0.3064 H         1 RES1    0.0000
     14 H6         6.7438    5.3003   -1.2723 H         1 RES1    0.0000
     15 C5         8.7687    7.4110    0.1299 C.3       1 RES1    0.0000
     16 H7         9.1023    7.6204    0.9911 H         1 RES1    0.0000
     17 H8         8.4779    8.3806   -0.2343 H         1 RES1    0.0000
     18 C6         9.7133    6.6777   -0.7371 C.3       1 RES1    0.0000
     19 H9        10.2211    6.0247   -0.2307 H         1 RES1    0.0000
     20 H10       10.3270    7.2841   -1.1804 H         1 RES1    0.0000
     21 C7         8.7856    5.9988   -1.7408 C.3       1 RES1    0.0000
     22 H11        9.2362    5.2806   -2.2112 H         1 RES1    0.0000
     23 H12        8.4334    6.6338   -2.3842 H         1 RES1    0.0000
     24 C8         9.1935    7.0068   -1.3344 Du        2 SUP2    0.0000
     25 H13        8.7322    7.5587   -1.9859 Du        2 SUP2    0.0000
     26 H14       10.1494    7.1204   -1.4543 Du        2 SUP2    0.0000
     27 C9         8.7976    5.5140   -1.5101 Du        2 SUP2    0.0000
     28 H15        8.6483    5.2940   -2.4427 Du        2 SUP2    0.0000
     29 H16        9.4762    4.9228   -1.1470 Du        2 SUP2    0.0000
@<TRIPOS>BOND
     1    1    2 1
     2    3    4 1
     3    5    3 1
     4    6    8 2
     5    7    1 1
     6    8    7 1
     7    9    3 1
     8   10    9 1
     9   11    9 1
    10   12    5 1
    11   13   12 1
    12   14   12 1
    13   15    5 1
    14   16   15 1
    15   17   15 1
    16   18   15 1
    17   19   18 1
    18   20   18 1
    19   21   12 1
    20   22   21 1
    21   23   21 1
    22    5    7 1
    23    8    9 1
    24   18   21 1
@<TRIPOS>SUBSTRUCTURE
     1 RES1 1
     2 SUP2 24

@<TRIPOS>CRYSIN
   9.9380    8.9441   10.1240  90.0000 117.1260  90.0000 231 1

