# MOL2 file generated by ConQuest
# Please check atom types

@<TRIPOS>MOLECULE
WUHNOC
   180   186     6
SMALL
NO_CHARGES
****
Generated from CSD

@<TRIPOS>ATOM
      1 N1         4.2163   16.5463   -6.6460 N.2       1 RES1    0.0000
      2 O1         4.3459   15.1715   -6.5287 O.3       1 RES1    0.0000
      3 H1         4.1804   14.9335   -5.7626 H         1 RES1    0.0000
      4 O2         5.2642   19.0222   -7.7322 O.3       1 RES1    0.0000
      5 H2         5.5293   18.7219   -7.0175 H         1 RES1    0.0000
      6 C1         2.9545   19.1763   -7.0939 C.3       1 RES1    0.0000
      7 H3         2.9292   20.1172   -7.2823 H         1 RES1    0.0000
      8 H4         3.2306   19.0383   -6.1856 H         1 RES1    0.0000
      9 H5         2.0811   18.8007   -7.2237 H         1 RES1    0.0000
     10 C2         3.6739   18.7509   -9.4775 C.3       1 RES1    0.0000
     11 H6         3.5989   19.6808   -9.7015 H         1 RES1    0.0000
     12 C3         3.9178   18.4676   -8.0626 C.3       1 RES1    0.0000
     13 C4         4.0008   16.9679   -7.8049 C.2       1 RES1    0.0000
     14 C5         3.9101   16.0608   -8.9940 C.3       1 RES1    0.0000
     15 H7         4.7199   15.5484   -9.0545 H         1 RES1    0.0000
     16 H8         3.1833   15.4505   -8.8483 H         1 RES1    0.0000
     17 C6         3.6462   16.8166  -10.3111 C.3       1 RES1    0.0000
     18 H9         3.5580   16.2726  -11.0968 H         1 RES1    0.0000
     19 C7         2.5410   17.8303  -10.0694 C.3       1 RES1    0.0000
     20 C8         4.6198   18.0122  -10.3733 C.3       1 RES1    0.0000
     21 H10        5.4776   17.8312   -9.9823 H         1 RES1    0.0000
     22 H11        4.7125   18.3693  -11.2603 H         1 RES1    0.0000
     23 C9         2.0189   18.4788  -11.4629 C.3       1 RES1    0.0000
     24 H12        1.3019   17.9613  -11.8362 H         1 RES1    0.0000
     25 H13        2.7553   18.4981  -12.0779 H         1 RES1    0.0000
     26 H14        1.7164   19.3750  -11.2976 H         1 RES1    0.0000
     27 C10        1.3050   17.3938   -9.2857 C.3       1 RES1    0.0000
     28 H15        1.5304   16.9866   -8.4448 H         1 RES1    0.0000
     29 H16        0.8120   16.7688   -9.8223 H         1 RES1    0.0000
     30 H17        0.7674   18.1735   -9.1291 H         1 RES1    0.0000
     31 N2         5.0927   14.2121   -0.9831 N.2       2 RES2    0.0000
     32 O3         4.9439   14.7540   -3.8196 O.3       2 RES2    0.0000
     33 H18        5.2894   15.4486   -3.5567 H         2 RES2    0.0000
     34 O4         5.5498   13.3302    0.0494 O.3       2 RES2    0.0000
     35 H19        6.2640   13.6031    0.3466 H         2 RES2    0.0000
     36 C11        3.1511   15.7249   -2.5951 C.3       2 RES2    0.0000
     37 H20        2.8370   16.1772   -3.3825 H         2 RES2    0.0000
     38 H21        3.7717   16.2904   -2.1294 H         2 RES2    0.0000
     39 H22        2.4076   15.5254   -2.0228 H         2 RES2    0.0000
     40 C12        2.9371   13.5723   -3.8358 C.3       2 RES2    0.0000
     41 H23        2.5431   14.0191   -4.5894 H         2 RES2    0.0000
     42 C13        3.8274   14.4351   -3.0057 C.3       2 RES2    0.0000
     43 C14        4.3476   13.6138   -1.8201 C.2       2 RES2    0.0000
     44 C15        4.0172   12.1744   -1.6957 C.3       2 RES2    0.0000
     45 H24        4.8074   11.6299   -1.7206 H         2 RES2    0.0000
     46 H25        3.5870   12.0349   -0.8479 H         2 RES2    0.0000
     47 C16        3.0768   11.7443   -2.8120 C.3       2 RES2    0.0000
     48 H26        2.8060   10.8234   -2.7942 H         2 RES2    0.0000
     49 C17        3.6387   12.2526   -4.1717 C.3       2 RES2    0.0000
     50 H27        4.5964   12.3024   -4.2144 H         2 RES2    0.0000
     51 H28        3.2738   11.8006   -4.9361 H         2 RES2    0.0000
     52 C18        1.8969   12.7526   -2.9506 C.3       2 RES2    0.0000
     53 C19        0.8192   12.1685   -3.8678 C.3       2 RES2    0.0000
     54 H29        0.1795   11.6610   -3.3630 H         2 RES2    0.0000
     55 H30        1.2467   11.5962   -4.5095 H         2 RES2    0.0000
     56 H31        0.3709   12.8830   -4.3264 H         2 RES2    0.0000
     57 C20        1.2682   13.2519   -1.6946 C.3       2 RES2    0.0000
     58 H32        0.6820   12.5836   -1.3331 H         2 RES2    0.0000
     59 H33        0.7647   14.0454   -1.8930 H         2 RES2    0.0000
     60 H34        1.9518   13.4584   -1.0523 H         2 RES2    0.0000
     61 N3         6.3140   16.9496   -2.4561 N.2       3 RES3    0.0000
     62 O5         5.4575   18.4824   -4.9348 O.3       3 RES3    0.0000
     63 H35        5.2179   17.7373   -5.1796 H         3 RES3    0.0000
     64 O6         6.1065   16.8435   -1.0748 O.3       3 RES3    0.0000
     65 H36        5.7897   16.1068   -0.9012 H         3 RES3    0.0000
     66 C21        7.5652   17.3517   -4.9912 C.3       3 RES3    0.0000
     67 H37        7.1607   16.4907   -4.8596 H         3 RES3    0.0000
     68 H38        8.4574   17.3439   -4.6357 H         3 RES3    0.0000
     69 H39        7.5953   17.5512   -5.9297 H         3 RES3    0.0000
     70 C22        7.3493   19.8156   -4.4312 C.3       3 RES3    0.0000
     71 H40        7.5840   20.0248   -5.3378 H         3 RES3    0.0000
     72 C23        6.7431   18.3958   -4.2837 C.3       3 RES3    0.0000
     73 C24        6.5465   18.1566   -2.7835 C.2       3 RES3    0.0000
     74 C25        6.6494   19.3176   -1.8166 C.3       3 RES3    0.0000
     75 H41        5.8120   19.4998   -1.3829 H         3 RES3    0.0000
     76 H42        7.2910   19.0748   -1.1447 H         3 RES3    0.0000
     77 C26        7.2121   20.5480   -2.4885 C.3       3 RES3    0.0000
     78 H43        7.3388   21.3154   -1.9250 H         3 RES3    0.0000
     79 C27        8.4608   20.1697   -3.4092 C.3       3 RES3    0.0000
     80 C28        6.4215   20.8804   -3.8145 C.3       3 RES3    0.0000
     81 H44        5.5064   20.5916   -3.7754 H         3 RES3    0.0000
     82 H45        6.5001   21.7785   -4.1451 H         3 RES3    0.0000
     83 C29        9.2721   21.3703   -3.8411 C.3       3 RES3    0.0000
     84 H46       10.0384   21.1187   -4.3619 H         3 RES3    0.0000
     85 H47        9.5590   21.8557   -3.0644 H         3 RES3    0.0000
     86 H48        8.6937   21.9242   -4.3708 H         3 RES3    0.0000
     87 C30        9.4479   19.1456   -2.8676 C.3       3 RES3    0.0000
     88 H49       10.1685   19.0328   -3.4910 H         3 RES3    0.0000
     89 H50        8.9812   18.3134   -2.7640 H         3 RES3    0.0000
     90 H51        9.8004   19.4220   -2.0174 H         3 RES3    0.0000
     91 N4         8.1454   13.9449    4.6454 N.2       4 RES4    0.0000
     92 O7         7.9834   14.3473    6.0056 O.3       4 RES4    0.0000
     93 H52        7.9564   13.6829    6.4860 H         4 RES4    0.0000
     94 O8         7.2483   14.0496    1.9268 O.3       4 RES4    0.0000
     95 H53        7.2766   13.2301    1.9357 H         4 RES4    0.0000
     96 C31        9.6212   13.5434    2.1205 C.3       4 RES4    0.0000
     97 H54        9.6719   13.3907    1.1731 H         4 RES4    0.0000
     98 H55        9.4062   12.7206    2.5667 H         4 RES4    0.0000
     99 H56       10.4668   13.8688    2.4369 H         4 RES4    0.0000
    100 C32        8.7543   15.8310    1.6513 C.3       4 RES4    0.0000
    101 H57        8.8815   15.6721    0.7128 H         4 RES4    0.0000
    102 C33        8.5190   14.5802    2.4245 C.3       4 RES4    0.0000
    103 C34        8.3588   14.8863    3.8749 C.2       4 RES4    0.0000
    104 C35        8.4083   16.3755    4.3317 C.3       4 RES4    0.0000
    105 H58        7.5994   16.6104    4.7921 H         4 RES4    0.0000
    106 H59        9.1431   16.4844    4.9414 H         4 RES4    0.0000
    107 C36        8.6530   17.3052    3.1639 C.3       4 RES4    0.0000
    108 H60        8.6549   18.2487    3.3399 H         4 RES4    0.0000
    109 C37        9.7778   16.8175    2.2876 C.3       4 RES4    0.0000
    110 C38        7.6513   16.8448    1.9997 C.3       4 RES4    0.0000
    111 H61        6.8301   16.4702    2.3267 H         4 RES4    0.0000
    112 H62        7.4928   17.4887    1.3064 H         4 RES4    0.0000
    113 C39       10.1867   17.9004    1.2513 C.3       4 RES4    0.0000
    114 H63       10.7989   18.5227    1.6513 H         4 RES4    0.0000
    115 H64        9.3972   18.3675    0.9652 H         4 RES4    0.0000
    116 H65       10.6028   17.4841    0.4924 H         4 RES4    0.0000
    117 C40       10.9803   16.2581    2.9984 C.3       4 RES4    0.0000
    118 H66       10.7326   15.5871    3.6385 H         4 RES4    0.0000
    119 H67       11.4418   16.9715    3.4447 H         4 RES4    0.0000
    120 H68       11.5552   15.8706    2.3356 H         4 RES4    0.0000
    121 N5         6.3003    9.8314    5.7020 N.2       5 RES5    0.0000
    122 O9         7.0551   11.5744    3.4135 O.3       5 RES5    0.0000
    123 H69        7.2743   12.0986    4.0047 H         5 RES5    0.0000
    124 O10        6.5020    8.6199    6.3900 O.3       5 RES5    0.0000
    125 H70        6.8963    8.7654    7.0939 H         5 RES5    0.0000
    126 C41        4.9011   12.0137    4.4863 C.3       5 RES5    0.0000
    127 H71        5.2733   12.2443    5.3413 H         5 RES5    0.0000
    128 H72        4.0315   11.6266    4.6108 H         5 RES5    0.0000
    129 H73        4.8268   12.8025    3.9460 H         5 RES5    0.0000
    130 C42        5.1725   10.6146    2.3516 C.3       5 RES5    0.0000
    131 H74        4.9442   11.3648    1.7970 H         5 RES5    0.0000
    132 C43        5.7807   10.9783    3.7167 C.3       5 RES5    0.0000
    133 C44        6.0169    9.7304    4.5059 C.2       5 RES5    0.0000
    134 C45        5.8637    8.3540    3.8251 C.3       5 RES5    0.0000
    135 H75        6.7069    7.8937    3.8162 H         5 RES5    0.0000
    136 H76        5.2389    7.8353    4.3370 H         5 RES5    0.0000
    137 C46        5.2850    8.5266    2.4085 C.3       5 RES5    0.0000
    138 H77        5.1679    7.7175    1.9055 H         5 RES5    0.0000
    139 C47        4.1013    9.5187    2.3907 C.3       5 RES5    0.0000
    140 C48        6.1074    9.5765    1.6850 C.3       5 RES5    0.0000
    141 H78        7.0200    9.6421    1.9783 H         5 RES5    0.0000
    142 H79        6.0525    9.5417    0.7270 H         5 RES5    0.0000
    143 C49        3.2812    9.4249    1.1482 C.3       5 RES5    0.0000
    144 H80        2.6348    8.7189    1.2265 H         5 RES5    0.0000
    145 H81        3.8616    9.2454    0.4053 H         5 RES5    0.0000
    146 H82        2.8277   10.2590    1.0061 H         5 RES5    0.0000
    147 C50        3.0612    9.3667    3.5439 C.3       5 RES5    0.0000
    148 H83        2.5067    8.6022    3.3701 H         5 RES5    0.0000
    149 H84        2.5138   10.1531    3.5976 H         5 RES5    0.0000
    150 H85        3.5261    9.2418    4.3744 H         5 RES5    0.0000
    151 N6         7.4582    9.6067    8.8554 N.2       6 RES6    0.0000
    152 O11        7.6166   11.8995    7.1698 O.3       6 RES6    0.0000
    153 H86        7.1295   11.2998    6.8948 H         6 RES6    0.0000
    154 O12        6.9392    9.0402   10.0792 O.3       6 RES6    0.0000
    155 H87        6.2777    8.5862    9.9077 H         6 RES6    0.0000
    156 C51        9.4992   10.3798    7.0068 C.3       6 RES6    0.0000
    157 H88        8.9243    9.6566    6.7437 H         6 RES6    0.0000
    158 H89       10.2649   10.0275    7.4654 H         6 RES6    0.0000
    159 H90        9.7868   10.8603    6.2265 H         6 RES6    0.0000
    160 C52        9.5862   12.5326    8.3577 C.3       6 RES6    0.0000
    161 H91       10.0510   12.9894    7.6520 H         6 RES6    0.0000
    162 C53        8.7077   11.3314    7.8796 C.3       6 RES6    0.0000
    163 C54        8.1331   10.6349    9.1273 C.2       6 RES6    0.0000
    164 C55        8.2989   11.2815   10.4729 C.3       6 RES6    0.0000
    165 H92        7.4317   11.5372   10.7964 H         6 RES6    0.0000
    166 H93        8.6601   10.6408   11.0915 H         6 RES6    0.0000
    167 C56        9.1546   12.4890   10.4285 C.3       6 RES6    0.0000
    168 H94        9.2754   12.9265   11.2745 H         6 RES6    0.0000
    169 C57       10.4647   12.1804    9.6019 C.3       6 RES6    0.0000
    170 C58        8.7020   13.4059    9.2518 C.3       6 RES6    0.0000
    171 H95        7.7677   13.3840    9.0331 H         6 RES6    0.0000
    172 H96        9.0219   14.3087    9.3229 H         6 RES6    0.0000
    173 C59       11.1647   10.8773    9.7903 C.3       6 RES6    0.0000
    174 H97       11.9418   10.8242    9.2287 H         6 RES6    0.0000
    175 H98       10.5654   10.1591    9.5770 H         6 RES6    0.0000
    176 H99       11.4300   10.8095   10.7111 H         6 RES6    0.0000
    177 C60       11.5259   13.3201    9.7459 C.3       6 RES6    0.0000
    178 H100      12.2989   13.0951    9.2233 H         6 RES6    0.0000
    179 H101      11.7790   13.4099   10.6684 H         6 RES6    0.0000
    180 H102      11.1576   14.1500    9.4331 H         6 RES6    0.0000
@<TRIPOS>BOND
     1    1    2 1
     2    2    3 1
     3    4    5 1
     4    6    7 1
     5    8    6 1
     6    9    6 1
     7   10   11 1
     8   12    4 1
     9   13    1 2
    10   14   13 1
    11   15   14 1
    12   16   14 1
    13   17   14 1
    14   18   17 1
    15   19   10 1
    16   20   10 1
    17   21   20 1
    18   22   20 1
    19   23   19 1
    20   24   23 1
    21   25   23 1
    22   26   23 1
    23   27   19 1
    24   28   27 1
    25   29   27 1
    26   30   27 1
    27   31   34 1
    28   32   33 1
    29   34   35 1
    30   36   37 1
    31   38   36 1
    32   39   36 1
    33   40   41 1
    34   42   32 1
    35   43   31 2
    36   44   43 1
    37   45   44 1
    38   46   44 1
    39   47   44 1
    40   48   47 1
    41   49   40 1
    42   50   49 1
    43   51   49 1
    44   52   40 1
    45   53   52 1
    46   54   53 1
    47   55   53 1
    48   56   53 1
    49   57   52 1
    50   58   57 1
    51   59   57 1
    52   60   57 1
    53   61   64 1
    54   62   63 1
    55   64   65 1
    56   66   67 1
    57   68   66 1
    58   69   66 1
    59   70   71 1
    60   72   62 1
    61   73   61 2
    62   74   73 1
    63   75   74 1
    64   76   74 1
    65   77   74 1
    66   78   77 1
    67   79   70 1
    68   80   70 1
    69   81   80 1
    70   82   80 1
    71   83   79 1
    72   84   83 1
    73   85   83 1
    74   86   83 1
    75   87   79 1
    76   88   87 1
    77   89   87 1
    78   90   87 1
    79   91   92 1
    80   92   93 1
    81   94   95 1
    82   96   97 1
    83   98   96 1
    84   99   96 1
    85  100  101 1
    86  102   94 1
    87  103   91 2
    88  104  103 1
    89  105  104 1
    90  106  104 1
    91  107  104 1
    92  108  107 1
    93  109  100 1
    94  110  100 1
    95  111  110 1
    96  112  110 1
    97  113  109 1
    98  114  113 1
    99  115  113 1
   100  116  113 1
   101  117  109 1
   102  118  117 1
   103  119  117 1
   104  120  117 1
   105  121  124 1
   106  122  123 1
   107  124  125 1
   108  126  127 1
   109  128  126 1
   110  129  126 1
   111  130  131 1
   112  132  122 1
   113  133  121 2
   114  134  133 1
   115  135  134 1
   116  136  134 1
   117  137  134 1
   118  138  137 1
   119  139  130 1
   120  140  130 1
   121  141  140 1
   122  142  140 1
   123  143  139 1
   124  144  143 1
   125  145  143 1
   126  146  143 1
   127  147  139 1
   128  148  147 1
   129  149  147 1
   130  150  147 1
   131  151  154 1
   132  152  153 1
   133  154  155 1
   134  156  157 1
   135  158  156 1
   136  159  156 1
   137  160  161 1
   138  162  152 1
   139  163  151 2
   140  164  163 1
   141  165  164 1
   142  166  164 1
   143  167  164 1
   144  168  167 1
   145  169  160 1
   146  170  160 1
   147  171  170 1
   148  172  170 1
   149  173  169 1
   150  174  173 1
   151  175  173 1
   152  176  173 1
   153  177  169 1
   154  178  177 1
   155  179  177 1
   156  180  177 1
   157    6   12 1
   158   10   12 1
   159   12   13 1
   160   17   19 1
   161   17   20 1
   162   36   42 1
   163   40   42 1
   164   42   43 1
   165   47   49 1
   166   47   52 1
   167   66   72 1
   168   70   72 1
   169   72   73 1
   170   77   79 1
   171   77   80 1
   172   96  102 1
   173  100  102 1
   174  102  103 1
   175  107  109 1
   176  107  110 1
   177  126  132 1
   178  130  132 1
   179  132  133 1
   180  137  139 1
   181  137  140 1
   182  156  162 1
   183  160  162 1
   184  162  163 1
   185  167  169 1
   186  167  170 1
@<TRIPOS>SUBSTRUCTURE
     1 RES1 1
     2 RES2 31
     3 RES3 61
     4 RES4 91
     5 RES5 121
     6 RES6 151

@<TRIPOS>CRYSIN
   7.2110   12.9170   17.9710  87.1500  81.6400  79.7000   1 1

