# MOL2 file generated by ConQuest
# Please check atom types

@<TRIPOS>MOLECULE
WUHNOC01
   180   186     6
SMALL
NO_CHARGES
****
Generated from CSD

@<TRIPOS>ATOM
      1 O1         6.7055   -1.7667   26.8883 O.3       1 RES1    0.0000
      2 H1         6.2101   -2.2905   26.4982 H         1 RES1    0.0000
      3 O2         6.1590   -0.3431   22.9959 O.3       1 RES1    0.0000
      4 H2         5.5598   -0.6984   22.5629 H         1 RES1    0.0000
      5 N1         6.5868   -1.2172   24.0069 N.2       1 RES1    0.0000
      6 C1         8.7428   -0.5610   26.8711 C.3       1 RES1    0.0000
      7 H3         9.1424   -1.0111   27.6446 H         1 RES1    0.0000
      8 C2         7.8330   -1.4395   26.0359 C.3       1 RES1    0.0000
      9 C3         7.3144   -0.6216   24.8606 C.2       1 RES1    0.0000
     10 C4         7.6499    0.8518   24.7638 C.3       1 RES1    0.0000
     11 H4         8.0615    1.0312   23.9031 H         1 RES1    0.0000
     12 H5         6.8328    1.3710   24.8185 H         1 RES1    0.0000
     13 C5         8.5906    1.2765   25.8684 C.3       1 RES1    0.0000
     14 H6         8.8457    2.2228   25.8601 H         1 RES1    0.0000
     15 C6         9.7531    0.2840   26.0167 C.3       1 RES1    0.0000
     16 C7         8.0309    0.7578   27.2015 C.3       1 RES1    0.0000
     17 H7         8.3785    1.2138   27.9841 H         1 RES1    0.0000
     18 H8         7.0633    0.6936   27.2305 H         1 RES1    0.0000
     19 C8        10.8801    0.8075   26.9017 C.3       1 RES1    0.0000
     20 H9        11.4107    0.0710   27.2127 H         1 RES1    0.0000
     21 H10       10.5061    1.2729   27.6535 H         1 RES1    0.0000
     22 H11       11.4318    1.4080   26.3951 H         1 RES1    0.0000
     23 C9        10.3836   -0.2666   24.7618 C.3       1 RES1    0.0000
     24 H12       10.8156    0.4440   24.2817 H         1 RES1    0.0000
     25 H13        9.7046   -0.6596   24.2088 H         1 RES1    0.0000
     26 H14       11.0316   -0.9350   24.9963 H         1 RES1    0.0000
     27 C10        8.5118   -2.7294   25.6383 C.3       1 RES1    0.0000
     28 H15        8.7217   -3.2364   26.4253 H         1 RES1    0.0000
     29 H16        9.3194   -2.5315   25.1598 H         1 RES1    0.0000
     30 H17        7.9241   -3.2397   25.0762 H         1 RES1    0.0000
     31 O3         6.2080   -5.5082   27.9692 O.3       2 RES2    0.0000
     32 H18        6.3865   -4.7893   28.3219 H         2 RES2    0.0000
     33 O4         5.5707   -3.8473   24.1089 O.3       2 RES2    0.0000
     34 H19        5.8876   -3.1105   23.9387 H         2 RES2    0.0000
     35 N2         5.3918   -3.9720   25.5010 N.2       2 RES2    0.0000
     36 C11        4.3157   -6.8173   27.5110 C.3       2 RES2    0.0000
     37 H20        4.0665   -7.0410   28.4321 H         2 RES2    0.0000
     38 C12        4.9118   -5.4260   27.3357 C.3       2 RES2    0.0000
     39 C13        5.1271   -5.1770   25.8496 C.2       2 RES2    0.0000
     40 C14        5.0151   -6.3212   24.8709 C.3       2 RES2    0.0000
     41 H21        5.8914   -6.5225   24.5075 H         2 RES2    0.0000
     42 H22        4.4367   -6.0623   24.1360 H         2 RES2    0.0000
     43 C15        4.4525   -7.5588   25.5437 C.3       2 RES2    0.0000
     44 H23        4.3190   -8.3319   24.9554 H         2 RES2    0.0000
     45 C16        3.2385   -7.1878   26.4358 C.3       2 RES2    0.0000
     46 C17        5.2317   -7.8434   26.8292 C.3       2 RES2    0.0000
     47 H24        6.1650   -7.5809   26.7933 H         2 RES2    0.0000
     48 H25        5.1320   -8.7485   27.1630 H         2 RES2    0.0000
     49 C18        2.4451   -8.4175   26.8643 C.3       2 RES2    0.0000
     50 H26        1.8568   -8.1831   27.5860 H         2 RES2    0.0000
     51 H27        3.0511   -9.1036   27.1559 H         2 RES2    0.0000
     52 H28        1.9291   -8.7403   26.1214 H         2 RES2    0.0000
     53 C19        2.2502   -6.1645   25.8956 C.3       2 RES2    0.0000
     54 H29        1.7736   -6.5406   25.1527 H         2 RES2    0.0000
     55 H30        2.7252   -5.3816   25.6077 H         2 RES2    0.0000
     56 H31        1.6275   -5.9257   26.5871 H         2 RES2    0.0000
     57 C20        4.1007   -4.3425   28.0254 C.3       2 RES2    0.0000
     58 H32        4.1296   -4.4764   28.9760 H         2 RES2    0.0000
     59 H33        3.1901   -4.3832   27.7229 H         2 RES2    0.0000
     60 H34        4.4707   -3.4827   27.8135 H         2 RES2    0.0000
     61 O5         6.3981   -6.0212   30.8046 O.3       3 RES3    0.0000
     62 H35        6.2053   -5.8943   30.0175 H         3 RES3    0.0000
     63 O6         7.3121   -2.1764   29.5899 O.3       3 RES3    0.0000
     64 H36        7.3469   -1.9451   28.8035 H         3 RES3    0.0000
     65 N3         7.4431   -3.5749   29.6738 N.2       3 RES3    0.0000
     66 C21        7.9878   -5.7587   32.5312 C.3       3 RES3    0.0000
     67 H37        8.0589   -6.7098   32.7566 H         3 RES3    0.0000
     68 C22        7.7196   -5.4824   31.0723 C.3       3 RES3    0.0000
     69 C23        7.6447   -3.9774   30.8615 C.2       3 RES3    0.0000
     70 C24        7.7564   -3.0582   32.0549 C.3       3 RES3    0.0000
     71 H38        6.9318   -2.5570   32.1505 H         3 RES3    0.0000
     72 H39        8.4748   -2.4246   31.9034 H         3 RES3    0.0000
     73 C25        8.0261   -3.8225   33.3362 C.3       3 RES3    0.0000
     74 H40        8.1026   -3.2754   34.1466 H         3 RES3    0.0000
     75 C26        9.1232   -4.8605   33.1389 C.3       3 RES3    0.0000
     76 C27        7.0155   -4.9721   33.4070 C.3       3 RES3    0.0000
     77 H41        6.8934   -5.3404   34.2959 H         3 RES3    0.0000
     78 H42        6.1644   -4.7804   32.9841 H         3 RES3    0.0000
     79 C28        9.6147   -5.4503   34.4789 C.3       3 RES3    0.0000
     80 H43       10.0775   -4.7724   34.9766 H         3 RES3    0.0000
     81 H44       10.2104   -6.1836   34.3065 H         3 RES3    0.0000
     82 H45        8.8625   -5.7620   34.9855 H         3 RES3    0.0000
     83 C29       10.3441   -4.4371   32.3158 C.3       3 RES3    0.0000
     84 H46       10.0524   -4.0431   31.4910 H         3 RES3    0.0000
     85 H47       10.8866   -5.2065   32.1291 H         3 RES3    0.0000
     86 H48       10.8578   -3.7961   32.8135 H         3 RES3    0.0000
     87 C30        8.6978   -6.1786   30.1482 C.3       3 RES3    0.0000
     88 H49        8.5847   -7.1297   30.2202 H         3 RES3    0.0000
     89 H50        9.5948   -5.9434   30.3961 H         3 RES3    0.0000
     90 H51        8.5336   -5.9049   29.2426 H         3 RES3    0.0000
     91 O7         4.4235   -1.0601   21.1068 O.3       4 RES4    0.0000
     92 H52        4.5447   -0.3195   20.7784 H         4 RES4    0.0000
     93 O8         3.7322   -1.3685   17.0644 O.3       4 RES4    0.0000
     94 H53        3.8029   -0.7111   16.5800 H         4 RES4    0.0000
     95 N4         3.5149   -0.9572   18.3754 N.2       4 RES4    0.0000
     96 C31        2.9573   -2.8786   21.4156 C.3       4 RES4    0.0000
     97 H54        2.8466   -2.7526   22.3816 H         4 RES4    0.0000
     98 C32        3.1740   -1.5901   20.6440 C.3       4 RES4    0.0000
     99 C33        3.3283   -1.9286   19.1696 C.2       4 RES4    0.0000
    100 C34        3.2959   -3.3670   18.7361 C.3       4 RES4    0.0000
    101 H55        4.1393   -3.5926   18.3130 H         4 RES4    0.0000
    102 H56        2.5911   -3.4878   18.0802 H         4 RES4    0.0000
    103 C35        3.0575   -4.3020   19.9087 C.3       4 RES4    0.0000
    104 H57        3.0534   -5.2566   19.6906 H         4 RES4    0.0000
    105 C36        1.9133   -3.8310   20.7801 C.3       4 RES4    0.0000
    106 C37        4.0273   -3.8829   21.0432 C.3       4 RES4    0.0000
    107 H58        4.1840   -4.5684   21.7115 H         4 RES4    0.0000
    108 H59        4.8584   -3.4886   20.7357 H         4 RES4    0.0000
    109 C38        1.4911   -4.9187   21.7986 C.3       4 RES4    0.0000
    110 H60        0.8512   -4.5508   22.4118 H         4 RES4    0.0000
    111 H61        2.2624   -5.2208   22.2821 H         4 RES4    0.0000
    112 H62        1.0968   -5.6594   21.3312 H         4 RES4    0.0000
    113 C39        0.6823   -3.2989   20.0798 C.3       4 RES4    0.0000
    114 H63        0.9465   -2.7072   19.3724 H         4 RES4    0.0000
    115 H64        0.1369   -2.8226   20.7090 H         4 RES4    0.0000
    116 H65        0.1810   -4.0321   19.7119 H         4 RES4    0.0000
    117 C40        2.1052   -0.5403   20.9046 C.3       4 RES4    0.0000
    118 H66        2.0615   -0.3538   21.8448 H         4 RES4    0.0000
    119 H67        1.2546   -0.8672   20.6024 H         4 RES4    0.0000
    120 H68        2.3254    0.2646   20.4300 H         4 RES4    0.0000
    121 O9         4.6186    1.4287   19.6399 O.3       5 RES5    0.0000
    122 H69        4.3905    0.9293   19.0311 H         5 RES5    0.0000
    123 O10        5.1876    4.3920   16.6710 O.3       5 RES5    0.0000
    124 H70        4.9250    4.2669   15.9046 H         5 RES5    0.0000
    125 N5         5.3938    3.1545   17.3029 N.2       5 RES5    0.0000
    126 C41        6.4994    2.3834   20.7010 C.3       5 RES5    0.0000
    127 H71        6.7384    1.6216   21.2689 H         5 RES5    0.0000
    128 C42        5.9141    2.0018   19.3351 C.3       5 RES5    0.0000
    129 C43        5.6874    3.2949   18.5420 C.2       5 RES5    0.0000
    130 C44        5.8111    4.6262   19.2197 C.3       5 RES5    0.0000
    131 H72        4.9382    5.0459   19.2658 H         5 RES5    0.0000
    132 H73        6.3930    5.1996   18.6970 H         5 RES5    0.0000
    133 C45        6.3772    4.4783   20.6262 C.3       5 RES5    0.0000
    134 H74        6.5064    5.3163   21.1161 H         5 RES5    0.0000
    135 C46        7.5789    3.5130   20.6392 C.3       5 RES5    0.0000
    136 C47        5.5711    3.4052   21.3630 C.3       5 RES5    0.0000
    137 H75        4.6450    3.3409   21.0823 H         5 RES5    0.0000
    138 H76        5.6470    3.4447   22.3283 H         5 RES5    0.0000
    139 C48        8.3800    3.5904   21.9490 C.3       5 RES5    0.0000
    140 H77        8.9907    2.8510   21.9941 H         5 RES5    0.0000
    141 H78        7.7770    3.5531   22.6945 H         5 RES5    0.0000
    142 H79        8.8721    4.4142   21.9764 H         5 RES5    0.0000
    143 C49        8.5831    3.6153   19.4956 C.3       5 RES5    0.0000
    144 H80        9.0826    4.4317   19.5804 H         5 RES5    0.0000
    145 H81        8.1151    3.6121   18.6579 H         5 RES5    0.0000
    146 H82        9.1836    2.8680   19.5288 H         5 RES5    0.0000
    147 C50        6.7367    0.9717   18.5925 C.3       5 RES5    0.0000
    148 H83        6.7702    0.1601   19.1040 H         5 RES5    0.0000
    149 H84        7.6274    1.3057   18.4641 H         5 RES5    0.0000
    150 H85        6.3340    0.7964   17.7389 H         5 RES5    0.0000
    151 O11        4.0749    1.0721   15.9105 O.3       6 RES6    0.0000
    152 H86        4.5059    1.6704   16.2690 H         6 RES6    0.0000
    153 O12        4.7684    3.9152   12.9624 O.3       6 RES6    0.0000
    154 H87        5.2257    4.5752   13.1318 H         6 RES6    0.0000
    155 N6         4.2314    3.4022   14.1522 N.2       6 RES6    0.0000
    156 C51        2.1481    0.4616   14.6904 C.3       6 RES6    0.0000
    157 H88        1.6891   -0.0191   15.4105 H         6 RES6    0.0000
    158 C52        2.9870    1.6501   15.1554 C.3       6 RES6    0.0000
    159 C53        3.5821    2.3270   13.9384 C.2       6 RES6    0.0000
    160 C54        3.4134    1.7040   12.5897 C.3       6 RES6    0.0000
    161 H89        4.2837    1.4574   12.2413 H         6 RES6    0.0000
    162 H90        3.0226    2.3543   11.9853 H         6 RES6    0.0000
    163 C55        2.5307    0.4775   12.6391 C.3       6 RES6    0.0000
    164 H91        2.4000    0.0209   11.7827 H         6 RES6    0.0000
    165 C56        1.2608    0.7507   13.4340 C.3       6 RES6    0.0000
    166 C57        3.0013   -0.4146   13.7939 C.3       6 RES6    0.0000
    167 H92        2.7018   -1.3347   13.7343 H         6 RES6    0.0000
    168 H93        3.9534   -0.3617   13.9761 H         6 RES6    0.0000
    169 C58        0.2044   -0.3486   13.2829 C.3       6 RES6    0.0000
    170 H94       -0.4623   -0.2475   13.9654 H         6 RES6    0.0000
    171 H95        0.6219   -1.2090   13.3682 H         6 RES6    0.0000
    172 H96       -0.2093   -0.2774   12.4190 H         6 RES6    0.0000
    173 C59        0.5649    2.0936   13.2580 C.3       6 RES6    0.0000
    174 H97        0.2662    2.1828   12.3497 H         6 RES6    0.0000
    175 H98        1.1799    2.8011   13.4642 H         6 RES6    0.0000
    176 H99       -0.1894    2.1428   13.8499 H         6 RES6    0.0000
    177 C60        2.2055    2.5835   16.0486 C.3       6 RES6    0.0000
    178 H100       2.0253    2.1490   16.8858 H         6 RES6    0.0000
    179 H101       1.3768    2.8145   15.6220 H         6 RES6    0.0000
    180 H102       2.7180    3.3800   16.2050 H         6 RES6    0.0000
@<TRIPOS>BOND
     1    1    2 1
     2    3    4 1
     3    5    3 1
     4    6    7 1
     5    8    1 1
     6    9    5 2
     7   10    9 1
     8   11   10 1
     9   12   10 1
    10   13   10 1
    11   14   13 1
    12   15    6 1
    13   16    6 1
    14   17   16 1
    15   18   16 1
    16   19   15 1
    17   20   19 1
    18   21   19 1
    19   22   19 1
    20   23   15 1
    21   24   23 1
    22   25   23 1
    23   26   23 1
    24   27    8 1
    25   28   27 1
    26   29   27 1
    27   30   27 1
    28   31   32 1
    29   33   34 1
    30   35   33 1
    31   36   37 1
    32   38   31 1
    33   39   35 2
    34   40   39 1
    35   41   40 1
    36   42   40 1
    37   43   40 1
    38   44   43 1
    39   45   36 1
    40   46   36 1
    41   47   46 1
    42   48   46 1
    43   49   45 1
    44   50   49 1
    45   51   49 1
    46   52   49 1
    47   53   45 1
    48   54   53 1
    49   55   53 1
    50   56   53 1
    51   57   38 1
    52   58   57 1
    53   59   57 1
    54   60   57 1
    55   61   62 1
    56   63   64 1
    57   65   63 1
    58   66   67 1
    59   68   61 1
    60   69   65 2
    61   70   69 1
    62   71   70 1
    63   72   70 1
    64   73   70 1
    65   74   73 1
    66   75   66 1
    67   76   66 1
    68   77   76 1
    69   78   76 1
    70   79   75 1
    71   80   79 1
    72   81   79 1
    73   82   79 1
    74   83   75 1
    75   84   83 1
    76   85   83 1
    77   86   83 1
    78   87   68 1
    79   88   87 1
    80   89   87 1
    81   90   87 1
    82   91   92 1
    83   93   94 1
    84   95   93 1
    85   96   97 1
    86   98   91 1
    87   99   95 2
    88  100   99 1
    89  101  100 1
    90  102  100 1
    91  103  100 1
    92  104  103 1
    93  105   96 1
    94  106   96 1
    95  107  106 1
    96  108  106 1
    97  109  105 1
    98  110  109 1
    99  111  109 1
   100  112  109 1
   101  113  105 1
   102  114  113 1
   103  115  113 1
   104  116  113 1
   105  117   98 1
   106  118  117 1
   107  119  117 1
   108  120  117 1
   109  121  122 1
   110  123  124 1
   111  125  123 1
   112  126  127 1
   113  128  121 1
   114  129  125 2
   115  130  129 1
   116  131  130 1
   117  132  130 1
   118  133  130 1
   119  134  133 1
   120  135  126 1
   121  136  126 1
   122  137  136 1
   123  138  136 1
   124  139  135 1
   125  140  139 1
   126  141  139 1
   127  142  139 1
   128  143  135 1
   129  144  143 1
   130  145  143 1
   131  146  143 1
   132  147  128 1
   133  148  147 1
   134  149  147 1
   135  150  147 1
   136  151  152 1
   137  153  154 1
   138  155  153 1
   139  156  157 1
   140  158  151 1
   141  159  155 2
   142  160  159 1
   143  161  160 1
   144  162  160 1
   145  163  160 1
   146  164  163 1
   147  165  156 1
   148  166  156 1
   149  167  166 1
   150  168  166 1
   151  169  165 1
   152  170  169 1
   153  171  169 1
   154  172  169 1
   155  173  165 1
   156  174  173 1
   157  175  173 1
   158  176  173 1
   159  177  158 1
   160  178  177 1
   161  179  177 1
   162  180  177 1
   163    6    8 1
   164    8    9 1
   165   13   15 1
   166   13   16 1
   167   36   38 1
   168   38   39 1
   169   43   45 1
   170   43   46 1
   171   66   68 1
   172   68   69 1
   173   73   75 1
   174   73   76 1
   175   96   98 1
   176   98   99 1
   177  103  105 1
   178  103  106 1
   179  126  128 1
   180  128  129 1
   181  133  135 1
   182  133  136 1
   183  156  158 1
   184  158  159 1
   185  163  165 1
   186  163  166 1
@<TRIPOS>SUBSTRUCTURE
     1 RES1 1
     2 RES2 31
     3 RES3 61
     4 RES4 91
     5 RES5 121
     6 RES6 151

@<TRIPOS>CRYSIN
   7.1970   12.9280   17.9660  87.1400  81.7500  79.7800   1 1

