# MOL2 file generated by ConQuest
# Please check atom types

@<TRIPOS>MOLECULE
WUHNUI
    60    62     2
SMALL
NO_CHARGES
****
Generated from CSD

@<TRIPOS>ATOM
      1 C1         2.1302    8.8193    1.3556 C.3       1 RES1    0.0000
      2 H1         2.7417    8.5386    2.0408 H         1 RES1    0.0000
      3 C2         1.1424    7.7402    0.9074 C.3       1 RES1    0.0000
      4 O1         1.9262    6.7539    0.1838 O.3       1 RES1    0.0000
      5 H2         1.5025    5.9364    0.1972 H         1 RES1    0.0000
      6 C3         0.1569    8.3760   -0.0813 C.2       1 RES1    0.0000
      7 N1        -0.8976    7.7118   -0.3647 N.2       1 RES1    0.0000
      8 O2        -1.6794    8.3911   -1.3249 O.3       1 RES1    0.0000
      9 H3        -2.5673    8.0285   -1.1345 H         1 RES1    0.0000
     10 C4         0.4488    9.7442   -0.6499 C.3       1 RES1    0.0000
     11 H4        -0.3363   10.2909   -0.5740 H         1 RES1    0.0000
     12 H5         0.6641    9.6598   -1.5816 H         1 RES1    0.0000
     13 C5         1.6018   10.4193    0.0755 C.3       1 RES1    0.0000
     14 H6         1.8045   11.3134   -0.2094 H         1 RES1    0.0000
     15 C6         2.7967    9.4469    0.1083 C.3       1 RES1    0.0000
     16 H7         2.8513    8.8582   -0.6483 H         1 RES1    0.0000
     17 H8         3.6410    9.8678    0.2863 H         1 RES1    0.0000
     18 C7         1.4609   10.2194    1.6148 C.3       1 RES1    0.0000
     19 C8         2.4063   11.1339    2.4006 C.3       1 RES1    0.0000
     20 H9         1.9805   11.9810    2.5500 H         1 RES1    0.0000
     21 H10        2.6187   10.7293    3.2456 H         1 RES1    0.0000
     22 H11        3.2124   11.2653    1.8963 H         1 RES1    0.0000
     23 C9         0.0785   10.3318    2.2452 C.3       1 RES1    0.0000
     24 H12       -0.1638   11.2570    2.3245 H         1 RES1    0.0000
     25 H13       -0.5619    9.8796    1.6910 H         1 RES1    0.0000
     26 H14        0.0890    9.9278    3.1160 H         1 RES1    0.0000
     27 C10        0.4574    7.0554    2.0828 C.3       1 RES1    0.0000
     28 H15        1.1224    6.6792    2.6635 H         1 RES1    0.0000
     29 H16       -0.0631    7.6994    2.5676 H         1 RES1    0.0000
     30 H17       -0.1176    6.3572    1.7599 H         1 RES1    0.0000
     31 C11       -4.0730    9.1275    1.0546 C.3       2 RES2    0.0000
     32 H18       -3.4358    9.7597    0.7158 H         2 RES2    0.0000
     33 C12       -5.0825    8.6329    0.0201 C.3       2 RES2    0.0000
     34 O3        -4.3606    7.8522   -0.9698 O.3       2 RES2    0.0000
     35 H19       -4.6118    6.9049   -0.9374 H         2 RES2    0.0000
     36 C13       -6.1002    7.7351    0.7373 C.2       2 RES2    0.0000
     37 N2        -7.1668    7.4827    0.0893 N.2       2 RES2    0.0000
     38 O4        -8.0212    6.6409    0.8536 O.3       2 RES2    0.0000
     39 H20       -8.8596    6.7627    0.4538 H         2 RES2    0.0000
     40 C14       -5.8123    7.2576    2.1388 C.3       2 RES2    0.0000
     41 H21       -5.6284    6.3161    2.1273 H         2 RES2    0.0000
     42 H22       -6.5893    7.4009    2.6851 H         2 RES2    0.0000
     43 C15       -4.6399    8.0031    2.7502 C.3       2 RES2    0.0000
     44 H23       -4.4401    7.7793    3.6616 H         2 RES2    0.0000
     45 C16       -3.4509    7.9131    1.7756 C.3       2 RES2    0.0000
     46 H24       -2.5970    8.0896    2.1773 H         2 RES2    0.0000
     47 H25       -3.4304    7.1106    1.2507 H         2 RES2    0.0000
     48 C17       -4.7233    9.5233    2.4350 C.3       2 RES2    0.0000
     49 C18       -3.7400   10.3462    3.2703 C.3       2 RES2    0.0000
     50 H26       -4.1362   10.5836    4.1114 H         2 RES2    0.0000
     51 H27       -2.9543    9.8161    3.4253 H         2 RES2    0.0000
     52 H28       -3.4997   11.1430    2.7931 H         2 RES2    0.0000
     53 C19       -6.0971   10.1902    2.5163 C.3       2 RES2    0.0000
     54 H29       -6.3202   10.3532    3.4361 H         2 RES2    0.0000
     55 H30       -6.0766   11.0231    2.0395 H         2 RES2    0.0000
     56 H31       -6.7575    9.6140    2.1246 H         2 RES2    0.0000
     57 C20       -5.7267    9.7711   -0.7583 C.3       2 RES2    0.0000
     58 H32       -5.0469   10.3003   -1.1818 H         2 RES2    0.0000
     59 H33       -6.3108    9.4059   -1.4263 H         2 RES2    0.0000
     60 H34       -6.2329   10.3227   -0.1580 H         2 RES2    0.0000
@<TRIPOS>BOND
     1    1    2 1
     2    3    1 1
     3    4    3 1
     4    5    4 1
     5    6    3 1
     6    7    6 2
     7    8    7 1
     8    9    8 1
     9   10    6 1
    10   11   10 1
    11   12   10 1
    12   13   10 1
    13   14   13 1
    14   15    1 1
    15   16   15 1
    16   17   15 1
    17   18    1 1
    18   19   18 1
    19   20   19 1
    20   21   19 1
    21   22   19 1
    22   23   18 1
    23   24   23 1
    24   25   23 1
    25   26   23 1
    26   27    3 1
    27   28   27 1
    28   29   27 1
    29   30   27 1
    30   31   32 1
    31   33   31 1
    32   34   33 1
    33   35   34 1
    34   36   33 1
    35   37   36 2
    36   38   37 1
    37   39   38 1
    38   40   36 1
    39   41   40 1
    40   42   40 1
    41   43   40 1
    42   44   43 1
    43   45   31 1
    44   46   45 1
    45   47   45 1
    46   48   31 1
    47   49   48 1
    48   50   49 1
    49   51   49 1
    50   52   49 1
    51   53   48 1
    52   54   53 1
    53   55   53 1
    54   56   53 1
    55   57   33 1
    56   58   57 1
    57   59   57 1
    58   60   57 1
    59   13   15 1
    60   13   18 1
    61   43   45 1
    62   43   48 1
@<TRIPOS>SUBSTRUCTURE
     1 RES1 1
     2 RES2 31

@<TRIPOS>CRYSIN
  12.5780   11.7530   13.6100  90.0000  97.0700  90.0000 231 1

