# MOL2 file generated by ConQuest
# Please check atom types

@<TRIPOS>MOLECULE
WUHWIF
    91    92     2
SMALL
USER_CHARGES
****
Generated from CSD

@<TRIPOS>ATOM
      1 O1        12.2746   -4.4524    2.9034 O.3       1 RES1    0.0000
      2 N1        11.4046   -3.6634    2.0191 N.pl3     1 RES1    1.0000
      3 O2        11.5292   -3.8900    0.8687 O.2       1 RES1   -1.0000
      4 O3        12.6165   -4.8821    4.8043 Du        2 SUP2    0.0000
      5 C1        10.7183   -2.8777    2.8281 C.2       1 RES1    0.0000
      6 C2        11.1322   -3.1384    4.1590 C.2       1 RES1    0.0000
      7 N2        12.0448   -4.0785    4.1888 N.2       1 RES1    0.0000
      8 O4         8.5691   -2.0305    3.2072 O.3       1 RES1    0.0000
      9 C3         9.7362   -1.8498    2.4074 C.3       1 RES1    0.0000
     10 H1        10.1194   -0.9486    2.6112 H         1 RES1    0.0000
     11 C4         9.3468   -1.8808    0.9206 C.3       1 RES1    0.0000
     12 H2        10.1536   -1.7881    0.3363 H         1 RES1    0.0000
     13 O5         8.6711   -3.1458    0.6817 O.3       1 RES1    0.0000
     14 C5         8.7916   -3.6726   -0.5518 C.2       1 RES1    0.0000
     15 O6         9.3856   -3.1578   -1.4478 O.2       1 RES1    0.0000
     16 C6         8.0540   -4.9729   -0.6324 C.3       1 RES1    0.0000
     17 H3         7.6332   -5.1635    0.2311 H         1 RES1    0.0000
     18 H4         8.6821   -5.6912   -0.8557 H         1 RES1    0.0000
     19 H5         7.3644   -4.9147   -1.3270 H         1 RES1    0.0000
     20 C7         8.3822   -0.7363    0.6999 C.3       1 RES1    0.0000
     21 H6         8.8499    0.1251    0.8985 H         1 RES1    0.0000
     22 O7         7.9140   -0.7083   -0.6609 O.3       1 RES1    0.0000
     23 C8         8.7709   -0.1473   -1.5543 C.2       1 RES1    0.0000
     24 O8         9.8003    0.3620   -1.2361 O.2       1 RES1    0.0000
     25 C9         8.2219   -0.2790   -2.9319 C.3       1 RES1    0.0000
     26 H7         7.3611   -0.7458   -2.8969 H         1 RES1    0.0000
     27 H8         8.8483   -0.7897   -3.4851 H         1 RES1    0.0000
     28 H9         8.0945    0.6123   -3.3189 H         1 RES1    0.0000
     29 C10        7.1857   -0.8584    1.5971 C.3       1 RES1    0.0000
     30 H10        6.6455   -1.6617    1.3478 H         1 RES1    0.0000
     31 O9         6.4093    0.3369    1.4257 O.3       1 RES1    0.0000
     32 C11        5.0693    0.1941    1.2530 C.2       1 RES1    0.0000
     33 O10        4.4954   -0.8426    1.3322 O.2       1 RES1    0.0000
     34 C12        4.4329    1.5154    0.9816 C.3       1 RES1    0.0000
     35 H11        5.1216    2.2117    0.9635 H         1 RES1    0.0000
     36 H12        3.7847    1.7165    1.6893 H         1 RES1    0.0000
     37 H13        3.9737    1.4856    0.1169 H         1 RES1    0.0000
     38 C13        7.6347   -0.9516    3.0605 C.3       1 RES1    0.0000
     39 H14        8.0855   -0.0964    3.3150 H         1 RES1    0.0000
     40 C14        6.4970   -1.2112    4.0226 C.3       1 RES1    0.0000
     41 H15        5.6898   -0.7311    3.7097 H         1 RES1    0.0000
     42 H16        6.2907   -2.1799    4.0291 H         1 RES1    0.0000
     43 O11        6.8080   -0.7876    5.3588 O.3       1 RES1    0.0000
     44 C15        6.4876    0.5144    5.6535 C.2       1 RES1    0.0000
     45 O12        6.0833    1.2633    4.8030 O.2       1 RES1    0.0000
     46 C16        6.7387    0.8505    7.0727 C.3       1 RES1    0.0000
     47 H17        7.0612    0.0542    7.5441 H         1 RES1    0.0000
     48 H18        5.9062    1.1610    7.4869 H         1 RES1    0.0000
     49 H19        7.4135    1.5582    7.1260 H         1 RES1    0.0000
     50 O13       10.9356   -1.0575    5.1705 O.3       1 RES1    0.0000
     51 C17       10.5976   -2.4475    5.3601 C.3       1 RES1    0.0000
     52 H20        9.6012   -2.5244    5.3367 H         1 RES1    0.0000
     53 C18       11.0754   -2.9698    6.7182 C.3       1 RES1    0.0000
     54 H21       10.7884   -3.9188    6.8481 H         1 RES1    0.0000
     55 O14       12.5126   -2.8704    6.7533 O.3       1 RES1    0.0000
     56 C19       13.1578   -3.9776    7.2234 C.2       1 RES1    0.0000
     57 O15       12.5948   -4.8877    7.7310 O.2       1 RES1    0.0000
     58 C20       14.6400   -3.8476    6.9727 C.3       1 RES1    0.0000
     59 H22       14.8246   -2.9849    6.5443 H         1 RES1    0.0000
     60 H23       14.9374   -4.5739    6.3845 H         1 RES1    0.0000
     61 H24       15.1221   -3.8986    7.8245 H         1 RES1    0.0000
     62 C21       10.4669   -2.0844    7.7804 C.3       1 RES1    0.0000
     63 H25        9.4755   -2.2162    7.7739 H         1 RES1    0.0000
     64 O16       10.9615   -2.4195    9.0763 O.3       1 RES1    0.0000
     65 C22       10.3637   -3.4812    9.6580 C.2       1 RES1    0.0000
     66 O17        9.4860   -4.1057    9.1360 O.2       1 RES1    0.0000
     67 C23       10.9994   -3.7920   10.9954 C.3       1 RES1    0.0000
     68 H26       11.6969   -3.1303   11.1863 H         1 RES1    0.0000
     69 H27       11.3962   -4.6870   10.9681 H         1 RES1    0.0000
     70 H28       10.3161   -3.7581   11.6966 H         1 RES1    0.0000
     71 C24       10.7614   -0.6056    7.5415 C.3       1 RES1    0.0000
     72 H29       11.7390   -0.4162    7.6350 H         1 RES1    0.0000
     73 O18        9.9963    0.1696    8.4803 O.3       1 RES1    0.0000
     74 C25       10.6197    0.6718    9.5463 C.2       1 RES1    0.0000
     75 O19       11.8238    0.5707    9.7255 O.2       1 RES1    0.0000
     76 C26        9.6776    1.3582   10.4734 C.3       1 RES1    0.0000
     77 H30        8.7701    1.3177   10.1059 H         1 RES1    0.0000
     78 H31        9.9461    2.2949   10.5773 H         1 RES1    0.0000
     79 H32        9.6969    0.9138   11.3460 H         1 RES1    0.0000
     80 C27       10.2682   -0.2409    6.1456 C.3       1 RES1    0.0000
     81 H33        9.2844   -0.4139    6.0950 H         1 RES1    0.0000
     82 C28       10.5308    1.2053    5.7834 C.3       1 RES1    0.0000
     83 H34       10.1970    1.8024    6.5001 H         1 RES1    0.0000
     84 H35       11.5024    1.3594    5.6743 H         1 RES1    0.0000
     85 O20        9.8343    1.4831    4.5329 O.3       1 RES1    0.0000
     86 C29        9.1475    2.6464    4.4667 C.2       1 RES1    0.0000
     87 O21        9.0426    3.3951    5.3912 O.2       1 RES1    0.0000
     88 C30        8.5095    2.8419    3.1215 C.3       1 RES1    0.0000
     89 H36        8.7491    2.0947    2.5346 H         1 RES1    0.0000
     90 H37        8.8287    3.6817    2.7268 H         1 RES1    0.0000
     91 H38        7.5362    2.8785    3.2228 H         1 RES1    0.0000
@<TRIPOS>BOND
     1    1    2 1
     2    2    3 1
     3    5    2 2
     4    6    5 1
     5    7    1 1
     6    8    9 1
     7    9    5 1
     8   10    9 1
     9   11    9 1
    10   12   11 1
    11   13   11 1
    12   14   13 1
    13   15   14 2
    14   16   14 1
    15   17   16 1
    16   18   16 1
    17   19   16 1
    18   20   11 1
    19   21   20 1
    20   22   20 1
    21   23   22 1
    22   24   23 2
    23   25   23 1
    24   26   25 1
    25   27   25 1
    26   28   25 1
    27   29   20 1
    28   30   29 1
    29   31   29 1
    30   32   31 1
    31   33   32 2
    32   34   32 1
    33   35   34 1
    34   36   34 1
    35   37   34 1
    36   38    8 1
    37   39   38 1
    38   40   38 1
    39   41   40 1
    40   42   40 1
    41   43   40 1
    42   44   43 1
    43   45   44 2
    44   46   44 1
    45   47   46 1
    46   48   46 1
    47   49   46 1
    48   50   51 1
    49   51    6 1
    50   52   51 1
    51   53   51 1
    52   54   53 1
    53   55   53 1
    54   56   55 1
    55   57   56 2
    56   58   56 1
    57   59   58 1
    58   60   58 1
    59   61   58 1
    60   62   53 1
    61   63   62 1
    62   64   62 1
    63   65   64 1
    64   66   65 2
    65   67   65 1
    66   68   67 1
    67   69   67 1
    68   70   67 1
    69   71   62 1
    70   72   71 1
    71   73   71 1
    72   74   73 1
    73   75   74 2
    74   76   74 1
    75   77   76 1
    76   78   76 1
    77   79   76 1
    78   80   50 1
    79   81   80 1
    80   82   80 1
    81   83   82 1
    82   84   82 1
    83   85   82 1
    84   86   85 1
    85   87   86 2
    86   88   86 1
    87   89   88 1
    88   90   88 1
    89   91   88 1
    90    6    7 2
    91   29   38 1
    92   71   80 1
@<TRIPOS>SUBSTRUCTURE
     1 RES1 1
     2 SUP2 4

@<TRIPOS>CRYSIN
   7.8390    8.6191   13.2290  97.8030  97.5990  91.0700   1 1

