# MOL2 file generated by ConQuest
# Please check atom types

@<TRIPOS>MOLECULE
WUKVUU
    40    40     1
SMALL
NO_CHARGES
****
Generated from CSD

@<TRIPOS>ATOM
      1 O1         6.7603   12.7702    5.4066 O.2       1 RES1    0.0000
      2 O2         7.9071   11.1458    6.2641 O.2       1 RES1    0.0000
      3 O3         1.0038    7.3504    7.8288 O.2       1 RES1    0.0000
      4 O4         0.6606    5.5196    6.5823 O.3       1 RES1    0.0000
      5 O5         4.6487    3.1946   10.1509 O.2       1 RES1    0.0000
      6 O6         2.6458    2.3803    9.5323 O.3       1 RES1    0.0000
      7 N1         6.8436   11.6735    5.9550 N.pl3     1 RES1    0.0000
      8 C1         5.6661    9.7384    6.9092 C.ar      1 RES1    0.0000
      9 H1         6.4879    9.4018    7.1861 H         1 RES1    0.0000
     10 C2         5.5876   10.9488    6.2398 C.ar      1 RES1    0.0000
     11 C3         4.3994   11.5091    5.8339 C.ar      1 RES1    0.0000
     12 H2         4.3827   12.3162    5.3721 H         1 RES1    0.0000
     13 C4         3.2295   10.8354    6.1325 C.ar      1 RES1    0.0000
     14 H3         2.4109   11.2029    5.8894 H         1 RES1    0.0000
     15 C5         3.2670    9.6166    6.7918 C.ar      1 RES1    0.0000
     16 H4         2.4702    9.1804    6.9920 H         1 RES1    0.0000
     17 C6         4.4827    9.0316    7.1604 C.ar      1 RES1    0.0000
     18 C7         4.5724    7.7387    7.8536 C.2       1 RES1    0.0000
     19 H5         5.2115    7.6808    8.5269 H         1 RES1    0.0000
     20 C8         3.8453    6.6288    7.6364 C.2       1 RES1    0.0000
     21 C9         2.8231    6.4720    6.5316 C.3       1 RES1    0.0000
     22 H6         2.9439    7.1811    5.8804 H         1 RES1    0.0000
     23 H7         2.9666    5.6248    6.0805 H         1 RES1    0.0000
     24 C10        1.4092    6.5195    7.0641 C.2       1 RES1    0.0000
     25 C11       -0.6635    5.3456    7.1651 C.3       1 RES1    0.0000
     26 H8        -1.2909    5.0628    6.4817 H         1 RES1    0.0000
     27 H9        -0.9749    6.1860    7.5353 H         1 RES1    0.0000
     28 C12       -0.5843    4.3091    8.2472 C.3       1 RES1    0.0000
     29 H10       -0.2068    3.5015    7.8905 H         1 RES1    0.0000
     30 H11       -1.4655    4.1294    8.5829 H         1 RES1    0.0000
     31 H12       -0.0298    4.6331    8.9612 H         1 RES1    0.0000
     32 C13        4.0591    5.4802    8.5062 C.2       1 RES1    0.0000
     33 H13        4.7811    5.5266    9.0902 H         1 RES1    0.0000
     34 C14        3.3233    4.3667    8.5493 C.2       1 RES1    0.0000
     35 H14        2.6018    4.2734    7.9696 H         1 RES1    0.0000
     36 C15        3.6342    3.2828    9.4991 C.2       1 RES1    0.0000
     37 C16        2.8397    1.2787   10.4491 C.3       1 RES1    0.0000
     38 H15        3.6317    0.7947   10.2049 H         1 RES1    0.0000
     39 H16        2.0809    0.6914   10.4090 H         1 RES1    0.0000
     40 H17        2.9343    1.6183   11.3415 H         1 RES1    0.0000
@<TRIPOS>BOND
     1    1    7 2
     2    2    7 2
     3    3   24 2
     4    4   24 1
     5    5   36 2
     6    6   36 1
     7    7   10 1
     8    8    9 1
     9   10    8 ar
    10   11   10 ar
    11   12   11 1
    12   13   11 ar
    13   14   13 1
    14   15   13 ar
    15   16   15 1
    16   17    8 ar
    17   18   17 1
    18   19   18 1
    19   20   18 2
    20   21   20 1
    21   22   21 1
    22   23   21 1
    23   24   21 1
    24   25    4 1
    25   26   25 1
    26   27   25 1
    27   28   25 1
    28   29   28 1
    29   30   28 1
    30   31   28 1
    31   32   20 1
    32   33   32 1
    33   34   32 2
    34   35   34 1
    35   36   34 1
    36   37    6 1
    37   38   37 1
    38   39   37 1
    39   40   37 1
    40   15   17 ar
@<TRIPOS>SUBSTRUCTURE
     1 RES1 1

@<TRIPOS>CRYSIN
   8.2434    9.3954   10.1160  82.6300  84.6600  80.1900   2 1

