# MOL2 file generated by ConQuest
# Please check atom types

@<TRIPOS>MOLECULE
WUKZIL
    18    18     1
SMALL
NO_CHARGES
****
Generated from CSD

@<TRIPOS>ATOM
      1 N1         2.5237    1.6401    8.7449 N.ar      1 RES1    0.0000
      2 C1         2.6103    1.9835   10.0292 C.ar      1 RES1    0.0000
      3 C2         3.7988    2.0977   10.7281 C.ar      1 RES1    0.0000
      4 C3         4.9656    1.8521   10.0407 C.ar      1 RES1    0.0000
      5 C4         4.9199    1.5073    8.7038 C.ar      1 RES1    0.0000
      6 C5         3.6785    1.4102    8.1151 C.ar      1 RES1    0.0000
      7 N2         6.2214    2.0385   10.7083 N.pl3     1 RES1    0.0000
      8 C6         6.8625    3.3330   10.7314 C.3       1 RES1    0.0000
      9 N3         6.9708    0.9403   10.9270 N.pl3     1 RES1    0.0000
     10 O1         8.1268    1.1153   11.2954 O.2       1 RES1    0.0000
     11 O2         6.4451   -0.1599   10.7922 O.2       1 RES1    0.0000
     12 H1         3.6376    1.0781    7.1992 H         1 RES1    0.0000
     13 H2         5.7487    1.2995    8.2072 H         1 RES1    0.0000
     14 H3         3.8228    2.3134   11.6177 H         1 RES1    0.0000
     15 H4         1.8477    2.1777   10.5011 H         1 RES1    0.0000
     16 H5         7.4219    3.4058    9.9980 H         1 RES1    0.0000
     17 H6         7.3858    3.3201   11.5437 H         1 RES1    0.0000
     18 H7         6.1829    4.0198   10.8086 H         1 RES1    0.0000
@<TRIPOS>BOND
     1    1    2 ar
     2    2    3 ar
     3    3    4 ar
     4    4    5 ar
     5    5    6 ar
     6    6    1 ar
     7    7    4 1
     8    8    7 1
     9    9    7 1
    10   10    9 2
    11   11    9 2
    12   12    6 1
    13   13    5 1
    14   14    3 1
    15   15    2 1
    16   16    8 1
    17   17    8 1
    18   18    8 1
@<TRIPOS>SUBSTRUCTURE
     1 RES1 1

@<TRIPOS>CRYSIN
  12.0290    7.1400   16.4440  90.0000  90.0000  90.0000  61 1

