# MOL2 file generated by ConQuest
# Please check atom types

@<TRIPOS>MOLECULE
WULKOF
    36    38     1
SMALL
NO_CHARGES
****
Generated from CSD

@<TRIPOS>ATOM
      1 O1         0.8182    4.0855    6.2081 O.2       1 RES1    0.0000
      2 N1         1.2058    4.4448    8.4241 N.am      1 RES1    0.0000
      3 C1         1.1920    5.3013    9.5249 C.2       1 RES1    0.0000
      4 N2         0.9597    6.5679    9.4342 N.2       1 RES1    0.0000
      5 C2         0.6879    7.0998    8.1767 C.ar      1 RES1    0.0000
      6 C3         0.4347    8.4735    8.0607 C.ar      1 RES1    0.0000
      7 H1         0.4808    9.0301    8.8287 H         1 RES1    0.0000
      8 C4         0.1193    9.0192    6.8349 C.ar      1 RES1    0.0000
      9 H2        -0.0571    9.9499    6.7665 H         1 RES1    0.0000
     10 C5         0.0567    8.2178    5.6900 C.ar      1 RES1    0.0000
     11 H3        -0.1626    8.6041    4.8505 H         1 RES1    0.0000
     12 C6         0.3129    6.8697    5.7839 C.ar      1 RES1    0.0000
     13 H4         0.2746    6.3215    5.0087 H         1 RES1    0.0000
     14 C7         0.6304    6.3087    7.0255 C.ar      1 RES1    0.0000
     15 C8         0.8826    4.8818    7.1285 C.2       1 RES1    0.0000
     16 C9         1.4363    4.6901   10.8630 C.3       1 RES1    0.0000
     17 H5         2.3541    4.3488   10.9042 H         1 RES1    0.0000
     18 H6         0.8074    3.9525   11.0053 H         1 RES1    0.0000
     19 H7         1.3082    5.3677   11.5597 H         1 RES1    0.0000
     20 C10        1.4880    3.0438    8.5674 C.ar      1 RES1    0.0000
     21 C11        0.5210    2.0677    8.3679 C.ar      1 RES1    0.0000
     22 C12        0.7980    0.7113    8.3720 C.ar      1 RES1    0.0000
     23 H8         0.1147    0.0722    8.2051 H         1 RES1    0.0000
     24 C13        2.1059    0.3108    8.6274 C.ar      1 RES1    0.0000
     25 C14        3.0965    1.2649    8.8550 C.ar      1 RES1    0.0000
     26 H9         3.9842    0.9892    9.0521 H         1 RES1    0.0000
     27 C15        2.7904    2.6117    8.7955 C.ar      1 RES1    0.0000
     28 H10        3.4814    3.2534    8.9125 H         1 RES1    0.0000
     29 N3        -0.8806    2.4345    8.1494 N.pl3     1 RES1    0.0000
     30 O2        -1.5384    1.7667    7.3657 O.2       1 RES1    0.0000
     31 O3        -1.3306    3.3775    8.7981 O.2       1 RES1    0.0000
     32 O4         2.5034   -0.9838    8.6767 O.3       1 RES1    0.0000
     33 C16        1.5312   -1.9799    8.3547 C.3       1 RES1    0.0000
     34 H11        1.9548   -2.8643    8.3593 H         1 RES1    0.0000
     35 H12        1.1612   -1.8001    7.4658 H         1 RES1    0.0000
     36 H13        0.8105   -1.9600    9.0188 H         1 RES1    0.0000
@<TRIPOS>BOND
     1    1   15 2
     2    2    3 1
     3    3    4 2
     4    4    5 1
     5    5    6 ar
     6    6    7 1
     7    8    6 ar
     8    9    8 1
     9   10    8 ar
    10   11   10 1
    11   12   10 ar
    12   13   12 1
    13   14    5 ar
    14   15    2 1
    15   16    3 1
    16   17   16 1
    17   18   16 1
    18   19   16 1
    19   20    2 1
    20   21   20 ar
    21   22   21 ar
    22   23   22 1
    23   24   22 ar
    24   25   24 ar
    25   26   25 1
    26   27   20 ar
    27   28   27 1
    28   29   21 1
    29   30   29 2
    30   31   29 2
    31   32   24 1
    32   33   32 1
    33   34   33 1
    34   35   33 1
    35   36   33 1
    36   12   14 ar
    37   14   15 1
    38   25   27 ar
@<TRIPOS>SUBSTRUCTURE
     1 RES1 1

@<TRIPOS>CRYSIN
   7.4973   14.1515   13.6198  90.0000 102.5140  90.0000 231 1

