# MOL2 file generated by ConQuest
# Please check atom types

@<TRIPOS>MOLECULE
WULQOJ
    49    50     1
SMALL
NO_CHARGES
****
Generated from CSD

@<TRIPOS>ATOM
      1 O1        -1.9263    2.7483    3.3307 O.3       1 RES1    0.0000
      2 O2        -3.9585    0.7683    3.8128 O.3       1 RES1    0.0000
      3 O3        -1.2504    0.5247    3.5327 O.3       1 RES1    0.0000
      4 O4        -4.0139    1.9132    1.7873 O.3       1 RES1    0.0000
      5 O5        -1.5438    3.1764    6.1619 O.3       1 RES1    0.0000
      6 O6        -0.2435    4.9808    6.5142 O.2       1 RES1    0.0000
      7 O7         2.6423    1.3579   11.6265 O.2       1 RES1    0.0000
      8 O8         2.2105   -0.4866   10.5667 O.2       1 RES1    0.0000
      9 N1         2.1725    0.7353   10.6721 N.pl3     1 RES1    0.0000
     10 C1        -1.9075    1.4750    2.7059 C.3       1 RES1    0.0000
     11 C2        -3.3361    0.9134    2.5490 C.3       1 RES1    0.0000
     12 C3        -3.5239    1.6766    4.8330 C.3       1 RES1    0.0000
     13 H1        -2.8137    1.2435    5.3693 H         1 RES1    0.0000
     14 H2        -4.2838    1.8719    5.4374 H         1 RES1    0.0000
     15 C4        -2.9917    2.9811    4.2697 C.3       1 RES1    0.0000
     16 H3        -3.7387    3.4365    3.7851 H         1 RES1    0.0000
     17 C5         0.0663    0.8733    3.9503 C.3       1 RES1    0.0000
     18 H4         0.3493    0.2729    4.6719 H         1 RES1    0.0000
     19 H5         0.0724    1.7981    4.2742 H         1 RES1    0.0000
     20 H6         0.6827    0.7887    3.1940 H         1 RES1    0.0000
     21 C6        -1.1942    1.6791    1.3907 C.3       1 RES1    0.0000
     22 H7        -0.3320    2.1161    1.5502 H         1 RES1    0.0000
     23 H8        -1.7436    2.2420    0.8059 H         1 RES1    0.0000
     24 H9        -1.0459    0.8103    0.9612 H         1 RES1    0.0000
     25 C7        -3.3730   -0.4408    1.8879 C.3       1 RES1    0.0000
     26 H10       -4.2621   -0.8364    2.0031 H         1 RES1    0.0000
     27 H11       -2.6996   -1.0228    2.2987 H         1 RES1    0.0000
     28 H12       -3.1799   -0.3428    0.9314 H         1 RES1    0.0000
     29 C8        -5.3723    1.6130    1.4794 C.3       1 RES1    0.0000
     30 H13       -5.8061    2.4087    1.1058 H         1 RES1    0.0000
     31 H14       -5.8396    1.3389    2.2966 H         1 RES1    0.0000
     32 H15       -5.4056    0.8854    0.8251 H         1 RES1    0.0000
     33 C9        -2.4502    3.9428    5.3056 C.3       1 RES1    0.0000
     34 H16       -1.9373    4.6685    4.8462 H         1 RES1    0.0000
     35 C10       -3.5291    4.5642    6.1793 C.3       1 RES1    0.0000
     36 H17       -3.1133    5.1666    6.8324 H         1 RES1    0.0000
     37 H18       -4.0154    3.8563    6.6516 H         1 RES1    0.0000
     38 H19       -4.1524    5.0705    5.6181 H         1 RES1    0.0000
     39 C11       -0.5187    3.8315    6.7228 C.2       1 RES1    0.0000
     40 C12        0.2266    2.9544    7.6770 C.ar      1 RES1    0.0000
     41 C13       -0.1270    1.6295    7.9013 C.ar      1 RES1    0.0000
     42 H20       -0.8202    1.2320    7.3874 H         1 RES1    0.0000
     43 C14        0.5235    0.8885    8.8638 C.ar      1 RES1    0.0000
     44 H21        0.2963   -0.0210    9.0141 H         1 RES1    0.0000
     45 C15        1.5184    1.5055    9.6080 C.ar      1 RES1    0.0000
     46 C16        1.9011    2.8177    9.4009 C.ar      1 RES1    0.0000
     47 H22        2.5885    3.2133    9.9243 H         1 RES1    0.0000
     48 C17        1.2605    3.5351    8.4159 C.ar      1 RES1    0.0000
     49 H23        1.5236    4.4307    8.2380 H         1 RES1    0.0000
@<TRIPOS>BOND
     1    1   10 1
     2    2   11 1
     3    3   10 1
     4    4   11 1
     5    5   33 1
     6    6   39 2
     7    7    9 2
     8    8    9 2
     9    9   45 1
    10   10   11 1
    11   11   25 1
    12   12    2 1
    13   13   12 1
    14   14   12 1
    15   15    1 1
    16   16   15 1
    17   17    3 1
    18   18   17 1
    19   19   17 1
    20   20   17 1
    21   21   10 1
    22   22   21 1
    23   23   21 1
    24   24   21 1
    25   25   26 1
    26   27   25 1
    27   28   25 1
    28   29    4 1
    29   30   29 1
    30   31   29 1
    31   32   29 1
    32   33   15 1
    33   34   33 1
    34   35   33 1
    35   36   35 1
    36   37   35 1
    37   38   35 1
    38   39    5 1
    39   40   39 1
    40   41   40 ar
    41   42   41 1
    42   43   41 ar
    43   44   43 1
    44   45   43 ar
    45   46   45 ar
    46   47   46 1
    47   48   40 ar
    48   49   48 1
    49   12   15 1
    50   46   48 ar
@<TRIPOS>SUBSTRUCTURE
     1 RES1 1

@<TRIPOS>CRYSIN
  13.4734    6.3604   22.0790  90.0000 105.6090  90.0000   5 1

