# MOL2 file generated by ConQuest
# Please check atom types

@<TRIPOS>MOLECULE
WULREA
    51    52     1
SMALL
NO_CHARGES
****
Generated from CSD

@<TRIPOS>ATOM
      1 O1         5.3068    2.7078   16.4582 O.3       1 RES1    0.0000
      2 O2         5.8593    3.4515   19.0994 O.3       1 RES1    0.0000
      3 O3         7.3222    3.8600   16.7443 O.3       1 RES1    0.0000
      4 O4         6.1575    1.1615   18.7268 O.3       1 RES1    0.0000
      5 O5         3.3605    5.6422   17.4238 O.3       1 RES1    0.0000
      6 O6         4.2614    7.6884   17.1573 O.2       1 RES1    0.0000
      7 O7        -2.2647    8.2642   20.2782 O.2       1 RES1    0.0000
      8 O8        -1.6932   10.2356   19.5991 O.2       1 RES1    0.0000
      9 N1        -1.4911    9.0406   19.7221 N.pl3     1 RES1    0.0000
     10 C1         6.6492    2.6323   16.9521 C.3       1 RES1    0.0000
     11 C2         6.6800    2.4549   18.4857 C.3       1 RES1    0.0000
     12 C3         4.4957    3.3437   18.6569 C.3       1 RES1    0.0000
     13 H1         3.9439    4.0211   19.1240 H         1 RES1    0.0000
     14 H2         4.1439    2.4484   18.8909 H         1 RES1    0.0000
     15 C4         4.3880    3.5518   17.1608 C.3       1 RES1    0.0000
     16 H3         3.4704    3.2553   16.8978 H         1 RES1    0.0000
     17 C5         7.6962    4.1726   15.3926 C.3       1 RES1    0.0000
     18 H4         8.0613    5.0810   15.3562 H         1 RES1    0.0000
     19 H5         6.9080    4.1138   14.8132 H         1 RES1    0.0000
     20 H6         8.3753    3.5362   15.0857 H         1 RES1    0.0000
     21 C6         7.2612    1.4743   16.2088 C.3       1 RES1    0.0000
     22 H7         7.1262    1.5965   15.2459 H         1 RES1    0.0000
     23 H8         6.8345    0.6399   16.4963 H         1 RES1    0.0000
     24 H9         8.2214    1.4335   16.4006 H         1 RES1    0.0000
     25 C7         8.0613    2.6376   19.0828 C.3       1 RES1    0.0000
     26 H10        8.0067    2.5716   20.0581 H         1 RES1    0.0000
     27 H11        8.4110    3.5189   18.8327 H         1 RES1    0.0000
     28 H12        8.6593    1.9397   18.7411 H         1 RES1    0.0000
     29 C8         6.0701    0.7616   20.0964 C.3       1 RES1    0.0000
     30 H13        5.6078   -0.1007   20.1559 H         1 RES1    0.0000
     31 H14        5.5700    1.4362   20.6032 H         1 RES1    0.0000
     32 H15        6.9723    0.6757   20.4700 H         1 RES1    0.0000
     33 C9         4.5055    5.0173   16.7514 C.3       1 RES1    0.0000
     34 H16        5.3630    5.4056   17.0892 H         1 RES1    0.0000
     35 C10        4.3754    5.2430   15.3119 C.1       1 RES1    0.0000
     36 C11        4.1957    5.4936   14.1632 C.1       1 RES1    0.0000
     37 C12        3.9789    5.8399   12.7562 C.3       1 RES1    0.0000
     38 H17        3.3194    6.5622   12.6952 H         1 RES1    0.0000
     39 H18        3.6474    5.0545   12.2729 H         1 RES1    0.0000
     40 H19        4.8245    6.1356   12.3582 H         1 RES1    0.0000
     41 C13        3.3494    6.9882   17.5070 C.2       1 RES1    0.0000
     42 C14        2.0786    7.4910   18.1028 C.ar      1 RES1    0.0000
     43 C15        1.0470    6.6256   18.4601 C.ar      1 RES1    0.0000
     44 H20        1.1400    5.6904   18.3188 H         1 RES1    0.0000
     45 C16       -0.1175    7.1314   19.0218 C.ar      1 RES1    0.0000
     46 H21       -0.8197    6.5516   19.2925 H         1 RES1    0.0000
     47 C17       -0.2273    8.4898   19.1753 C.ar      1 RES1    0.0000
     48 C18        0.7742    9.3700   18.8233 C.ar      1 RES1    0.0000
     49 H22        0.6672   10.3064   18.9430 H         1 RES1    0.0000
     50 C19        1.9380    8.8495   18.2907 C.ar      1 RES1    0.0000
     51 H23        2.6479    9.4333   18.0504 H         1 RES1    0.0000
@<TRIPOS>BOND
     1    1   10 1
     2    2   11 1
     3    3   10 1
     4    4   11 1
     5    5   33 1
     6    6   41 2
     7    7    9 2
     8    8    9 2
     9    9   47 1
    10   10   11 1
    11   11   25 1
    12   12    2 1
    13   13   12 1
    14   14   12 1
    15   15    1 1
    16   16   15 1
    17   17    3 1
    18   18   17 1
    19   19   17 1
    20   20   17 1
    21   21   10 1
    22   22   21 1
    23   23   21 1
    24   24   21 1
    25   25   26 1
    26   27   25 1
    27   28   25 1
    28   29    4 1
    29   30   29 1
    30   31   29 1
    31   32   29 1
    32   33   15 1
    33   34   33 1
    34   35   33 1
    35   36   35 3
    36   37   36 1
    37   38   37 1
    38   39   37 1
    39   40   37 1
    40   41    5 1
    41   42   41 1
    42   43   42 ar
    43   44   43 1
    44   45   43 ar
    45   46   45 1
    46   47   45 ar
    47   48   47 ar
    48   49   48 1
    49   50   42 ar
    50   51   50 1
    51   12   15 1
    52   48   50 ar
@<TRIPOS>SUBSTRUCTURE
     1 RES1 1

@<TRIPOS>CRYSIN
   6.9940   13.2490   20.8050  90.0000  90.0000  90.0000  19 1

