# MOL2 file generated by ConQuest
# Please check atom types

@<TRIPOS>MOLECULE
WULRAW
    50    51     1
SMALL
NO_CHARGES
****
Generated from CSD

@<TRIPOS>ATOM
      1 O1        13.3623    0.7755   -1.9961 O.3       1 RES1    0.0000
      2 O2        11.7660   -1.0754   -0.4619 O.3       1 RES1    0.0000
      3 O3        13.8778   -1.4975   -2.1483 O.3       1 RES1    0.0000
      4 O4        10.7222    0.1329   -2.1575 O.3       1 RES1    0.0000
      5 O5        15.1496    1.1409    0.3206 O.3       1 RES1    0.0000
      6 O6        16.5673    2.8331   -0.0502 O.2       1 RES1    0.0000
      7 O7        21.2411   -0.7988    3.4978 O.2       1 RES1    0.0000
      8 O8        20.3158   -2.6240    2.8342 O.2       1 RES1    0.0000
      9 N1        20.3738   -1.4043    2.8914 N.pl3     1 RES1    0.0000
     10 C1        12.9442   -0.4914   -2.5082 C.3       1 RES1    0.0000
     11 C2        11.6251   -0.9343   -1.8671 C.3       1 RES1    0.0000
     12 C3        12.7228   -0.1846    0.1568 C.3       1 RES1    0.0000
     13 H1        13.5831   -0.6609    0.2711 H         1 RES1    0.0000
     14 H2        12.3942    0.0712    1.0552 H         1 RES1    0.0000
     15 C4        12.9532    1.0672   -0.6620 C.3       1 RES1    0.0000
     16 H3        12.0934    1.5763   -0.7030 H         1 RES1    0.0000
     17 C5        15.2462   -1.2235   -2.4858 C.3       1 RES1    0.0000
     18 H4        15.8184   -1.9417   -2.1429 H         1 RES1    0.0000
     19 H5        15.5178   -0.3711   -2.0849 H         1 RES1    0.0000
     20 H6        15.3369   -1.1699   -3.4599 H         1 RES1    0.0000
     21 C6        12.8474   -0.3144   -4.0022 C.3       1 RES1    0.0000
     22 H7        13.6970    0.0309   -4.3460 H         1 RES1    0.0000
     23 H8        12.1293    0.3200   -4.2100 H         1 RES1    0.0000
     24 H9        12.6511   -1.1781   -4.4217 H         1 RES1    0.0000
     25 C7        11.1106   -2.2730   -2.3738 C.3       1 RES1    0.0000
     26 H10       10.3616   -2.5679   -1.8153 H         1 RES1    0.0000
     27 H11       11.8287   -2.9371   -2.3329 H         1 RES1    0.0000
     28 H12       10.8066   -2.1766   -3.3016 H         1 RES1    0.0000
     29 C8         9.4068   -0.0202   -1.6330 C.3       1 RES1    0.0000
     30 H13        8.9428    0.8429   -1.6562 H         1 RES1    0.0000
     31 H14        9.4598   -0.3389   -0.7076 H         1 RES1    0.0000
     32 H15        8.9131   -0.6710   -2.1753 H         1 RES1    0.0000
     33 C9        14.0203    1.9801   -0.0518 C.3       1 RES1    0.0000
     34 H16       14.3141    2.6485   -0.7346 H         1 RES1    0.0000
     35 C10       13.5021    2.6989    1.1556 C.2       1 RES1    0.0000
     36 H17       12.7764    3.2968    1.0166 H         1 RES1    0.0000
     37 C11       13.9475    2.5899    2.3901 C.2       1 RES1    0.0000
     38 H18       14.6706    2.0053    2.5840 H         1 RES1    0.0000
     39 H19       13.5431    3.0946    3.0868 H         1 RES1    0.0000
     40 C12       16.3608    1.7224    0.3329 C.2       1 RES1    0.0000
     41 C13       17.3931    0.8423    0.9571 C.ar      1 RES1    0.0000
     42 C14       17.1225   -0.4574    1.3433 C.ar      1 RES1    0.0000
     43 H20       16.2678   -0.8354    1.1742 H         1 RES1    0.0000
     44 C15       18.1004   -1.2090    1.9783 C.ar      1 RES1    0.0000
     45 H21       17.9316   -2.1055    2.2433 H         1 RES1    0.0000
     46 C16       19.3180   -0.6224    2.2147 C.ar      1 RES1    0.0000
     47 C17       19.6212    0.6703    1.8401 C.ar      1 RES1    0.0000
     48 H22       20.4750    1.0458    2.0247 H         1 RES1    0.0000
     49 C18       18.6479    1.4024    1.1881 C.ar      1 RES1    0.0000
     50 H23       18.8333    2.2875    0.8969 H         1 RES1    0.0000
@<TRIPOS>BOND
     1    1   10 1
     2    2   11 1
     3    3   10 1
     4    4   11 1
     5    5   33 1
     6    6   40 2
     7    7    9 2
     8    8    9 2
     9    9   46 1
    10   10   11 1
    11   11   25 1
    12   12    2 1
    13   13   12 1
    14   14   12 1
    15   15    1 1
    16   16   15 1
    17   17    3 1
    18   18   17 1
    19   19   17 1
    20   20   17 1
    21   21   10 1
    22   22   21 1
    23   23   21 1
    24   24   21 1
    25   25   26 1
    26   27   25 1
    27   28   25 1
    28   29    4 1
    29   30   29 1
    30   31   29 1
    31   32   29 1
    32   33   15 1
    33   34   33 1
    34   35   33 1
    35   36   35 1
    36   37   35 2
    37   38   37 1
    38   39   37 1
    39   40    5 1
    40   41   40 1
    41   42   41 ar
    42   43   42 1
    43   44   42 ar
    44   45   44 1
    45   46   44 ar
    46   47   46 ar
    47   48   47 1
    48   49   41 ar
    49   50   49 1
    50   12   15 1
    51   47   49 ar
@<TRIPOS>SUBSTRUCTURE
     1 RES1 1

@<TRIPOS>CRYSIN
  19.3390    6.3000    7.7500  90.0000  94.6200  90.0000   4 1

