# MOL2 file generated by ConQuest
# Please check atom types

@<TRIPOS>MOLECULE
WUMGAO
    26    28     1
SMALL
USER_CHARGES
****
Generated from CSD

@<TRIPOS>ATOM
      1 O1         1.0920    5.9298   -1.1869 O.2       1 RES1   -1.0000
      2 O2         3.0774    4.7852   -1.2163 O.3       1 RES1    0.0000
      3 O3         2.6094    0.4490    2.3886 O.3       1 RES1    0.0000
      4 N1         1.7312    4.9755   -0.7211 N.pl3     1 RES1    1.0000
      5 N2         3.5911    3.6716   -0.5935 N.2       1 RES1    0.0000
      6 N3         1.9864    1.5934    1.8494 N.2       1 RES1    0.0000
      7 N4         4.0449    1.3094    0.9375 N.2       1 RES1    0.0000
      8 C1         1.4785    4.0296    0.1570 C.2       1 RES1    0.0000
      9 C2         0.2026    3.9749    0.8986 C.3       1 RES1    0.0000
     10 H1        -0.4678    4.5209    0.4365 H         1 RES1    0.0000
     11 H2         0.3367    4.3214    1.8054 H         1 RES1    0.0000
     12 H3        -0.1077    3.0461    0.9463 H         1 RES1    0.0000
     13 C3         2.6514    3.2379    0.2105 C.2       1 RES1    0.0000
     14 C4         2.8893    2.0383    1.0175 C.2       1 RES1    0.0000
     15 C5         3.8113    0.3559    1.8032 C.2       1 RES1    0.0000
     16 C6         4.6886   -0.7551    2.1626 C.ar      1 RES1    0.0000
     17 C7         5.9715   -0.7726    1.6278 C.ar      1 RES1    0.0000
     18 H4         6.2594   -0.0650    1.0644 H         1 RES1    0.0000
     19 C8         6.8301   -1.8187    1.9139 C.ar      1 RES1    0.0000
     20 H5         7.7001   -1.8379    1.5332 H         1 RES1    0.0000
     21 C9         6.4153   -2.8394    2.7590 C.ar      1 RES1    0.0000
     22 H6         7.0036   -3.5593    2.9564 H         1 RES1    0.0000
     23 C10        5.1454   -2.8103    3.3144 C.ar      1 RES1    0.0000
     24 H7         4.8715   -3.5033    3.9034 H         1 RES1    0.0000
     25 C11        4.2713   -1.7738    3.0151 C.ar      1 RES1    0.0000
     26 H8         3.3973   -1.7595    3.3885 H         1 RES1    0.0000
@<TRIPOS>BOND
     1    1    4 1
     2    2    4 1
     3    3    6 1
     4    4    8 2
     5    5    2 1
     6    6   14 2
     7    7   14 1
     8    8    9 1
     9    9   10 1
    10   11    9 1
    11   12    9 1
    12   13    5 2
    13   14   13 1
    14   15    3 1
    15   16   15 1
    16   17   16 ar
    17   18   17 1
    18   19   17 ar
    19   20   19 1
    20   21   19 ar
    21   22   21 1
    22   23   21 ar
    23   24   23 1
    24   25   16 ar
    25   26   25 1
    26    7   15 2
    27    8   13 1
    28   23   25 ar
@<TRIPOS>SUBSTRUCTURE
     1 RES1 1

@<TRIPOS>CRYSIN
   6.5740   22.4140    7.9769  90.0000 113.1260  90.0000 231 1

