# MOL2 file generated by ConQuest
# Please check atom types

@<TRIPOS>MOLECULE
WUMHES
    28    29     1
SMALL
NO_CHARGES
****
Generated from CSD

@<TRIPOS>ATOM
      1 O1         1.1374   -1.0554    1.0658 O.2       1 RES1    0.0000
      2 O2        -1.0596    4.0471    4.1700 O.2       1 RES1    0.0000
      3 O3         0.6100    5.1364    3.4124 O.2       1 RES1    0.0000
      4 N1         0.9191    0.7837    2.3680 N.am      1 RES1    0.0000
      5 N2        -0.0559    4.1258    3.4979 N.pl3     1 RES1    0.0000
      6 C1         0.1157    1.5813    3.2959 C.3       1 RES1    0.0000
      7 H1        -0.8252    1.3218    3.2065 H         1 RES1    0.0000
      8 C2         0.3071    2.9561    2.6893 C.3       1 RES1    0.0000
      9 C3         1.4785    2.9651    1.7626 C.3       1 RES1    0.0000
     10 H2         2.1121    3.7128    1.7771 H         1 RES1    0.0000
     11 C4         1.9814    1.5498    1.7296 C.3       1 RES1    0.0000
     12 H3         2.1228    1.2532    0.8173 H         1 RES1    0.0000
     13 H4         2.8130    1.4657    2.2211 H         1 RES1    0.0000
     14 C5         0.1042    3.1576    1.2123 C.3       1 RES1    0.0000
     15 H5        -0.2865    2.4283    0.7057 H         1 RES1    0.0000
     16 H6        -0.1405    4.0455    0.9059 H         1 RES1    0.0000
     17 C6         0.5325    1.4475    4.7677 C.3       1 RES1    0.0000
     18 H7         0.0151    2.1053    5.2762 H         1 RES1    0.0000
     19 C7         1.9897    1.7436    5.0106 C.3       1 RES1    0.0000
     20 H8         2.1580    1.7680    5.9549 H         1 RES1    0.0000
     21 H9         2.2118    2.5937    4.6244 H         1 RES1    0.0000
     22 H10        2.5274    1.0583    4.6077 H         1 RES1    0.0000
     23 C8         0.1685    0.0834    5.3031 C.3       1 RES1    0.0000
     24 H11        0.6923   -0.5863    4.8579 H         1 RES1    0.0000
     25 H12       -0.7638   -0.0834    5.1466 H         1 RES1    0.0000
     26 H13        0.3452    0.0521    6.2462 H         1 RES1    0.0000
     27 C9         0.5384   -0.4110    1.9144 C.2       1 RES1    0.0000
     28 H14       -0.2385   -0.7799    2.2673 H         1 RES1    0.0000
@<TRIPOS>BOND
     1    1   27 2
     2    2    5 2
     3    3    5 2
     4    4    6 1
     5    5    8 1
     6    6    7 1
     7    8    6 1
     8    9    8 1
     9   10    9 1
    10   11    4 1
    11   12   11 1
    12   13   11 1
    13   14    8 1
    14   15   14 1
    15   16   14 1
    16   17    6 1
    17   18   17 1
    18   19   17 1
    19   20   19 1
    20   21   19 1
    21   22   19 1
    22   23   17 1
    23   24   23 1
    24   25   23 1
    25   26   23 1
    26   27    4 1
    27   28   27 1
    28    9   11 1
    29    9   14 1
@<TRIPOS>SUBSTRUCTURE
     1 RES1 1

@<TRIPOS>CRYSIN
   5.7518    7.5318   13.1530  92.3140 100.6800 111.9680   2 1

