# MOL2 file generated by ConQuest
# Please check atom types

@<TRIPOS>MOLECULE
WUMJAQ
    35    37     1
SMALL
NO_CHARGES
****
Generated from CSD

@<TRIPOS>ATOM
      1 O1         5.1279    0.3103    9.8948 O.2       1 RES1    0.0000
      2 O2         7.0135    0.6657    8.9695 O.2       1 RES1    0.0000
      3 O3         6.0924    4.4923    8.0236 O.3       1 RES1    0.0000
      4 N1         5.8718    0.9929    9.2360 N.pl3     1 RES1    0.0000
      5 C1         6.4674    3.0836    8.0008 C.3       1 RES1    0.0000
      6 C2         6.5685    2.6260    6.5565 C.3       1 RES1    0.0000
      7 C3         7.8176    3.2292    5.9009 C.3       1 RES1    0.0000
      8 C4         5.3738    2.9595    5.7232 C.3       1 RES1    0.0000
      9 C5         4.7124    3.1393   10.0043 C.3       1 RES1    0.0000
     10 C6         6.7674    3.1480    3.6288 C.3       1 RES1    0.0000
     11 C7         5.4689    2.3807    8.8774 C.3       1 RES1    0.0000
     12 C8         6.1108    5.0032    9.3281 C.3       1 RES1    0.0000
     13 C9         5.5466    2.5457    4.2410 C.3       1 RES1    0.0000
     14 C10        3.9766    2.6070    8.8059 C.3       1 RES1    0.0000
     15 C11        4.8864    4.5646   10.1722 C.3       1 RES1    0.0000
     16 C12        8.0009    2.8520    4.4317 C.3       1 RES1    0.0000
     17 H1         7.3259    3.0012    8.3996 H         1 RES1    0.0000
     18 H2         6.6807    1.6830    6.5521 H         1 RES1    0.0000
     19 H3         7.7363    4.1752    5.9345 H         1 RES1    0.0000
     20 H4         8.5846    2.9591    6.3918 H         1 RES1    0.0000
     21 H5         4.6323    2.4833    6.0786 H         1 RES1    0.0000
     22 H6         5.2038    3.8931    5.7752 H         1 RES1    0.0000
     23 H7         4.5955    2.6390   10.8028 H         1 RES1    0.0000
     24 H8         6.8791    2.8710    2.7273 H         1 RES1    0.0000
     25 H9         6.6622    4.0918    3.6591 H         1 RES1    0.0000
     26 H10        6.8832    4.6603    9.7616 H         1 RES1    0.0000
     27 H11        6.1585    5.9512    9.2989 H         1 RES1    0.0000
     28 H12        5.6457    1.6025    4.1868 H         1 RES1    0.0000
     29 H13        4.7856    2.8132    3.7382 H         1 RES1    0.0000
     30 H14        3.3973    1.8607    8.9099 H         1 RES1    0.0000
     31 H15        3.6095    3.2049    8.1655 H         1 RES1    0.0000
     32 H16        4.1245    5.0336    9.8526 H         1 RES1    0.0000
     33 H17        5.0076    4.7499   11.0954 H         1 RES1    0.0000
     34 H18        8.7678    3.2748    4.0633 H         1 RES1    0.0000
     35 H19        8.1109    1.9088    4.3937 H         1 RES1    0.0000
@<TRIPOS>BOND
     1    1    4 2
     2    2    4 2
     3    3    5 1
     4    4   11 1
     5    5    6 1
     6    6    7 1
     7    7   16 1
     8    8    6 1
     9    9   11 1
    10   10   13 1
    11   11    5 1
    12   12    3 1
    13   13    8 1
    14   14    9 1
    15   15    9 1
    16   16   10 1
    17   17    5 1
    18   18    6 1
    19   19    7 1
    20   20    7 1
    21   21    8 1
    22   22    8 1
    23   23    9 1
    24   24   10 1
    25   25   10 1
    26   26   12 1
    27   27   12 1
    28   28   13 1
    29   29   13 1
    30   30   14 1
    31   31   14 1
    32   32   15 1
    33   33   15 1
    34   34   16 1
    35   35   16 1
    36   11   14 1
    37   12   15 1
@<TRIPOS>SUBSTRUCTURE
     1 RES1 1

@<TRIPOS>CRYSIN
   6.5570    8.4150   11.4930  81.4600  72.5400  89.4100   2 1

