# MOL2 file generated by ConQuest
# Please check atom types

@<TRIPOS>MOLECULE
WUMKOG
    44    46     1
SMALL
NO_CHARGES
****
Generated from CSD

@<TRIPOS>ATOM
      1 O1        -4.8043    3.8143    4.0808 O.2       1 RES1    0.0000
      2 O2        -5.4958    1.7951    3.3457 O.3       1 RES1    0.0000
      3 N1        -6.7502    2.0842    3.9870 N.2       1 RES1    0.0000
      4 N2        -6.6458   -1.5042    5.4373 N.pl3     1 RES1    0.0000
      5 N3        -7.5854   -2.8014    6.9564 N.2       1 RES1    0.0000
      6 C1        -2.2587    3.3178    2.8819 C.ar      1 RES1    0.0000
      7 H1        -2.2803    3.9867    3.5276 H         1 RES1    0.0000
      8 C2        -1.1205    3.1259    2.1312 C.ar      1 RES1    0.0000
      9 H2        -0.3728    3.6555    2.2928 H         1 RES1    0.0000
     10 C3        -1.0668    2.1573    1.1385 C.ar      1 RES1    0.0000
     11 C4        -2.1846    1.3570    0.9513 C.ar      1 RES1    0.0000
     12 H3        -2.1672    0.6998    0.2942 H         1 RES1    0.0000
     13 C5        -3.3211    1.5138    1.7184 C.ar      1 RES1    0.0000
     14 H4        -4.0487    0.9498    1.5923 H         1 RES1    0.0000
     15 C6        -3.3750    2.5176    2.6803 C.ar      1 RES1    0.0000
     16 C7        -4.6047    2.8178    3.4499 C.2       1 RES1    0.0000
     17 C8         0.1679    1.9735    0.2933 C.3       1 RES1    0.0000
     18 H5         0.5414    2.8323    0.0818 H         1 RES1    0.0000
     19 H6        -0.0652    1.5180   -0.5185 H         1 RES1    0.0000
     20 H7         0.8125    1.4539    0.7783 H         1 RES1    0.0000
     21 C9        -7.4917    1.0376    3.9448 C.2       1 RES1    0.0000
     22 C10       -8.8155    1.2020    4.6008 C.ar      1 RES1    0.0000
     23 C11       -9.9345    0.4928    4.1789 C.ar      1 RES1    0.0000
     24 H8        -9.8583   -0.1137    3.4775 H         1 RES1    0.0000
     25 C12      -11.1590    0.6827    4.7938 C.ar      1 RES1    0.0000
     26 H9       -11.9009    0.2054    4.4999 H         1 RES1    0.0000
     27 C13      -11.2880    1.5659    5.8295 C.ar      1 RES1    0.0000
     28 H10      -12.1117    1.6837    6.2452 H         1 RES1    0.0000
     29 C14      -10.1893    2.2795    6.2538 C.ar      1 RES1    0.0000
     30 H11      -10.2761    2.8875    6.9523 H         1 RES1    0.0000
     31 C15       -8.9622    2.1006    5.6539 C.ar      1 RES1    0.0000
     32 H12       -8.2266    2.5839    5.9550 H         1 RES1    0.0000
     33 C16       -7.0945   -0.2679    3.3143 C.3       1 RES1    0.0000
     34 H13       -6.6952   -0.0901    2.4485 H         1 RES1    0.0000
     35 H14       -7.8919   -0.8012    3.1675 H         1 RES1    0.0000
     36 C17       -6.1132   -1.0703    4.1535 C.3       1 RES1    0.0000
     37 H15       -5.8387   -1.8525    3.6490 H         1 RES1    0.0000
     38 H16       -5.3228   -0.5301    4.3099 H         1 RES1    0.0000
     39 C18       -6.6349   -0.8102    6.6072 C.2       1 RES1    0.0000
     40 H17       -6.3040    0.0479    6.7465 H         1 RES1    0.0000
     41 C19       -7.2027   -1.6195    7.5232 C.2       1 RES1    0.0000
     42 H18       -7.3194   -1.4020    8.4206 H         1 RES1    0.0000
     43 C20       -7.2197   -2.6917    5.7032 C.2       1 RES1    0.0000
     44 H19       -7.3436   -3.3600    5.0685 H         1 RES1    0.0000
@<TRIPOS>BOND
     1    1   16 2
     2    2    3 1
     3    3   21 2
     4    4   36 1
     5    5   41 1
     6    6    7 1
     7    8    6 ar
     8    9    8 1
     9   10    8 ar
    10   11   10 ar
    11   12   11 1
    12   13   11 ar
    13   14   13 1
    14   15    6 ar
    15   16    2 1
    16   17   10 1
    17   18   17 1
    18   19   17 1
    19   20   17 1
    20   21   22 1
    21   22   23 ar
    22   23   24 1
    23   25   23 ar
    24   26   25 1
    25   27   25 ar
    26   28   27 1
    27   29   27 ar
    28   30   29 1
    29   31   22 ar
    30   32   31 1
    31   33   21 1
    32   34   33 1
    33   35   33 1
    34   36   33 1
    35   37   36 1
    36   38   36 1
    37   39    4 1
    38   40   39 1
    39   41   39 2
    40   42   41 1
    41   43    4 1
    42   44   43 1
    43    5   43 2
    44   13   15 ar
    45   15   16 1
    46   29   31 ar
@<TRIPOS>SUBSTRUCTURE
     1 RES1 1

@<TRIPOS>CRYSIN
  16.3620    8.1179   14.4252  90.0000 113.8610  90.0000  14 1

