# MOL2 file generated by ConQuest
# Please check atom types

@<TRIPOS>MOLECULE
WUNKAT
   128   132     2
SMALL
NO_CHARGES
****
Generated from CSD

@<TRIPOS>ATOM
      1 C1         0.4223    6.1301   11.3566 C.3       1 RES1    0.0000
      2 C2        -0.6699    7.2079   11.0128 C.3       1 RES1    0.0000
      3 H1        -1.5541    6.8665   11.3318 H         1 RES1    0.0000
      4 C3        -0.2807    8.4198   11.8899 C.3       1 RES1    0.0000
      5 H2        -0.9802    8.5875   12.5704 H         1 RES1    0.0000
      6 H3        -0.1879    9.2300   11.3297 H         1 RES1    0.0000
      7 C4         1.0649    8.0906   12.5798 C.3       1 RES1    0.0000
      8 H4         0.8926    7.7349   13.4977 H         1 RES1    0.0000
      9 C5         1.6832    6.9966   11.7126 C.3       1 RES1    0.0000
     10 H5         1.9909    7.4302   10.8650 H         1 RES1    0.0000
     11 C6         2.8575    6.2346   12.2743 C.ar      1 RES1    0.0000
     12 C7         3.9365    5.9444   11.4540 C.ar      1 RES1    0.0000
     13 H6         3.9184    6.2222   10.5454 H         1 RES1    0.0000
     14 C8         5.0389    5.2584   11.9294 C.ar      1 RES1    0.0000
     15 H7         5.7697    5.0720   11.3508 H         1 RES1    0.0000
     16 C9         5.0749    4.8473   13.2447 C.ar      1 RES1    0.0000
     17 H8         5.8319    4.3787   13.5776 H         1 RES1    0.0000
     18 C10        4.0085    5.1189   14.0757 C.ar      1 RES1    0.0000
     19 H9         4.0263    4.8233   14.9780 H         1 RES1    0.0000
     20 C11        2.9129    5.8194   13.6037 C.ar      1 RES1    0.0000
     21 H10        2.1928    6.0191   14.1895 H         1 RES1    0.0000
     22 C12        1.9525    9.3072   12.6662 C.2       1 RES1    0.0000
     23 O1         2.8368    9.5606   11.9086 O.2       1 RES1    0.0000
     24 O2         1.5828   10.0933   13.6758 O.3       1 RES1    0.0000
     25 C13        2.2785   11.3708   13.7858 C.3       1 RES1    0.0000
     26 H11        3.2454   11.2154   13.8173 H         1 RES1    0.0000
     27 H12        1.9947   11.8281   14.6037 H         1 RES1    0.0000
     28 H13        2.0633   11.9279   13.0098 H         1 RES1    0.0000
     29 C14       -0.7992    7.5367    9.5375 C.3       1 RES1    0.0000
     30 H14       -1.1161    6.7387    9.0440 H         1 RES1    0.0000
     31 H15       -1.4640    8.2601    9.4141 H         1 RES1    0.0000
     32 O3         0.4681    7.9530    9.0160 O.3       1 RES1    0.0000
     33 N1         0.2906    8.5271    7.6764 N.3       1 RES1    0.0000
     34 C15        0.7982    9.9392    7.7508 C.3       1 RES1    0.0000
     35 C16        0.7212   10.5205    6.3388 C.3       1 RES1    0.0000
     36 H16       -0.2298   10.6131    6.0812 H         1 RES1    0.0000
     37 H17        1.1224   11.4255    6.3420 H         1 RES1    0.0000
     38 C17        1.4335    9.6700    5.2990 C.3       1 RES1    0.0000
     39 H18        1.3142   10.0669    4.3990 H         1 RES1    0.0000
     40 H19        2.4023    9.6344    5.4987 H         1 RES1    0.0000
     41 C18        0.8482    8.2765    5.3288 C.3       1 RES1    0.0000
     42 H20        1.3256    7.7156    4.6660 H         1 RES1    0.0000
     43 H21       -0.1016    8.3231    5.0530 H         1 RES1    0.0000
     44 C19        0.9319    7.6009    6.6965 C.3       1 RES1    0.0000
     45 C20        0.0724    6.3385    6.6344 C.3       1 RES1    0.0000
     46 H22        0.1930    5.8195    7.4585 H         1 RES1    0.0000
     47 H23        0.3441    5.7968    5.8646 H         1 RES1    0.0000
     48 H24       -0.8698    6.5899    6.5417 H         1 RES1    0.0000
     49 C21        2.3722    7.1918    7.0241 C.3       1 RES1    0.0000
     50 H25        2.9648    7.9642    6.9118 H         1 RES1    0.0000
     51 H26        2.6537    6.4743    6.4198 H         1 RES1    0.0000
     52 H27        2.4188    6.8752    7.9506 H         1 RES1    0.0000
     53 C22       -0.1804   10.7201    8.6230 C.3       1 RES1    0.0000
     54 H28       -1.0958   10.5571    8.3144 H         1 RES1    0.0000
     55 H29        0.0190   11.6776    8.5604 H         1 RES1    0.0000
     56 H30       -0.0927   10.4275    9.5550 H         1 RES1    0.0000
     57 C23        2.2072   10.1091    8.3301 C.3       1 RES1    0.0000
     58 H31        2.2893    9.5784    9.1492 H         1 RES1    0.0000
     59 H32        2.3642   11.0543    8.5351 H         1 RES1    0.0000
     60 H33        2.8683    9.8025    7.6751 H         1 RES1    0.0000
     61 C24        0.7075    5.1588   10.2884 C.1       1 RES1    0.0000
     62 N2         0.9532    4.3760    9.4890 N.1       1 RES1    0.0000
     63 C25       -0.0253    5.3717   12.5567 C.1       1 RES1    0.0000
     64 N3        -0.3838    4.8309   13.4922 N.1       1 RES1    0.0000
     65 C26        9.9158    2.7219   19.3388 C.3       2 RES2    0.0000
     66 C27        8.8136    1.6483   19.6754 C.3       2 RES2    0.0000
     67 H34        7.9396    1.9854   19.3266 H         2 RES2    0.0000
     68 C28        9.2322    0.4251   18.8152 C.3       2 RES2    0.0000
     69 H35        9.3236   -0.3799   19.3854 H         2 RES2    0.0000
     70 H36        8.5491    0.2434   18.1217 H         2 RES2    0.0000
     71 C29       10.5846    0.7698   18.1545 C.3       2 RES2    0.0000
     72 H37       10.4232    1.1327   17.2364 H         2 RES2    0.0000
     73 C30       11.1818    1.8630   19.0324 C.3       2 RES2    0.0000
     74 H38       11.4593    1.4321   19.8901 H         2 RES2    0.0000
     75 C31       12.3917    2.5917   18.4897 C.ar      2 RES2    0.0000
     76 C32       12.4776    3.0299   17.1765 C.ar      2 RES2    0.0000
     77 H39       11.7463    2.8975   16.5845 H         2 RES2    0.0000
     78 C33       13.6297    3.6605   16.7227 C.ar      2 RES2    0.0000
     79 H40       13.6788    3.9655   15.8233 H         2 RES2    0.0000
     80 C34       14.6962    3.8459   17.5659 C.ar      2 RES2    0.0000
     81 H41       15.4844    4.2684   17.2469 H         2 RES2    0.0000
     82 C35       14.6255    3.4194   18.8745 C.ar      2 RES2    0.0000
     83 H42       15.3625    3.5488   19.4590 H         2 RES2    0.0000
     84 C36       13.4734    2.8003   19.3318 C.ar      2 RES2    0.0000
     85 H43       13.4236    2.5141   20.2371 H         2 RES2    0.0000
     86 C37       11.4754   -0.4408   18.0643 C.2       2 RES2    0.0000
     87 O4        12.3307   -0.7168   18.8597 O.2       2 RES2    0.0000
     88 O5        11.1801   -1.1921   17.0051 O.3       2 RES2    0.0000
     89 C38       11.9139   -2.4266   16.8836 C.3       2 RES2    0.0000
     90 H44       12.8713   -2.2305   16.8095 H         2 RES2    0.0000
     91 H45       11.6155   -2.9063   16.0820 H         2 RES2    0.0000
     92 H46       11.7539   -2.9815   17.6759 H         2 RES2    0.0000
     93 C39        8.6372    1.3308   21.1427 C.3       2 RES2    0.0000
     94 H47        8.2812    2.1237   21.6165 H         2 RES2    0.0000
     95 H48        7.9879    0.5918   21.2485 H         2 RES2    0.0000
     96 O6         9.8922    0.9540   21.7111 O.3       2 RES2    0.0000
     97 N4         9.6842    0.3860   23.0422 N.3       2 RES2    0.0000
     98 C40       10.2281    1.3486   24.0355 C.3       2 RES2    0.0000
     99 C41       10.1185    0.6681   25.4137 C.3       2 RES2    0.0000
    100 H49       10.5286    1.2588   26.0933 H         2 RES2    0.0000
    101 H50        9.1611    0.5672   25.6433 H         2 RES2    0.0000
    102 C42       10.7775   -0.6826   25.4860 C.3       2 RES2    0.0000
    103 H51       10.6441   -1.0767   26.3835 H         2 RES2    0.0000
    104 H52       11.7514   -0.5935   25.3258 H         2 RES2    0.0000
    105 C43       10.1604   -1.5699   24.4346 C.3       2 RES2    0.0000
    106 H53        9.2068   -1.7140   24.6592 H         2 RES2    0.0000
    107 H54       10.6099   -2.4511   24.4573 H         2 RES2    0.0000
    108 C44       10.2524   -1.0039   23.0081 C.3       2 RES2    0.0000
    109 C45        9.3325   -1.8238   22.1155 C.3       2 RES2    0.0000
    110 H55        8.4031   -1.6982   22.4008 H         2 RES2    0.0000
    111 H56        9.5687   -2.7715   22.1842 H         2 RES2    0.0000
    112 H57        9.4316   -1.5302   21.1854 H         2 RES2    0.0000
    113 C46       11.6852   -1.1175   22.4748 C.3       2 RES2    0.0000
    114 H58       11.7729   -0.5848   21.6564 H         2 RES2    0.0000
    115 H59       11.8859   -2.0554   22.2767 H         2 RES2    0.0000
    116 H60       12.3126   -0.7843   23.1494 H         2 RES2    0.0000
    117 C47        9.2881    2.5622   24.0559 C.3       2 RES2    0.0000
    118 H61        9.4443    3.1093   23.2587 H         2 RES2    0.0000
    119 H62        9.4633    3.0971   24.8589 H         2 RES2    0.0000
    120 H63        8.3574    2.2550   24.0641 H         2 RES2    0.0000
    121 C48       11.6612    1.8346   23.7836 C.3       2 RES2    0.0000
    122 H64       12.2872    1.0942   23.9295 H         2 RES2    0.0000
    123 H65       11.8707    2.5666   24.4005 H         2 RES2    0.0000
    124 H66       11.7399    2.1517   22.8592 H         2 RES2    0.0000
    125 C49       10.1775    3.6980   20.4112 C.1       2 RES2    0.0000
    126 N5        10.4204    4.4576   21.2205 N.1       2 RES2    0.0000
    127 C50        9.4747    3.4774   18.1421 C.1       2 RES2    0.0000
    128 N6         9.0890    3.9979   17.1973 N.1       2 RES2    0.0000
@<TRIPOS>BOND
     1    1    2 1
     2    2    3 1
     3    4    2 1
     4    5    4 1
     5    6    4 1
     6    7    4 1
     7    8    7 1
     8    9    1 1
     9   10    9 1
    10   11    9 1
    11   12   11 ar
    12   13   12 1
    13   14   12 ar
    14   15   14 1
    15   16   14 ar
    16   17   16 1
    17   18   16 ar
    18   19   18 1
    19   20   11 ar
    20   21   20 1
    21   22    7 1
    22   23   22 2
    23   24   22 1
    24   25   24 1
    25   26   25 1
    26   27   25 1
    27   28   25 1
    28   29    2 1
    29   30   29 1
    30   31   29 1
    31   32   29 1
    32   33   32 1
    33   34   33 1
    34   35   34 1
    35   36   35 1
    36   37   35 1
    37   38   35 1
    38   39   38 1
    39   40   38 1
    40   41   38 1
    41   42   41 1
    42   43   41 1
    43   44   33 1
    44   45   44 1
    45   46   45 1
    46   47   45 1
    47   48   45 1
    48   49   44 1
    49   50   49 1
    50   51   49 1
    51   52   49 1
    52   53   34 1
    53   54   53 1
    54   55   53 1
    55   56   53 1
    56   57   34 1
    57   58   57 1
    58   59   57 1
    59   60   57 1
    60   61    1 1
    61   62   61 3
    62   63    1 1
    63   64   63 3
    64   65   66 1
    65   66   67 1
    66   68   66 1
    67   69   68 1
    68   70   68 1
    69   71   68 1
    70   72   71 1
    71   73   65 1
    72   74   73 1
    73   75   73 1
    74   76   75 ar
    75   77   76 1
    76   78   76 ar
    77   79   78 1
    78   80   78 ar
    79   81   80 1
    80   82   80 ar
    81   83   82 1
    82   84   75 ar
    83   85   84 1
    84   86   71 1
    85   87   86 2
    86   88   86 1
    87   89   88 1
    88   90   89 1
    89   91   89 1
    90   92   89 1
    91   93   66 1
    92   94   93 1
    93   95   93 1
    94   96   93 1
    95   97   96 1
    96   98   97 1
    97   99   98 1
    98  100   99 1
    99  101   99 1
   100  102   99 1
   101  103  102 1
   102  104  102 1
   103  105  102 1
   104  106  105 1
   105  107  105 1
   106  108   97 1
   107  109  108 1
   108  110  109 1
   109  111  109 1
   110  112  109 1
   111  113  108 1
   112  114  113 1
   113  115  113 1
   114  116  113 1
   115  117   98 1
   116  118  117 1
   117  119  117 1
   118  120  117 1
   119  121   98 1
   120  122  121 1
   121  123  121 1
   122  124  121 1
   123  125   65 1
   124  126  125 3
   125  127   65 1
   126  128  127 3
   127    7    9 1
   128   18   20 ar
   129   41   44 1
   130   71   73 1
   131   82   84 ar
   132  105  108 1
@<TRIPOS>SUBSTRUCTURE
     1 RES1 1
     2 RES2 65

@<TRIPOS>CRYSIN
  12.6973   17.5076   21.0277  90.0000  90.0000  90.0000  29 1

