# MOL2 file generated by ConQuest
# Please check atom types

@<TRIPOS>MOLECULE
WUPMAW
    28    30     1
SMALL
NO_CHARGES
****
Generated from CSD

@<TRIPOS>ATOM
      1 C1         1.5290   11.2492    1.6913 C.2       1 RES1    0.0000
      2 C2         1.4877    9.9716    2.2958 C.2       1 RES1    0.0000
      3 H1         1.4811    9.8680    3.2199 H         1 RES1    0.0000
      4 C3         1.5597   11.3727    0.2788 C.2       1 RES1    0.0000
      5 O1         1.4589   12.1639    4.3884 O.2       1 RES1    0.0000
      6 O2         1.5863   13.3696    1.0806 O.3       1 RES1    0.0000
      7 C4         1.5328   12.5478    2.1434 C.2       1 RES1    0.0000
      8 C5         1.4528   13.0446    3.5432 C.2       1 RES1    0.0000
      9 N1         1.3772    7.5674    2.0474 N.pl3     1 RES1    0.0000
     10 C6         1.5319   10.2204   -0.5568 C.2       1 RES1    0.0000
     11 H2         1.5510   10.2981   -1.4833 H         1 RES1    0.0000
     12 C7         1.4577    8.9120    1.4627 C.2       1 RES1    0.0000
     13 N2         1.6031   12.6389   -0.1107 N.2       1 RES1    0.0000
     14 C8         1.3605   14.4753    3.9032 C.ar      1 RES1    0.0000
     15 O3         1.3312    7.4528    3.2633 O.2       1 RES1    0.0000
     16 C9         1.4255   14.7997    5.2586 C.ar      1 RES1    0.0000
     17 H3         1.5204   14.1271    5.8941 H         1 RES1    0.0000
     18 C10        1.2018   15.5095    2.9819 C.ar      1 RES1    0.0000
     19 H4         1.1487   15.3146    2.0738 H         1 RES1    0.0000
     20 C11        1.4774    9.0148    0.0389 C.2       1 RES1    0.0000
     21 H5         1.4524    8.2439   -0.4800 H         1 RES1    0.0000
     22 O4         1.3529    6.6140    1.2853 O.2       1 RES1    0.0000
     23 C12        1.3488   16.1212    5.6577 C.ar      1 RES1    0.0000
     24 H6         1.3950   16.3307    6.5630 H         1 RES1    0.0000
     25 C13        1.1228   16.8196    3.4060 C.ar      1 RES1    0.0000
     26 H7         1.0120   17.5000    2.7805 H         1 RES1    0.0000
     27 C14        1.2052   17.1297    4.7356 C.ar      1 RES1    0.0000
     28 H8         1.1636   18.0158    5.0139 H         1 RES1    0.0000
@<TRIPOS>BOND
     1    1    2 1
     2    2    3 1
     3    4    1 1
     4    5    8 2
     5    6    7 1
     6    7    1 2
     7    8    7 1
     8    9   12 1
     9   10    4 1
    10   11   10 1
    11   12    2 2
    12   13    4 2
    13   14    8 1
    14   15    9 2
    15   16   14 ar
    16   17   16 1
    17   18   14 ar
    18   19   18 1
    19   20   10 2
    20   21   20 1
    21   22    9 2
    22   23   16 ar
    23   24   23 1
    24   25   18 ar
    25   26   25 1
    26   27   23 ar
    27   28   27 1
    28    6   13 1
    29   12   20 1
    30   25   27 ar
@<TRIPOS>SUBSTRUCTURE
     1 RES1 1

