# MOL2 file generated by ConQuest
# Please check atom types

@<TRIPOS>MOLECULE
WURTEI
    37    38     1
SMALL
NO_CHARGES
****
Generated from CSD

@<TRIPOS>ATOM
      1 C1         2.6471    7.7213    6.6076 C.3       1 RES1    0.0000
      2 C2         3.7763    7.9629    7.5816 C.3       1 RES1    0.0000
      3 C3         4.1195    9.4502    7.5791 C.3       1 RES1    0.0000
      4 C4         1.8612   10.0387    6.9793 C.3       1 RES1    0.0000
      5 C5         1.4535    8.5697    6.9635 C.3       1 RES1    0.0000
      6 C6         3.3239   11.6931    7.9022 C.3       1 RES1    0.0000
      7 C7         2.7758    5.4600    5.8303 C.2       1 RES1    0.0000
      8 C8         2.0140    4.1541    5.8588 C.ar      1 RES1    0.0000
      9 C9         2.4646    2.9783    6.4655 C.ar      1 RES1    0.0000
     10 C10        1.7733    1.7918    6.3688 C.ar      1 RES1    0.0000
     11 C11        0.5802    1.7954    5.6799 C.ar      1 RES1    0.0000
     12 C12        0.0858    2.9382    5.0774 C.ar      1 RES1    0.0000
     13 C13        0.8059    4.1093    5.1764 C.ar      1 RES1    0.0000
     14 N1         2.9550   10.2740    7.9251 N.3       1 RES1    0.0000
     15 N2         3.6993    2.9914    7.2644 N.pl3     1 RES1    0.0000
     16 N3        -0.2108    0.5497    5.6174 N.pl3     1 RES1    0.0000
     17 O1         2.1924    6.3277    6.6562 O.3       1 RES1    0.0000
     18 O2         3.6845    5.6856    5.0839 O.2       1 RES1    0.0000
     19 O3         4.2226    4.0786    7.4896 O.2       1 RES1    0.0000
     20 O4         4.1489    1.9151    7.6575 O.2       1 RES1    0.0000
     21 O5         0.1696   -0.4044    6.2766 O.2       1 RES1    0.0000
     22 O6        -1.2106    0.5476    4.9035 O.2       1 RES1    0.0000
     23 H1         2.9636    7.9126    5.6792 H         1 RES1    0.0000
     24 H2         4.5586    7.4191    7.3599 H         1 RES1    0.0000
     25 H3         3.5137    7.6652    8.4562 H         1 RES1    0.0000
     26 H4         4.7799    9.6593    8.2337 H         1 RES1    0.0000
     27 H5         4.4646    9.7085    6.6484 H         1 RES1    0.0000
     28 H6         2.1052   10.3231    6.0270 H         1 RES1    0.0000
     29 H7         1.1062   10.5719    7.2416 H         1 RES1    0.0000
     30 H8         1.1628    8.2944    7.8842 H         1 RES1    0.0000
     31 H9         0.7301    8.4314    6.3359 H         1 RES1    0.0000
     32 H10        3.5959   11.9594    6.9715 H         1 RES1    0.0000
     33 H11        4.0460   11.8343    8.5303 H         1 RES1    0.0000
     34 H12        2.5297   12.2467    8.1967 H         1 RES1    0.0000
     35 H13        2.0697    1.0243    6.7755 H         1 RES1    0.0000
     36 H14       -0.7468    2.8961    4.6094 H         1 RES1    0.0000
     37 H15        0.4746    4.9248    4.7595 H         1 RES1    0.0000
@<TRIPOS>BOND
     1    1    2 1
     2    2    3 1
     3    3   14 1
     4    4    5 1
     5    5    1 1
     6    6   14 1
     7    7    8 1
     8    8    9 ar
     9    9   10 ar
    10   10   11 ar
    11   11   12 ar
    12   12   13 ar
    13   13    8 ar
    14   14    4 1
    15   15    9 1
    16   16   11 1
    17   17    1 1
    18   18    7 2
    19   19   15 2
    20   20   15 2
    21   21   16 2
    22   22   16 2
    23   23    1 1
    24   24    2 1
    25   25    2 1
    26   26    3 1
    27   27    3 1
    28   28    4 1
    29   29    4 1
    30   30    5 1
    31   31    5 1
    32   32    6 1
    33   33    6 1
    34   34    6 1
    35   35   10 1
    36   36   12 1
    37   37   13 1
    38    7   17 1
@<TRIPOS>SUBSTRUCTURE
     1 RES1 1

@<TRIPOS>CRYSIN
   6.0400   13.3030   17.6990  90.0000  94.0960  90.0000  14 1

