# MOL2 file generated by ConQuest
# Please check atom types

@<TRIPOS>MOLECULE
WUSHIB
    38    38     1
SMALL
USER_CHARGES
****
Generated from CSD

@<TRIPOS>ATOM
      1 O1         5.5638    2.1758    5.5708 O.3       1 RES1    0.0000
      2 O2         2.0699    3.8790    7.6812 O.2       1 RES1    0.0000
      3 O3         2.7924    0.4698    8.0353 O.3       1 RES1    0.0000
      4 H1         2.2011   -0.0548    8.3433 H         1 RES1    0.0000
      5 O4         6.1811    0.7530    7.2776 O.2       1 RES1   -1.0000
      6 N1         5.4308    1.6567    6.9481 N.pl3     1 RES1    1.0000
      7 N2         4.5967    3.1175    5.3921 N.2       1 RES1    0.0000
      8 N3         3.2279    1.1393    9.1864 N.2       1 RES1    0.0000
      9 C1         3.9311    3.2089    6.5142 C.2       1 RES1    0.0000
     10 C2         4.4475    2.3336    7.5076 C.2       1 RES1    0.0000
     11 C3         2.7168    4.0738    6.6880 C.2       1 RES1    0.0000
     12 C4         2.3339    5.1146    5.6526 C.3       1 RES1    0.0000
     13 C5         3.5101    6.0567    5.3885 C.3       1 RES1    0.0000
     14 H2         3.8026    6.4591    6.2337 H         1 RES1    0.0000
     15 H3         3.2302    6.7636    4.7700 H         1 RES1    0.0000
     16 H4         4.2509    5.5516    4.9930 H         1 RES1    0.0000
     17 C6         1.9362    4.4140    4.3475 C.3       1 RES1    0.0000
     18 H5         2.7043    3.9171    3.9963 H         1 RES1    0.0000
     19 H6         1.6535    5.0839    3.6914 H         1 RES1    0.0000
     20 H7         1.1969    3.7953    4.5223 H         1 RES1    0.0000
     21 C7         1.1342    5.8845    6.2074 C.3       1 RES1    0.0000
     22 H8         0.3929    5.2630    6.3690 H         1 RES1    0.0000
     23 H9         0.8549    6.5650    5.5609 H         1 RES1    0.0000
     24 H10        1.3856    6.3178    7.0493 H         1 RES1    0.0000
     25 C8         4.0540    2.0706    8.9167 C.2       1 RES1    0.0000
     26 C9         4.6992    2.8822   10.0314 C.3       1 RES1    0.0000
     27 C10        6.1551    2.4108   10.1833 C.3       1 RES1    0.0000
     28 H11        6.1689    1.4519   10.3882 H         1 RES1    0.0000
     29 H12        6.5848    2.9061   10.9122 H         1 RES1    0.0000
     30 H13        6.6403    2.5736    9.3476 H         1 RES1    0.0000
     31 C11        4.6797    4.3713    9.6691 C.3       1 RES1    0.0000
     32 H14        5.1741    4.5115    8.8350 H         1 RES1    0.0000
     33 H15        5.0996    4.8878   10.3882 H         1 RES1    0.0000
     34 H16        3.7526    4.6674    9.5534 H         1 RES1    0.0000
     35 C12        3.9549    2.6720   11.3484 C.3       1 RES1    0.0000
     36 H17        3.0184    2.9390   11.2400 H         1 RES1    0.0000
     37 H18        4.3715    3.2155   12.0499 H         1 RES1    0.0000
     38 H19        3.9977    1.7259   11.6002 H         1 RES1    0.0000
@<TRIPOS>BOND
     1    1    6 1
     2    2   11 2
     3    3    4 1
     4    5    6 1
     5    6   10 2
     6    7    1 1
     7    8    3 1
     8    9    7 2
     9   10    9 1
    10   11    9 1
    11   12   11 1
    12   13   12 1
    13   14   13 1
    14   15   13 1
    15   16   13 1
    16   17   12 1
    17   18   17 1
    18   19   17 1
    19   20   17 1
    20   21   12 1
    21   22   21 1
    22   23   21 1
    23   24   21 1
    24   25    8 2
    25   26   25 1
    26   27   26 1
    27   28   27 1
    28   29   27 1
    29   30   27 1
    30   31   26 1
    31   32   31 1
    32   33   31 1
    33   34   31 1
    34   35   26 1
    35   36   35 1
    36   37   35 1
    37   38   35 1
    38   10   25 1
@<TRIPOS>SUBSTRUCTURE
     1 RES1 1

@<TRIPOS>CRYSIN
   6.2680   12.1800   19.1370  90.0000  95.2300  90.0000  14 1

