# MOL2 file generated by ConQuest
# Please check atom types

@<TRIPOS>MOLECULE
WUSNEE
    62    62     2
SMALL
NO_CHARGES
****
Generated from CSD

@<TRIPOS>ATOM
      1 O1        17.5747    2.6219    2.3735 O.3       1 RES1    0.0000
      2 O2        17.8936   -0.7862    1.7835 O.2       1 RES1    0.0000
      3 O3        20.4701   -0.2850    2.1642 O.3       1 RES1    0.0000
      4 O4        19.7641    1.0978   -0.1838 O.3       1 RES1    0.0000
      5 N1        17.1444    1.2948    2.1854 N.am      1 RES1    0.0000
      6 N2        21.7915    2.8528    2.2733 N.ar      1 RES1    0.0000
      7 C1        18.1638    0.3842    2.0287 C.2       1 RES1    0.0000
      8 C2        19.6190    0.8460    2.1916 C.3       1 RES1    0.0000
      9 C3        20.6072   -0.9485    3.4005 C.3       1 RES1    0.0000
     10 C4        21.4276    0.0331    5.4985 C.2       1 RES1    0.0000
     11 C5        20.0464    1.7598    1.0253 C.3       1 RES1    0.0000
     12 C6        21.5058    2.1190    1.1888 C.ar      1 RES1    0.0000
     13 C7        22.4627    1.7267    0.2667 C.ar      1 RES1    0.0000
     14 C8        23.7721    2.1359    0.4623 C.ar      1 RES1    0.0000
     15 C9        24.0778    2.8834    1.5729 C.ar      1 RES1    0.0000
     16 C10       23.0837    3.2112    2.4345 C.ar      1 RES1    0.0000
     17 C11       15.9802    1.1664    1.2540 C.3       1 RES1    0.0000
     18 C12       14.6997    1.6338    1.9249 C.ar      1 RES1    0.0000
     19 C13       14.1773    0.9259    3.0485 C.ar      1 RES1    0.0000
     20 C14       14.7462   -0.2720    3.5440 C.ar      1 RES1    0.0000
     21 C15       14.2197   -0.9154    4.6356 C.ar      1 RES1    0.0000
     22 C16       13.1026   -0.3657    5.3159 C.ar      1 RES1    0.0000
     23 C17       12.5358    0.7790    4.8549 C.ar      1 RES1    0.0000
     24 C18       13.0278    1.4466    3.7063 C.ar      1 RES1    0.0000
     25 C19       12.3969    2.5961    3.1943 C.ar      1 RES1    0.0000
     26 C20       12.8756    3.2176    2.0908 C.ar      1 RES1    0.0000
     27 C21       14.0338    2.7494    1.4508 C.ar      1 RES1    0.0000
     28 C22       16.3116    1.8017   -0.0818 C.3       1 RES1    0.0000
     29 C23       17.4295    3.1692    3.7537 C.3       1 RES1    0.0000
     30 C24       18.6196    4.1015    3.8426 C.3       1 RES1    0.0000
     31 C25       16.1411    3.9506    3.8379 C.3       1 RES1    0.0000
     32 C26       17.4678    2.0802    4.8039 C.3       1 RES1    0.0000
     33 C27       21.6023   -0.1388    4.2243 C.2       1 RES1    0.0000
     34 H1        20.0418    1.2020    2.7214 H         1 RES1    0.0000
     35 H2        19.6195    2.1553    1.3299 H         1 RES1    0.0000
     36 H3        22.1995    1.2092   -0.5476 H         1 RES1    0.0000
     37 H4        24.4906    1.9188   -0.2015 H         1 RES1    0.0000
     38 H5        25.0328    3.2128    1.7340 H         1 RES1    0.0000
     39 H6        23.3103    3.8182    3.2524 H         1 RES1    0.0000
     40 H7        15.8953    0.4553    1.3903 H         1 RES1    0.0000
     41 H8        15.5612   -0.6143    3.0770 H         1 RES1    0.0000
     42 H9        14.6355   -1.7404    4.9734 H         1 RES1    0.0000
     43 H10       12.7202   -0.7846    6.1267 H         1 RES1    0.0000
     44 H11       11.7500    1.2205    5.3562 H         1 RES1    0.0000
     45 H12       11.6099    3.0368    3.6826 H         1 RES1    0.0000
     46 H13       12.3516    4.0418    1.7151 H         1 RES1    0.0000
     47 H14       14.3907    3.2733    0.6365 H         1 RES1    0.0000
     48 H15       15.5335    1.7428   -0.7076 H         1 RES1    0.0000
     49 H16       17.1098    1.3836   -0.4871 H         1 RES1    0.0000
     50 H17       16.5174    2.8075    0.0450 H         1 RES1    0.0000
     51 H18       18.6561    4.5851    4.7340 H         1 RES1    0.0000
     52 H19       19.4819    3.6212    3.7063 H         1 RES1    0.0000
     53 H20       18.5715    4.8466    3.1244 H         1 RES1    0.0000
     54 H21       16.0168    4.3703    4.7434 H         1 RES1    0.0000
     55 H22       16.1523    4.7425    3.1587 H         1 RES1    0.0000
     56 H23       15.3596    3.3904    3.6151 H         1 RES1    0.0000
     57 H24       17.8518    2.5936    5.5755 H         1 RES1    0.0000
     58 H25       18.3351    1.6322    4.7648 H         1 RES1    0.0000
     59 H26       16.7125    1.4748    4.6593 H         1 RES1    0.0000
     60 H27       19.6984    1.7937   -0.8878 H         1 RES1    0.0000
     61 C28       21.1048   -0.5005    4.7340 Du        2 SUP2    0.0000
     62 C29       22.0624    0.4682    4.7411 Du        2 SUP2    0.0000
@<TRIPOS>BOND
     1    1    5 1
     2    2    7 2
     3    3    8 1
     4    4   11 1
     5    5    7 1
     6    6   12 ar
     7    7    8 1
     8    8   11 1
     9    9    3 1
    10   10   33 2
    11   11   12 1
    12   12   13 ar
    13   13   14 ar
    14   14   15 ar
    15   15   16 ar
    16   16    6 ar
    17   17    5 1
    18   18   17 1
    19   19   18 ar
    20   20   19 ar
    21   21   20 ar
    22   22   21 ar
    23   23   22 ar
    24   24   19 ar
    25   25   24 ar
    26   26   25 ar
    27   27   18 ar
    28   28   17 1
    29   29    1 1
    30   30   29 1
    31   31   29 1
    32   32   29 1
    33   33    9 1
    34   34    8 1
    35   35   11 1
    36   36   13 1
    37   37   14 1
    38   38   15 1
    39   39   16 1
    40   40   17 1
    41   41   20 1
    42   42   21 1
    43   43   22 1
    44   44   23 1
    45   45   25 1
    46   46   26 1
    47   47   27 1
    48   48   28 1
    49   49   28 1
    50   50   28 1
    51   51   30 1
    52   52   30 1
    53   53   30 1
    54   54   31 1
    55   55   31 1
    56   56   31 1
    57   57   32 1
    58   58   32 1
    59   59   32 1
    60   60    4 1
    61   23   24 ar
    62   26   27 ar
@<TRIPOS>SUBSTRUCTURE
     1 RES1 1
     2 SUP2 61

@<TRIPOS>CRYSIN
  25.6677    8.0723   12.5059  90.0000 108.6000  90.0000   5 1

