# MOL2 file generated by ConQuest
# Please check atom types

@<TRIPOS>MOLECULE
WUSNAA
    61    63     1
SMALL
NO_CHARGES
****
Generated from CSD

@<TRIPOS>ATOM
      1 O1        -0.0687   -5.2840   -6.9225 O.3       1 RES1    0.0000
      2 O2         1.8533   -3.3692   -4.7585 O.2       1 RES1    0.0000
      3 O3         0.3770   -3.0466   -2.4742 O.3       1 RES1    0.0000
      4 N1         1.0080   -4.4609   -6.5286 N.am      1 RES1    0.0000
      5 C1         2.9625   -3.7262   -7.9546 C.ar      1 RES1    0.0000
      6 C2         2.9905   -2.4359   -7.4601 C.ar      1 RES1    0.0000
      7 C3         3.7264   -1.4200   -8.1292 C.ar      1 RES1    0.0000
      8 C4         4.4361   -1.7024   -9.2406 C.ar      1 RES1    0.0000
      9 C5         4.4388   -2.9973   -9.7850 C.ar      1 RES1    0.0000
     10 C6         3.6649   -4.0189   -9.1590 C.ar      1 RES1    0.0000
     11 C7         3.6604   -5.2977   -9.7827 C.ar      1 RES1    0.0000
     12 C8         4.3764   -5.5273  -10.9259 C.ar      1 RES1    0.0000
     13 C9         5.1774   -4.5424  -11.4862 C.ar      1 RES1    0.0000
     14 C10        5.2036   -3.3118  -10.9395 C.ar      1 RES1    0.0000
     15 C11        2.2999   -4.8397   -7.1720 C.3       1 RES1    0.0000
     16 C12        3.2780   -5.4849   -6.1808 C.3       1 RES1    0.0000
     17 C13       -0.8887   -4.7490   -8.0249 C.3       1 RES1    0.0000
     18 C14       -1.0984   -3.2682   -7.8933 C.3       1 RES1    0.0000
     19 C15       -2.1435   -5.5446   -7.8729 C.3       1 RES1    0.0000
     20 C16       -0.2124   -5.0819   -9.3518 C.3       1 RES1    0.0000
     21 C17        0.9022   -3.9788   -5.2649 C.2       1 RES1    0.0000
     22 C18       -0.3697   -4.2244   -4.4894 C.3       1 RES1    0.0000
     23 C19       -0.2513   -5.5870   -3.8015 C.3       1 RES1    0.0000
     24 C20       -0.6120   -3.0753   -3.4908 C.3       1 RES1    0.0000
     25 C21       -1.9744   -3.1959   -2.8436 C.ar      1 RES1    0.0000
     26 C22       -2.1209   -3.4094   -1.4879 C.ar      1 RES1    0.0000
     27 C23       -3.3820   -3.5345   -0.9254 C.ar      1 RES1    0.0000
     28 C24       -4.4985   -3.4277   -1.7102 C.ar      1 RES1    0.0000
     29 C25       -4.3719   -3.1901   -3.0553 C.ar      1 RES1    0.0000
     30 C26       -3.1153   -3.0742   -3.6155 C.ar      1 RES1    0.0000
     31 H1         1.1933   -3.0994   -3.0167 H         1 RES1    0.0000
     32 H2         2.4996   -2.2293   -6.5755 H         1 RES1    0.0000
     33 H3         3.6957   -0.4626   -7.7300 H         1 RES1    0.0000
     34 H4         5.0309   -0.9436   -9.6761 H         1 RES1    0.0000
     35 H5         3.1379   -6.0382   -9.3382 H         1 RES1    0.0000
     36 H6         4.2743   -6.4526  -11.3977 H         1 RES1    0.0000
     37 H7         5.7813   -4.7559  -12.3004 H         1 RES1    0.0000
     38 H8         5.7768   -2.5771  -11.3728 H         1 RES1    0.0000
     39 H9         1.9943   -5.5124   -7.8888 H         1 RES1    0.0000
     40 H10        2.8594   -6.2459   -5.6524 H         1 RES1    0.0000
     41 H11        4.0862   -5.8740   -6.6640 H         1 RES1    0.0000
     42 H12        3.6206   -4.8076   -5.5163 H         1 RES1    0.0000
     43 H13       -1.6797   -2.8767   -8.6124 H         1 RES1    0.0000
     44 H14       -0.2450   -2.7493   -7.8434 H         1 RES1    0.0000
     45 H15       -1.6019   -3.0696   -6.9929 H         1 RES1    0.0000
     46 H16       -2.8269   -5.3218   -8.6010 H         1 RES1    0.0000
     47 H17       -1.9509   -6.5559   -7.9863 H         1 RES1    0.0000
     48 H18       -2.5674   -5.4171   -6.9906 H         1 RES1    0.0000
     49 H19       -0.7205   -4.7341  -10.1343 H         1 RES1    0.0000
     50 H20       -0.0823   -6.0749   -9.4561 H         1 RES1    0.0000
     51 H21        0.7250   -4.6572   -9.3813 H         1 RES1    0.0000
     52 H22       -1.1852   -4.2061   -5.1171 H         1 RES1    0.0000
     53 H23       -1.0704   -5.8063   -3.2481 H         1 RES1    0.0000
     54 H24       -0.1031   -6.3320   -4.4547 H         1 RES1    0.0000
     55 H25        0.5442   -5.5813   -3.1573 H         1 RES1    0.0000
     56 H26       -0.5388   -2.1845   -3.9920 H         1 RES1    0.0000
     57 H27       -1.2729   -3.4243   -0.8755 H         1 RES1    0.0000
     58 H28       -3.4706   -3.6723    0.0862 H         1 RES1    0.0000
     59 H29       -5.4486   -3.5632   -1.2747 H         1 RES1    0.0000
     60 H30       -5.2090   -3.0994   -3.6518 H         1 RES1    0.0000
     61 H31       -3.0158   -2.8630   -4.6203 H         1 RES1    0.0000
@<TRIPOS>BOND
     1    1    4 1
     2    2   21 2
     3    3   24 1
     4    4   15 1
     5    5    6 ar
     6    6    7 ar
     7    7    8 ar
     8    8    9 ar
     9    9   10 ar
    10   10    5 ar
    11   11   10 ar
    12   12   11 ar
    13   13   12 ar
    14   14    9 ar
    15   15    5 1
    16   16   15 1
    17   17    1 1
    18   18   17 1
    19   19   17 1
    20   20   17 1
    21   21    4 1
    22   22   21 1
    23   23   22 1
    24   24   22 1
    25   25   24 1
    26   26   25 ar
    27   27   26 ar
    28   28   27 ar
    29   29   28 ar
    30   30   25 ar
    31   31    3 1
    32   32    6 1
    33   33    7 1
    34   34    8 1
    35   35   11 1
    36   36   12 1
    37   37   13 1
    38   38   14 1
    39   39   15 1
    40   40   16 1
    41   41   16 1
    42   42   16 1
    43   43   18 1
    44   44   18 1
    45   45   18 1
    46   46   19 1
    47   47   19 1
    48   48   19 1
    49   49   20 1
    50   50   20 1
    51   51   20 1
    52   52   22 1
    53   53   23 1
    54   54   23 1
    55   55   23 1
    56   56   24 1
    57   57   26 1
    58   58   27 1
    59   59   28 1
    60   60   29 1
    61   61   30 1
    62   13   14 ar
    63   29   30 ar
@<TRIPOS>SUBSTRUCTURE
     1 RES1 1

@<TRIPOS>CRYSIN
   9.0403   11.4794   22.6820  90.0000  90.0000  90.0000  19 1

