# MOL2 file generated by ConQuest
# Please check atom types

@<TRIPOS>MOLECULE
WUSPAB
    13     9     2
SMALL
NO_CHARGES
****
Generated from CSD

@<TRIPOS>ATOM
      1 O1         2.8825    1.4873    5.1379 O.2       1 RES1    0.0000
      2 O2         1.0125    1.4873    3.8668 O.3       1 RES1    0.0000
      3 O3         4.7341    1.4872    1.3329 O.2       1 RES1    0.0000
      4 O4         5.1403    1.4873    3.4559 O.2       1 RES1    0.0000
      5 N1         2.2582    1.4872    1.6716 N.1       1 RES1    0.0000
      6 N2         1.6262    1.4872    0.7578 N.2       1 RES1    0.0000
      7 N3         4.3765    1.4873    2.5163 N.pl3     1 RES1    0.0000
      8 C1         2.3255    1.4873    4.0693 C.2       1 RES1    0.0000
      9 C2         2.9881    1.4873    2.7799 C.2       1 RES1    0.0000
     10 C3         0.1705    1.4873    5.0392 C.3       1 RES1    0.0000
     11 H1         0.2291    2.3403    5.4759 Du        2 SUP2    0.0000
     12 H2         0.4609    0.7990    5.6423 Du        2 SUP2    0.0000
     13 H3        -0.7394    1.3225    4.7807 Du        2 SUP2    0.0000
@<TRIPOS>BOND
     1    1    8 2
     2    2    8 1
     3    3    7 2
     4    4    7 2
     5    5    6 2
     6    7    9 1
     7    8    9 1
     8    9    5 2
     9   10    2 1
@<TRIPOS>SUBSTRUCTURE
     1 RES1 1
     2 SUP2 11

@<TRIPOS>CRYSIN
  13.3220    5.9490    7.3640  90.0000  90.0000  90.0000  62 1

