# MOL2 file generated by ConQuest
# Please check atom types

@<TRIPOS>MOLECULE
WUSVOW
    55    58     1
SMALL
NO_CHARGES
****
Generated from CSD

@<TRIPOS>ATOM
      1 C1        -1.9929    2.8665    5.4151 C.ar      1 RES1    0.0000
      2 H1        -1.2723    2.3324    5.1723 H         1 RES1    0.0000
      3 C2        -3.0867    2.2901    6.0212 C.ar      1 RES1    0.0000
      4 H2        -3.1125    1.3748    6.1831 H         1 RES1    0.0000
      5 C3        -4.1254    3.0860    6.3785 C.ar      1 RES1    0.0000
      6 C4        -4.1440    4.4248    6.1238 C.ar      1 RES1    0.0000
      7 H3        -4.8744    4.9460    6.3667 H         1 RES1    0.0000
      8 C5        -3.0511    4.9845    5.4980 C.ar      1 RES1    0.0000
      9 H4        -3.0538    5.8934    5.3006 H         1 RES1    0.0000
     10 C6        -1.9467    4.2156    5.1605 C.ar      1 RES1    0.0000
     11 C7        -0.7828    4.8677    4.5228 C.3       1 RES1    0.0000
     12 H5        -0.9267    5.8356    4.4695 H         1 RES1    0.0000
     13 C8         0.6060    4.5712    5.1506 C.3       1 RES1    0.0000
     14 H6         0.5580    3.7483    5.6816 H         1 RES1    0.0000
     15 C9         1.0751    5.7265    6.0370 C.2       1 RES1    0.0000
     16 C10        0.2870    6.0872    7.2313 C.ar      1 RES1    0.0000
     17 C11       -0.5002    5.1796    7.9065 C.ar      1 RES1    0.0000
     18 H7        -0.5455    4.2978    7.6163 H         1 RES1    0.0000
     19 C12       -1.2270    5.5840    9.0239 C.ar      1 RES1    0.0000
     20 H8        -1.7557    4.9678    9.4779 H         1 RES1    0.0000
     21 C13       -1.1702    6.8741    9.4602 C.ar      1 RES1    0.0000
     22 H9        -1.6517    7.1321   10.2123 H         1 RES1    0.0000
     23 C14       -0.4105    7.7830    8.7969 C.ar      1 RES1    0.0000
     24 H10       -0.3989    8.6687    9.0792 H         1 RES1    0.0000
     25 C15        0.3492    7.3978    7.6992 C.ar      1 RES1    0.0000
     26 H11        0.9009    8.0166    7.2787 H         1 RES1    0.0000
     27 C16        1.5291    4.3491    3.9325 C.3       1 RES1    0.0000
     28 H12        2.2408    5.0218    3.9404 H         1 RES1    0.0000
     29 C17        2.1449    2.9717    3.8812 C.2       1 RES1    0.0000
     30 C18        3.8375    1.7317    2.7342 C.3       1 RES1    0.0000
     31 H13        3.2182    1.0192    2.5131 H         1 RES1    0.0000
     32 H14        4.3270    1.4788    3.5318 H         1 RES1    0.0000
     33 C19        4.7828    1.9704    1.5971 C.3       1 RES1    0.0000
     34 H15        4.2826    2.1514    0.7976 H         1 RES1    0.0000
     35 H16        5.3266    1.1913    1.4648 H         1 RES1    0.0000
     36 H17        5.3444    2.7214    1.8004 H         1 RES1    0.0000
     37 C20        0.8192    5.7868    2.0590 C.ar      1 RES1    0.0000
     38 C21        2.0596    6.0371    1.4668 C.ar      1 RES1    0.0000
     39 H18        2.7588    5.4325    1.5655 H         1 RES1    0.0000
     40 C22        2.2346    7.1732    0.7423 C.ar      1 RES1    0.0000
     41 H19        3.0662    7.3452    0.3632 H         1 RES1    0.0000
     42 C23        1.2146    8.0705    0.5587 C.ar      1 RES1    0.0000
     43 H20        1.3488    8.8356    0.0474 H         1 RES1    0.0000
     44 C24       -0.0133    7.8266    1.1411 C.ar      1 RES1    0.0000
     45 H21       -0.7064    8.4389    1.0364 H         1 RES1    0.0000
     46 C25       -0.2141    6.6828    1.8695 C.ar      1 RES1    0.0000
     47 H22       -1.0502    6.5108    2.2387 H         1 RES1    0.0000
     48 N1        -5.2857    2.4544    7.0497 N.pl3     1 RES1    0.0000
     49 N2         0.6859    4.5417    2.7303 N.3       1 RES1    0.0000
     50 O1        -5.2920    1.2503    7.2017 O.2       1 RES1    0.0000
     51 O2        -6.2027    3.2156    7.4110 O.2       1 RES1    0.0000
     52 O3        -0.6646    4.3157    3.1997 O.3       1 RES1    0.0000
     53 O4         2.0631    6.3902    5.7270 O.2       1 RES1    0.0000
     54 O5         1.8508    2.0295    4.5346 O.2       1 RES1    0.0000
     55 O6         3.1133    2.9781    2.9593 O.3       1 RES1    0.0000
@<TRIPOS>BOND
     1    1    2 1
     2    3    1 ar
     3    4    3 1
     4    5    3 ar
     5    6    5 ar
     6    7    6 1
     7    8    6 ar
     8    9    8 1
     9   10    1 ar
    10   11   10 1
    11   12   11 1
    12   13   11 1
    13   14   13 1
    14   15   13 1
    15   16   15 1
    16   17   16 ar
    17   18   17 1
    18   19   17 ar
    19   20   19 1
    20   21   19 ar
    21   22   21 1
    22   23   21 ar
    23   24   23 1
    24   25   16 ar
    25   26   25 1
    26   27   13 1
    27   28   27 1
    28   29   27 1
    29   30   31 1
    30   32   30 1
    31   33   30 1
    32   34   33 1
    33   35   33 1
    34   36   33 1
    35   37   38 ar
    36   38   39 1
    37   40   38 ar
    38   41   40 1
    39   42   40 ar
    40   43   42 1
    41   44   42 ar
    42   45   44 1
    43   46   37 ar
    44   47   46 1
    45   48    5 1
    46   49   27 1
    47   50   48 2
    48   51   48 2
    49   52   11 1
    50   53   15 2
    51   54   29 2
    52   55   29 1
    53    8   10 ar
    54   23   25 ar
    55   30   55 1
    56   37   49 1
    57   44   46 ar
    58   49   52 1
@<TRIPOS>SUBSTRUCTURE
     1 RES1 1

@<TRIPOS>CRYSIN
   8.8851   12.8368   19.7416  90.0000  90.0000  90.0000  19 1

