# MOL2 file generated by ConQuest
# Please check atom types

@<TRIPOS>MOLECULE
WUTCOE
    37    39     1
SMALL
NO_CHARGES
****
Generated from CSD

@<TRIPOS>ATOM
      1 C1         0.1584    4.5838    2.9388 C.2       1 RES1    0.0000
      2 C2         0.9611    5.8503    3.1246 C.3       1 RES1    0.0000
      3 H1         0.3498    6.6288    3.2687 H         1 RES1    0.0000
      4 C3         1.9673    5.7515    4.2654 C.ar      1 RES1    0.0000
      5 C4         2.0475    6.7518    5.2090 C.ar      1 RES1    0.0000
      6 H2         1.4715    7.5049    5.1507 H         1 RES1    0.0000
      7 C5         2.9633    6.6637    6.2404 C.ar      1 RES1    0.0000
      8 H3         3.0110    7.3564    6.8887 H         1 RES1    0.0000
      9 C6         3.8055    5.5824    6.3350 C.ar      1 RES1    0.0000
     10 H4         4.4297    5.5232    7.0495 H         1 RES1    0.0000
     11 C7         3.7382    4.5838    5.3871 C.ar      1 RES1    0.0000
     12 H5         4.3219    3.8355    5.4441 H         1 RES1    0.0000
     13 C8         2.8237    4.6678    4.3523 C.ar      1 RES1    0.0000
     14 H6         2.7833    3.9787    3.6985 H         1 RES1    0.0000
     15 C9         1.2646    4.8577    1.0443 C.2       1 RES1    0.0000
     16 C10        1.5925    5.9290    1.7555 C.2       1 RES1    0.0000
     17 C11        2.4374    6.9677    1.2047 C.2       1 RES1    0.0000
     18 C12        2.8498    6.7406   -0.2291 C.3       1 RES1    0.0000
     19 H7         3.7042    7.2156   -0.3887 H         1 RES1    0.0000
     20 H8         2.1675    7.1494   -0.8186 H         1 RES1    0.0000
     21 C13        3.0275    5.2736   -0.6375 C.3       1 RES1    0.0000
     22 C14        4.2172    4.6791    0.1194 C.3       1 RES1    0.0000
     23 H9         4.0522    4.7353    1.0840 H         1 RES1    0.0000
     24 H10        5.0298    5.1801   -0.1028 H         1 RES1    0.0000
     25 H11        4.3326    3.7403   -0.1383 H         1 RES1    0.0000
     26 C15        3.2887    5.1813   -2.1358 C.3       1 RES1    0.0000
     27 H12        2.5271    5.5587   -2.6239 H         1 RES1    0.0000
     28 H13        3.4073    4.2425   -2.3903 H         1 RES1    0.0000
     29 H14        4.1002    5.6847   -2.3567 H         1 RES1    0.0000
     30 C16        1.7293    4.4981   -0.3091 C.3       1 RES1    0.0000
     31 H15        1.0297    4.7211   -0.9737 H         1 RES1    0.0000
     32 H16        1.9008    3.5238   -0.3551 H         1 RES1    0.0000
     33 N1        -0.6028    4.0704    3.8092 N.2       1 RES1    0.0000
     34 O1        -1.1721    2.8660    3.3515 O.3       1 RES1    0.0000
     35 H17       -1.6743    2.5501    3.9452 H         1 RES1    0.0000
     36 O2         0.3799    4.0148    1.6994 O.3       1 RES1    0.0000
     37 O3         2.7487    7.9680    1.8274 O.2       1 RES1    0.0000
@<TRIPOS>BOND
     1    1    2 1
     2    2    3 1
     3    4    2 1
     4    5    4 ar
     5    6    5 1
     6    7    5 ar
     7    8    7 1
     8    9    7 ar
     9   10    9 1
    10   11    9 ar
    11   12   11 1
    12   13    4 ar
    13   14   13 1
    14   15   16 2
    15   16    2 1
    16   17   16 1
    17   18   17 1
    18   19   18 1
    19   20   18 1
    20   21   18 1
    21   22   21 1
    22   23   22 1
    23   24   22 1
    24   25   22 1
    25   26   21 1
    26   27   26 1
    27   28   26 1
    28   29   26 1
    29   30   15 1
    30   31   30 1
    31   32   30 1
    32   33    1 2
    33   34   33 1
    34   35   34 1
    35   36    1 1
    36   37   17 2
    37   11   13 ar
    38   15   36 1
    39   21   30 1
@<TRIPOS>SUBSTRUCTURE
     1 RES1 1

@<TRIPOS>CRYSIN
  12.2846    5.9154   19.4680  90.0000 106.2640  90.0000  14 1

