# MOL2 file generated by ConQuest
# Please check atom types

@<TRIPOS>MOLECULE
WUTWUF
    42    63     1
SMALL
NO_CHARGES
****
Generated from CSD

@<TRIPOS>ATOM
      1 O1         2.2195    2.2961    8.5138 O.3       1 RES1    0.0000
      2 O2         3.3075    2.2961    6.5078 O.2       1 RES1    0.0000
      3 O3         1.0307    2.4972    5.2203 O.3       1 RES1    0.0000
      4 N1         1.0515    2.5870    6.6463 N.2       1 RES1    0.0000
      5 C1         2.2835    2.2961    7.1448 C.3       1 RES1    0.0000
      6 C2        -0.3629    2.2961    4.7856 C.3       1 RES1    0.0000
      7 H1        -0.4127    2.2961    3.7886 H         1 RES1    0.0000
      8 C3        -1.1907    3.4937    5.2980 C.3       1 RES1    0.0000
      9 H2        -2.1134    3.4349    4.9438 H         1 RES1    0.0000
     10 H3        -0.7887    4.3395    4.9751 H         1 RES1    0.0000
     11 C4        -1.1961    3.4376    6.8232 C.3       1 RES1    0.0000
     12 H4        -0.8783    4.3037    7.1821 H         1 RES1    0.0000
     13 H5        -2.1165    3.2778    7.1508 H         1 RES1    0.0000
     14 C5        -0.2603    2.2961    7.2787 C.3       1 RES1    0.0000
     15 H6        -0.1195    2.2961    8.2480 H         1 RES1    0.0000
     16 C6        -0.7787    1.0240    6.7307 C.3       1 RES1    0.0000
     17 H7        -1.0337    0.2930    7.2809 H         1 RES1    0.0000
     18 C7        -0.8354    1.0387    5.3952 C.3       1 RES1    0.0000
     19 H8        -1.1700    0.3003    4.9014 H         1 RES1    0.0000
     20 C8         3.4650    2.2961    9.1743 C.2       1 RES1    0.0000
     21 C9         4.0392    1.0883    9.5167 C.2       1 RES1    0.0000
     22 H9         3.6249    0.2691    9.2731 H         1 RES1    0.0000
     23 C10        5.2410    1.0942   10.2255 C.2       1 RES1    0.0000
     24 H10        5.6525    0.2728   10.4659 H         1 RES1    0.0000
     25 C11        5.8356    2.2961   10.5794 C.2       1 RES1    0.0000
     26 H11        6.6518    2.2961   11.0663 H         1 RES1    0.0000
     27 O3G        1.0307    2.0949    5.2203 O.3       1 RES1    0.0000
     28 N1G        1.0515    2.0051    6.6463 N.2       1 RES1    0.0000
     29 C3G       -1.1907    1.0984    5.2980 C.3       1 RES1    0.0000
     30 H2G       -2.1134    1.1572    4.9438 H         1 RES1    0.0000
     31 H3G       -0.7887    0.2526    4.9751 H         1 RES1    0.0000
     32 C4G       -1.1961    1.1545    6.8232 C.3       1 RES1    0.0000
     33 H4G       -0.8783    0.2884    7.1821 H         1 RES1    0.0000
     34 H5G       -2.1165    1.3143    7.1508 H         1 RES1    0.0000
     35 C6G       -0.7787    3.5681    6.7307 C.3       1 RES1    0.0000
     36 H7G       -1.0337    4.2991    7.2809 H         1 RES1    0.0000
     37 C7G       -0.8354    3.5534    5.3952 C.3       1 RES1    0.0000
     38 H8G       -1.1700    4.2918    4.9014 H         1 RES1    0.0000
     39 C9G        4.0392    3.5038    9.5167 C.2       1 RES1    0.0000
     40 H9G        3.6249    4.3230    9.2731 H         1 RES1    0.0000
     41 C10G       5.2410    3.4979   10.2255 C.2       1 RES1    0.0000
     42 H10G       5.6525    4.3193   10.4659 H         1 RES1    0.0000
@<TRIPOS>BOND
     1    1    5 1
     2    2    5 1
     3    3    4 1
     4    4    5 1
     5    5   28 1
     6    6    3 1
     7    7    6 1
     8    8    6 1
     9    9    8 1
    10   10    8 1
    11   11    8 1
    12   12   11 1
    13   13   11 1
    14   14    4 1
    15   15   14 1
    16   16   14 1
    17   17   16 1
    18   18    6 1
    19   19   18 1
    20   20    1 1
    21   21   20 1
    22   22   21 1
    23   23   21 1
    24   24   23 1
    25   25   23 1
    26   26   25 1
    27   27    4 1
    28   28    3 1
    29   29    6 1
    30   30   29 1
    31   31   18 1
    32   32   14 1
    33   33   16 1
    34   34   32 1
    35   35    8 1
    36   36   11 1
    37   37    6 1
    38   38    8 1
    39   39   20 1
    40   40   39 1
    41   41   25 1
    42   42   41 1
    43    4   28 1
    44    6   27 1
    45   10   37 1
    46   11   14 1
    47   11   37 1
    48   12   35 1
    49   14   28 1
    50   14   35 1
    51   16   18 1
    52   16   29 1
    53   17   32 1
    54   18   32 1
    55   19   29 1
    56   27   28 1
    57   29   31 1
    58   29   32 1
    59   32   33 1
    60   35   36 1
    61   35   37 1
    62   37   38 1
    63   39   41 1
@<TRIPOS>SUBSTRUCTURE
     1 RES1 1

@<TRIPOS>CRYSIN
   7.6572    9.1842   15.6746  90.0000  90.0000  90.0000  62 1

