# MOL2 file generated by ConQuest
# Please check atom types

@<TRIPOS>MOLECULE
WUTWIT
    29    31     1
SMALL
NO_CHARGES
****
Generated from CSD

@<TRIPOS>ATOM
      1 O1         3.3717    2.6265    1.1324 O.3       1 RES1    0.0000
      2 O2         5.5943    0.3106    2.4767 O.2       1 RES1    0.0000
      3 N1         3.9418    1.3169    1.3019 N.am      1 RES1    0.0000
      4 C1         5.1856    1.3067    1.8830 C.2       1 RES1    0.0000
      5 C2         2.9339    0.3187    1.7277 C.3       1 RES1    0.0000
      6 H1         3.3334   -0.5964    1.7867 H         1 RES1    0.0000
      7 C3         2.4227    0.7792    3.0720 C.2       1 RES1    0.0000
      8 H2         2.4318    0.2417    3.8549 H         1 RES1    0.0000
      9 C4         1.9549    2.0340    3.0303 C.2       1 RES1    0.0000
     10 H3         1.6340    2.4985    3.7939 H         1 RES1    0.0000
     11 C5         1.9902    2.6310    1.6561 C.3       1 RES1    0.0000
     12 H4         1.6305    3.5637    1.6747 H         1 RES1    0.0000
     13 C6         1.1726    1.7697    0.6991 C.3       1 RES1    0.0000
     14 H5         1.1904    2.1583   -0.2115 H         1 RES1    0.0000
     15 H6         0.2311    1.7206    1.0019 H         1 RES1    0.0000
     16 C7         1.8020    0.3661    0.6898 C.3       1 RES1    0.0000
     17 H7         1.1153   -0.3122    0.9092 H         1 RES1    0.0000
     18 H8         2.1614    0.1639   -0.2103 H         1 RES1    0.0000
     19 C8         6.0624    2.4929    1.6543 C.ar      1 RES1    0.0000
     20 C9         6.9112    2.8921    2.6856 C.ar      1 RES1    0.0000
     21 H9         6.8944    2.4353    3.5180 H         1 RES1    0.0000
     22 C10        7.7828    3.9597    2.4963 C.ar      1 RES1    0.0000
     23 H10        8.3445    4.2472    3.2058 H         1 RES1    0.0000
     24 C11        7.8293    4.6040    1.2670 C.ar      1 RES1    0.0000
     25 H11        8.4278    5.3300    1.1365 H         1 RES1    0.0000
     26 C12        7.0049    4.1918    0.2262 C.ar      1 RES1    0.0000
     27 H12        7.0530    4.6247   -0.6186 H         1 RES1    0.0000
     28 C13        6.1085    3.1449    0.4208 C.ar      1 RES1    0.0000
     29 H13        5.5301    2.8750   -0.2827 H         1 RES1    0.0000
@<TRIPOS>BOND
     1    1    3 1
     2    2    4 2
     3    3    4 1
     4    4   19 1
     5    5    3 1
     6    6    5 1
     7    7    5 1
     8    8    7 1
     9    9    7 2
    10   10    9 1
    11   11    1 1
    12   12   11 1
    13   13   11 1
    14   14   13 1
    15   15   13 1
    16   16    5 1
    17   17   16 1
    18   18   16 1
    19   19   20 ar
    20   20   21 1
    21   22   20 ar
    22   23   22 1
    23   24   22 ar
    24   25   24 1
    25   26   24 ar
    26   27   26 1
    27   28   19 ar
    28   29   28 1
    29    9   11 1
    30   13   16 1
    31   26   28 ar
@<TRIPOS>SUBSTRUCTURE
     1 RES1 1

@<TRIPOS>CRYSIN
   9.0358   10.3716   11.8962  90.0000 108.0910  90.0000  14 1

