# MOL2 file generated by ConQuest
# Please check atom types

@<TRIPOS>MOLECULE
WUTXOA
    74    78     2
SMALL
NO_CHARGES
****
Generated from CSD

@<TRIPOS>ATOM
      1 O1         8.1531    2.2251   29.2467 O.3       1 RES1    0.0000
      2 O2         6.1964   -0.6590   29.1184 O.2       1 RES1    0.0000
      3 N1         7.9091    0.8133   29.3698 N.am      1 RES1    0.0000
      4 N2         5.7242    1.5597   28.9901 N.am      1 RES1    0.0000
      5 H1         6.0460    2.3587   28.8820 H         1 RES1    0.0000
      6 C1         6.5486    0.5212   29.1174 C.2       1 RES1    0.0000
      7 C2         9.0752    2.5152   28.1495 C.3       1 RES1    0.0000
      8 H2         9.1184    3.4999   27.9818 H         1 RES1    0.0000
      9 C3        10.4255    1.9951   28.6016 C.3       1 RES1    0.0000
     10 H3        10.7272    2.4802   29.4096 H         1 RES1    0.0000
     11 H4        11.0991    2.1248   27.8887 H         1 RES1    0.0000
     12 C4        10.2638    0.5140   28.9084 C.3       1 RES1    0.0000
     13 H5        10.4038    0.3564   29.8752 H         1 RES1    0.0000
     14 H6        10.9404   -0.0062   28.4112 H         1 RES1    0.0000
     15 C5         8.8599    0.0515   28.5095 C.3       1 RES1    0.0000
     16 H7         8.7528   -0.9342   28.6337 H         1 RES1    0.0000
     17 C6         8.5736    0.4583   27.0848 C.2       1 RES1    0.0000
     18 H8         8.3717   -0.1555   26.3885 H         1 RES1    0.0000
     19 C7         8.6374    1.7922   26.9156 C.2       1 RES1    0.0000
     20 H9         8.4273    2.2289   26.0988 H         1 RES1    0.0000
     21 C8         4.2855    1.3534   28.8008 C.3       1 RES1    0.0000
     22 H10        4.1045    0.3749   28.9027 H         1 RES1    0.0000
     23 C9         3.8810    1.7499   27.3828 C.3       1 RES1    0.0000
     24 H11        4.0458    2.7068   27.2524 H         1 RES1    0.0000
     25 H12        2.9282    1.5614   27.2472 H         1 RES1    0.0000
     26 H13        4.4083    1.2360   26.7351 H         1 RES1    0.0000
     27 C10        3.4828    2.0806   29.8566 C.ar      1 RES1    0.0000
     28 C11        3.3866    3.4700   29.8726 C.ar      1 RES1    0.0000
     29 H14        3.8583    3.9850   29.2286 H         1 RES1    0.0000
     30 C12        2.6038    4.1034   30.8276 C.ar      1 RES1    0.0000
     31 H15        2.5296    5.0500   30.8219 H         1 RES1    0.0000
     32 C13        1.9302    3.3701   31.7847 C.ar      1 RES1    0.0000
     33 H16        1.3946    3.8099   32.4360 H         1 RES1    0.0000
     34 C14        2.0414    1.9971   31.7909 C.ar      1 RES1    0.0000
     35 H17        1.5893    1.4873   32.4515 H         1 RES1    0.0000
     36 C15        2.8108    1.3575   30.8318 C.ar      1 RES1    0.0000
     37 H18        2.8798    0.4099   30.8426 H         1 RES1    0.0000
     38 O3         8.0696    7.2700   29.8488 O.3       2 RES2    0.0000
     39 O4         6.2555    4.5745   28.5385 O.2       2 RES2    0.0000
     40 N3         7.8208    5.8719   29.5917 N.am      2 RES2    0.0000
     41 N4         6.1318    6.8388   28.2876 N.am      2 RES2    0.0000
     42 H19        6.4271    7.5704   28.5612 H         2 RES2    0.0000
     43 C16        6.6524    5.7130   28.7914 C.2       2 RES2    0.0000
     44 C17        7.9432    7.5930   31.2823 C.3       2 RES2    0.0000
     45 H20        7.9587    8.5828   31.4220 H         2 RES2    0.0000
     46 C18        9.1452    6.9400   31.9538 C.3       2 RES2    0.0000
     47 H21        9.1071    7.0760   32.9326 H         2 RES2    0.0000
     48 H22        9.9857    7.3355   31.6134 H         2 RES2    0.0000
     49 C19        9.0865    5.4414   31.6207 C.3       2 RES2    0.0000
     50 H23        9.8548    5.1952   31.0444 H         2 RES2    0.0000
     51 H24        9.1400    4.9109   32.4567 H         2 RES2    0.0000
     52 C20        7.7733    5.1289   30.8912 C.3       2 RES2    0.0000
     53 H25        7.6713    4.1457   30.7392 H         2 RES2    0.0000
     54 C21        6.6022    5.6834   31.6646 C.2       2 RES2    0.0000
     55 H26        5.8884    5.1520   31.9962 H         2 RES2    0.0000
     56 C22        6.6815    7.0049   31.8317 C.2       2 RES2    0.0000
     57 H27        6.0058    7.5209   32.2549 H         2 RES2    0.0000
     58 C23        5.0778    6.7937   27.2814 C.3       2 RES2    0.0000
     59 H28        5.1798    5.9389   26.7713 H         2 RES2    0.0000
     60 C24        5.2756    7.9484   26.2969 C.3       2 RES2    0.0000
     61 H29        6.1850    7.9144   25.9333 H         2 RES2    0.0000
     62 H30        5.1417    8.8012   26.7610 H         2 RES2    0.0000
     63 H31        4.6277    7.8690   25.5660 H         2 RES2    0.0000
     64 C25        3.6772    6.8191   27.8665 C.ar      2 RES2    0.0000
     65 C26        3.3382    7.6208   28.9549 C.ar      2 RES2    0.0000
     66 H32        4.0097    8.1235   29.3993 H         2 RES2    0.0000
     67 C27        2.0167    7.6857   29.3874 C.ar      2 RES2    0.0000
     68 H33        1.7932    8.2337   30.1287 H         2 RES2    0.0000
     69 C28        1.0259    6.9616   28.7511 C.ar      2 RES2    0.0000
     70 H34        0.1246    7.0214   29.0423 H         2 RES2    0.0000
     71 C29        1.3585    6.1521   27.6849 C.ar      2 RES2    0.0000
     72 H35        0.6849    5.6443   27.2472 H         2 RES2    0.0000
     73 C30        2.6779    6.0779   27.2529 C.ar      2 RES2    0.0000
     74 H36        2.8994    5.5094   26.5230 H         2 RES2    0.0000
@<TRIPOS>BOND
     1    1    3 1
     2    2    6 2
     3    3    6 1
     4    4    5 1
     5    6    4 1
     6    7    1 1
     7    8    7 1
     8    9    7 1
     9   10    9 1
    10   11    9 1
    11   12    9 1
    12   13   12 1
    13   14   12 1
    14   15    3 1
    15   16   15 1
    16   17   15 1
    17   18   17 1
    18   19    7 1
    19   20   19 1
    20   21    4 1
    21   22   21 1
    22   23   21 1
    23   24   23 1
    24   25   23 1
    25   26   23 1
    26   27   21 1
    27   28   27 ar
    28   29   28 1
    29   30   28 ar
    30   31   30 1
    31   32   30 ar
    32   33   32 1
    33   34   32 ar
    34   35   34 1
    35   36   27 ar
    36   37   36 1
    37   38   40 1
    38   39   43 2
    39   40   43 1
    40   41   42 1
    41   43   41 1
    42   44   38 1
    43   45   44 1
    44   46   44 1
    45   47   46 1
    46   48   46 1
    47   49   46 1
    48   50   49 1
    49   51   49 1
    50   52   40 1
    51   53   52 1
    52   54   52 1
    53   55   54 1
    54   56   44 1
    55   57   56 1
    56   58   41 1
    57   59   58 1
    58   60   58 1
    59   61   60 1
    60   62   60 1
    61   63   60 1
    62   64   58 1
    63   65   64 ar
    64   66   65 1
    65   67   65 ar
    66   68   67 1
    67   69   67 ar
    68   70   69 1
    69   71   69 ar
    70   72   71 1
    71   73   64 ar
    72   74   73 1
    73   12   15 1
    74   17   19 2
    75   34   36 ar
    76   49   52 1
    77   54   56 2
    78   71   73 ar
@<TRIPOS>SUBSTRUCTURE
     1 RES1 1
     2 RES2 38

@<TRIPOS>CRYSIN
  10.2998   10.2998   51.7320  90.0000  90.0000  90.0000  92 1

