# MOL2 file generated by ConQuest
# Please check atom types

@<TRIPOS>MOLECULE
WUTXIU
    50    50     2
SMALL
NO_CHARGES
****
Generated from CSD

@<TRIPOS>ATOM
      1 O1         7.7892    5.8041    7.4088 O.3       1 RES1    0.0000
      2 H1         7.5595    5.1563    6.8527 H         1 RES1    0.0000
      3 O2         7.5110    9.2074    6.7683 O.2       1 RES1    0.0000
      4 N1         7.8462    6.9866    6.6347 N.am      1 RES1    0.0000
      5 H2         8.6642    7.1703    6.3571 H         1 RES1    0.0000
      6 N2         6.2765    7.8167    8.1093 N.am      1 RES1    0.0000
      7 H3         6.0072    6.9594    8.2242 H         1 RES1    0.0000
      8 C1         4.3971    8.1265    9.5702 C.ar      1 RES1    0.0000
      9 C2         3.0354    8.1128    9.2944 C.ar      1 RES1    0.0000
     10 H4         2.7090    8.5484    8.5145 H         1 RES1    0.0000
     11 C3         2.1495    7.4708   10.1421 C.ar      1 RES1    0.0000
     12 H5         1.2209    7.4645    9.9386 H         1 RES1    0.0000
     13 C4         2.6079    6.8392   11.2816 C.ar      1 RES1    0.0000
     14 H6         1.9957    6.4153   11.8708 H         1 RES1    0.0000
     15 C5         3.9689    6.8286   11.5597 C.ar      1 RES1    0.0000
     16 H7         4.2924    6.3794   12.3313 H         1 RES1    0.0000
     17 C6         4.8534    7.4718   10.7112 C.ar      1 RES1    0.0000
     18 H8         5.7827    7.4666   10.9097 H         1 RES1    0.0000
     19 C7         5.3675    8.8430    8.6529 C.3       1 RES1    0.0000
     20 H9         4.8527    9.2454    7.8963 H         1 RES1    0.0000
     21 C8         6.1206    9.9561    9.3735 C.3       1 RES1    0.0000
     22 H10        6.6216    9.5776   10.1263 H         1 RES1    0.0000
     23 H11        5.4816   10.6204    9.7084 H         1 RES1    0.0000
     24 H12        6.7429   10.3863    8.7498 H         1 RES1    0.0000
     25 C9         7.2108    8.0655    7.1808 C.2       1 RES1    0.0000
     26 O3         4.1213    5.6142    7.3795 O.3       2 RES2    0.0000
     27 H13        3.8989    6.2107    6.7576 H         2 RES2    0.0000
     28 O4         3.9624    2.1773    6.8955 O.2       2 RES2    0.0000
     29 N3         4.2505    4.4067    6.6554 N.am      2 RES2    0.0000
     30 H14        5.0902    4.2283    6.4597 H         2 RES2    0.0000
     31 N4         2.5300    3.5917    7.9712 N.am      2 RES2    0.0000
     32 H15        2.2888    4.4392    8.1041 H         2 RES2    0.0000
     33 C10        2.6852    2.1120    9.9424 C.ar      2 RES2    0.0000
     34 C11        2.5379    0.8261   10.4419 C.ar      2 RES2    0.0000
     35 H16        1.9379    0.2246   10.0162 H         2 RES2    0.0000
     36 C12        3.2549    0.4070   11.5547 C.ar      2 RES2    0.0000
     37 H17        3.1538   -0.4798   11.8808 H         2 RES2    0.0000
     38 C13        4.1170    1.2875   12.1864 C.ar      2 RES2    0.0000
     39 H18        4.6043    1.0070   12.9520 H         2 RES2    0.0000
     40 C14        4.2671    2.5676   11.7038 C.ar      2 RES2    0.0000
     41 H19        4.8614    3.1697   12.1361 H         2 RES2    0.0000
     42 C15        3.5545    2.9809   10.5888 C.ar      2 RES2    0.0000
     43 H20        3.6614    3.8677   10.2640 H         2 RES2    0.0000
     44 C16        1.8592    2.5448    8.7370 C.3       2 RES2    0.0000
     45 H21        1.7336    1.7514    8.1416 H         2 RES2    0.0000
     46 C17        0.4773    3.0463    9.1650 C.3       2 RES2    0.0000
     47 H22        0.5726    3.8972    9.6408 H         2 RES2    0.0000
     48 H23        0.0585    2.3862    9.7559 H         2 RES2    0.0000
     49 H24       -0.0830    3.1771    8.3719 H         2 RES2    0.0000
     50 C18        3.5899    3.3327    7.1983 C.2       2 RES2    0.0000
@<TRIPOS>BOND
     1    1    2 1
     2    3   25 2
     3    4    1 1
     4    5    4 1
     5    6    7 1
     6    8    9 ar
     7    9   10 1
     8   11    9 ar
     9   12   11 1
    10   13   11 ar
    11   14   13 1
    12   15   13 ar
    13   16   15 1
    14   17    8 ar
    15   18   17 1
    16   19    6 1
    17   20   19 1
    18   21   19 1
    19   22   21 1
    20   23   21 1
    21   24   21 1
    22   25    4 1
    23   26   27 1
    24   28   50 2
    25   29   26 1
    26   30   29 1
    27   31   32 1
    28   33   34 ar
    29   34   35 1
    30   36   34 ar
    31   37   36 1
    32   38   36 ar
    33   39   38 1
    34   40   38 ar
    35   41   40 1
    36   42   33 ar
    37   43   42 1
    38   44   31 1
    39   45   44 1
    40   46   44 1
    41   47   46 1
    42   48   46 1
    43   49   46 1
    44   50   29 1
    45    6   25 1
    46    8   19 1
    47   15   17 ar
    48   31   50 1
    49   33   44 1
    50   40   42 ar
@<TRIPOS>SUBSTRUCTURE
     1 RES1 1
     2 RES2 26

@<TRIPOS>CRYSIN
   7.2202   10.5445   25.0280  90.0000  90.0000  90.0000  19 1

