# MOL2 file generated by ConQuest
# Please check atom types

@<TRIPOS>MOLECULE
WUTXAM
    38    38     2
SMALL
NO_CHARGES
****
Generated from CSD

@<TRIPOS>ATOM
      1 O1         5.5247    2.4460   11.3806 O.3       1 RES1    0.0000
      2 H1         6.3095    2.8778   11.0613 H         1 RES1    0.0000
      3 O2         2.4228    3.8205   10.5659 O.2       1 RES1    0.0000
      4 N1         4.5397    3.4540   11.2370 N.am      1 RES1    0.0000
      5 H2         4.3424    3.8934   11.9975 H         1 RES1    0.0000
      6 N2         3.5947    2.0761    9.6510 N.am      1 RES1    0.0000
      7 H3         4.3241    1.5489    9.8011 H         1 RES1    0.0000
      8 C1         3.4555    3.1187   10.4917 C.2       1 RES1    0.0000
      9 C2         2.5449    1.5683    8.8342 C.ar      1 RES1    0.0000
     10 C3         1.7610    2.4078    8.0600 C.ar      1 RES1    0.0000
     11 H4         1.9157    3.3447    8.0679 H         1 RES1    0.0000
     12 C4         0.7501    1.8769    7.2763 C.ar      1 RES1    0.0000
     13 H5         0.2096    2.4527    6.7477 H         1 RES1    0.0000
     14 C5         0.5238    0.5089    7.2573 C.ar      1 RES1    0.0000
     15 H6        -0.1774    0.1472    6.7285 H         1 RES1    0.0000
     16 C6         1.3258   -0.3258    8.0149 C.ar      1 RES1    0.0000
     17 H7         1.1853   -1.2652    7.9911 H         1 RES1    0.0000
     18 C7         2.3333    0.1987    8.8080 C.ar      1 RES1    0.0000
     19 H8         2.8769   -0.3779    9.3330 H         1 RES1    0.0000
     20 O3         2.9628    3.5115    0.6150 O.3       2 RES2    0.0000
     21 H9         3.6962    3.9201    0.9194 H         2 RES2    0.0000
     22 O4        -0.1392    4.8752    1.4372 O.2       2 RES2    0.0000
     23 N3         1.9792    4.5116    0.7633 N.am      2 RES2    0.0000
     24 H10        1.8100    4.9815    0.0696 H         2 RES2    0.0000
     25 N4         1.0397    3.1457    2.3568 N.am      2 RES2    0.0000
     26 H11        1.7432    2.6437    2.2348 H         2 RES2    0.0000
     27 C8         0.8970    4.1831    1.5070 C.2       2 RES2    0.0000
     28 C9        -0.0052    2.6244    3.1698 C.ar      2 RES2    0.0000
     29 C10       -0.7825    3.4537    3.9632 C.ar      2 RES2    0.0000
     30 H12       -0.6254    4.3910    3.9728 H         2 RES2    0.0000
     31 C11       -1.7888    2.9060    4.7390 C.ar      2 RES2    0.0000
     32 H13       -2.3274    3.4736    5.2786 H         2 RES2    0.0000
     33 C12       -2.0211    1.5334    4.7407 C.ar      2 RES2    0.0000
     34 H14       -2.7125    1.1610    5.2762 H         2 RES2    0.0000
     35 C13       -1.2302    0.7244    3.9514 C.ar      2 RES2    0.0000
     36 H15       -1.3771   -0.2140    3.9488 H         2 RES2    0.0000
     37 C14       -0.2281    1.2585    3.1657 C.ar      2 RES2    0.0000
     38 H16        0.3061    0.6905    2.6237 H         2 RES2    0.0000
@<TRIPOS>BOND
     1    1    2 1
     2    3    8 2
     3    4    1 1
     4    5    4 1
     5    6    7 1
     6    8    4 1
     7    9    6 1
     8   10    9 ar
     9   11   10 1
    10   12   10 ar
    11   13   12 1
    12   14   12 ar
    13   15   14 1
    14   16   14 ar
    15   17   16 1
    16   18    9 ar
    17   19   18 1
    18   20   21 1
    19   22   27 2
    20   23   20 1
    21   24   23 1
    22   25   26 1
    23   27   23 1
    24   28   25 1
    25   29   28 ar
    26   30   29 1
    27   31   29 ar
    28   32   31 1
    29   33   31 ar
    30   34   33 1
    31   35   33 ar
    32   36   35 1
    33   37   28 ar
    34   38   37 1
    35    6    8 1
    36   16   18 ar
    37   25   27 1
    38   35   37 ar
@<TRIPOS>SUBSTRUCTURE
     1 RES1 1
     2 RES2 20

@<TRIPOS>CRYSIN
   5.3049    5.9648   24.0989  94.5980  90.4300 110.0270   2 1

