# MOL2 file generated by ConQuest
# Please check atom types

@<TRIPOS>MOLECULE
WUTXAL
    57    59     1
SMALL
NO_CHARGES
****
Generated from CSD

@<TRIPOS>ATOM
      1 O1        -0.2285    9.7395    9.3248 O.2       1 RES1    0.0000
      2 O2         1.9008    9.3386    9.3185 O.2       1 RES1    0.0000
      3 O3         1.8593   11.9159   10.6715 O.2       1 RES1    0.0000
      4 O4         3.0686   11.8133   12.5574 O.3       1 RES1    0.0000
      5 O5        -1.6554    6.3220   12.8682 O.2       1 RES1    0.0000
      6 N1         0.8313    9.4881    9.8821 N.pl3     1 RES1    0.0000
      7 C1         0.7896    9.2840   11.3392 C.ar      1 RES1    0.0000
      8 C2         1.4787   10.1359   12.2091 C.ar      1 RES1    0.0000
      9 C3         1.4343    9.8276   13.5591 C.ar      1 RES1    0.0000
     10 H1         1.8683   10.3980   14.1829 H         1 RES1    0.0000
     11 C4         0.7666    8.6977   14.0172 C.ar      1 RES1    0.0000
     12 H2         0.7801    8.4850   14.9440 H         1 RES1    0.0000
     13 C5         0.0811    7.8788   13.1359 C.ar      1 RES1    0.0000
     14 C6         0.0881    8.1876   11.7733 C.ar      1 RES1    0.0000
     15 H3        -0.3862    7.6451   11.1558 H         1 RES1    0.0000
     16 C7        -0.7513    6.7110   13.5844 C.2       1 RES1    0.0000
     17 C8        -0.4462    6.0459   14.8802 C.ar      1 RES1    0.0000
     18 C9         0.8767    5.6893   15.1574 C.ar      1 RES1    0.0000
     19 H4         1.5572    5.9774   14.5610 H         1 RES1    0.0000
     20 C10        1.2421    4.9339   16.2639 C.ar      1 RES1    0.0000
     21 C11        2.7164    4.5366   16.4274 C.3       1 RES1    0.0000
     22 C12        2.9574    3.8734   17.7858 C.3       1 RES1    0.0000
     23 H5         3.8026    3.3600   17.7452 H         1 RES1    0.0000
     24 H6         3.0638    4.5785   18.4719 H         1 RES1    0.0000
     25 C13        1.8398    2.9459   18.2053 C.3       1 RES1    0.0000
     26 H7         2.0875    2.4976   19.0513 H         1 RES1    0.0000
     27 H8         1.7197    2.2467   17.5145 H         1 RES1    0.0000
     28 C14        0.5138    3.6999   18.4005 C.3       1 RES1    0.0000
     29 C15        0.2284    4.5351   17.1506 C.ar      1 RES1    0.0000
     30 C16       -1.0792    4.9490   16.8926 C.ar      1 RES1    0.0000
     31 H9        -1.7518    4.7129   17.5194 H         1 RES1    0.0000
     32 C17       -1.4573    5.6823   15.7812 C.ar      1 RES1    0.0000
     33 C18        2.1393   11.3759   11.7016 C.2       1 RES1    0.0000
     34 C19        3.7658   13.0159   12.1560 C.3       1 RES1    0.0000
     35 H10        4.4218   13.2584   12.8425 H         1 RES1    0.0000
     36 H11        3.1220   13.7468   12.0470 H         1 RES1    0.0000
     37 H12        4.2271   12.8575   11.3056 H         1 RES1    0.0000
     38 C20        3.0871    3.5720   15.2973 C.3       1 RES1    0.0000
     39 H13        2.5182    2.7765   15.3466 H         1 RES1    0.0000
     40 H14        4.0263    3.3085   15.3884 H         1 RES1    0.0000
     41 H15        2.9550    4.0152   14.4334 H         1 RES1    0.0000
     42 C21        3.6165    5.7759   16.3287 C.3       1 RES1    0.0000
     43 H16        3.3213    6.4467   16.9793 H         1 RES1    0.0000
     44 H17        3.5604    6.1499   15.4252 H         1 RES1    0.0000
     45 H18        4.5428    5.5227   16.5202 H         1 RES1    0.0000
     46 C22       -0.5772    2.6609   18.6598 C.3       1 RES1    0.0000
     47 H19       -0.7280    2.1358   17.8459 H         1 RES1    0.0000
     48 H20       -1.4070    3.1158   18.9139 H         1 RES1    0.0000
     49 H21       -0.2958    2.0653   19.3852 H         1 RES1    0.0000
     50 C23        0.6045    4.6324   19.6118 C.3       1 RES1    0.0000
     51 H22       -0.2682    5.0478   19.7707 H         1 RES1    0.0000
     52 H23        1.2706    5.3300   19.4392 H         1 RES1    0.0000
     53 H24        0.8690    4.1171   20.4016 H         1 RES1    0.0000
     54 C24       -2.9004    6.0883   15.6020 C.3       1 RES1    0.0000
     55 H25       -3.3412    6.1207   16.4760 H         1 RES1    0.0000
     56 H26       -3.3550    5.4331   15.0324 H         1 RES1    0.0000
     57 H27       -2.9412    6.9719   15.1822 H         1 RES1    0.0000
@<TRIPOS>BOND
     1    1    6 2
     2    2    6 2
     3    3   33 2
     4    4   33 1
     5    5   16 2
     6    6    7 1
     7    7    8 ar
     8    8    9 ar
     9    9   10 1
    10   11    9 ar
    11   12   11 1
    12   13   11 ar
    13   14    7 ar
    14   15   14 1
    15   16   13 1
    16   17   16 1
    17   18   17 ar
    18   19   18 1
    19   20   18 ar
    20   21   20 1
    21   22   21 1
    22   23   22 1
    23   24   22 1
    24   25   22 1
    25   26   25 1
    26   27   25 1
    27   28   25 1
    28   29   20 ar
    29   30   29 ar
    30   31   30 1
    31   32   17 ar
    32   33    8 1
    33   34    4 1
    34   35   34 1
    35   36   34 1
    36   37   34 1
    37   38   21 1
    38   39   38 1
    39   40   38 1
    40   41   38 1
    41   42   21 1
    42   43   42 1
    43   44   42 1
    44   45   42 1
    45   46   28 1
    46   47   46 1
    47   48   46 1
    48   49   46 1
    49   50   28 1
    50   51   50 1
    51   52   50 1
    52   53   50 1
    53   54   32 1
    54   55   54 1
    55   56   54 1
    56   57   54 1
    57   13   14 ar
    58   28   29 1
    59   30   32 ar
@<TRIPOS>SUBSTRUCTURE
     1 RES1 1

@<TRIPOS>CRYSIN
  15.3267   11.1999   24.5507  90.0000  90.0000  90.0000  61 1

