# MOL2 file generated by ConQuest
# Please check atom types

@<TRIPOS>MOLECULE
WUVBIY
    28    28     2
SMALL
NO_CHARGES
****
Generated from CSD

@<TRIPOS>ATOM
      1 O1         2.8482   -0.7903    6.2354 O.3       1 RES1    0.0000
      2 N1         3.5295    0.2706    6.8899 N.2       1 RES1    0.0000
      3 N2         2.8482   -0.7903    6.2354 Du        2 SUP2    0.0000
      4 O2         3.5295    0.2706    6.8899 Du        2 SUP2    0.0000
      5 C1         1.6064   -0.9544    6.5665 C.2       1 RES1    0.0000
      6 N3         1.6417   -2.9802    5.3256 N.ar      1 RES1    0.0000
      7 C2         0.8926   -2.0268    5.8656 C.ar      1 RES1    0.0000
      8 C3        -0.4726   -1.9950    5.7929 C.ar      1 RES1    0.0000
      9 H1        -0.9661   -1.2857    6.1887 H         1 RES1    0.0000
     10 C4        -1.1088   -3.0125    5.1354 C.ar      1 RES1    0.0000
     11 H2        -2.0565   -3.0287    5.0726 H         1 RES1    0.0000
     12 C5        -0.3589   -4.0045    4.5702 C.ar      1 RES1    0.0000
     13 H3        -0.7739   -4.7208    4.1039 H         1 RES1    0.0000
     14 C6         1.0021   -3.9444    4.6906 C.ar      1 RES1    0.0000
     15 H4         1.5173   -4.6369    4.2942 H         1 RES1    0.0000
     16 C1B        2.8528    0.9544    7.7427 C.2       1 RES1    0.0000
     17 O1B        1.6109    0.7903    8.0738 O.3       1 RES1    0.0000
     18 N1B        0.9296   -0.2706    7.4193 N.2       1 RES1    0.0000
     19 C2B        3.5666    2.0268    8.4436 C.ar      1 RES1    0.0000
     20 N3B        2.8174    2.9802    8.9836 N.ar      1 RES1    0.0000
     21 C6B        3.4570    3.9444    9.6187 C.ar      1 RES1    0.0000
     22 C5B        4.8180    4.0045    9.7390 C.ar      1 RES1    0.0000
     23 C4B        5.5680    3.0125    9.1738 C.ar      1 RES1    0.0000
     24 C3B        4.9317    1.9950    8.5163 C.ar      1 RES1    0.0000
     25 H1B        5.4253    1.2857    8.1205 H         1 RES1    0.0000
     26 H2B        6.5156    3.0287    9.2366 H         1 RES1    0.0000
     27 H3B        5.2331    4.7208   10.2053 H         1 RES1    0.0000
     28 H4B        2.9418    4.6369   10.0150 H         1 RES1    0.0000
@<TRIPOS>BOND
     1    1    2 1
     2    2   16 2
     3    5    1 1
     4    6    7 ar
     5    7    5 1
     6    8    7 ar
     7    9    8 1
     8   10    8 ar
     9   11   10 1
    10   12   10 ar
    11   13   12 1
    12   14    6 ar
    13   15   14 1
    14   16   17 1
    15   17   18 1
    16   18    5 2
    17   19   16 1
    18   20   19 ar
    19   21   20 ar
    20   22   21 ar
    21   23   22 ar
    22   24   19 ar
    23   25   24 1
    24   26   23 1
    25   27   22 1
    26   28   21 1
    27   12   14 ar
    28   23   24 ar
@<TRIPOS>SUBSTRUCTURE
     1 RES1 1
     2 SUP2 3

@<TRIPOS>CRYSIN
   6.3300    5.7810   14.4310  90.0000  97.4490  90.0000 231 1

