# MOL2 file generated by ConQuest
# Please check atom types

@<TRIPOS>MOLECULE
WUVLUU
    48    48     1
SMALL
NO_CHARGES
****
Generated from CSD

@<TRIPOS>ATOM
      1 N1         5.6782   13.9866    0.3835 N.pl3     1 RES1    0.0000
      2 O1        10.9405    1.4288    7.0483 O.2       1 RES1    0.0000
      3 O2        12.2419    0.3269    5.5844 O.3       1 RES1    0.0000
      4 O3         4.6878   13.9034   -0.3387 O.2       1 RES1    0.0000
      5 O4         6.2743   15.0407    0.5894 O.2       1 RES1    0.0000
      6 C1         7.1279   10.4563    2.2244 C.ar      1 RES1    0.0000
      7 C2         6.1513   10.3958    1.2225 C.ar      1 RES1    0.0000
      8 C3         5.6477   11.5470    0.6380 C.ar      1 RES1    0.0000
      9 C4         6.1593   12.7676    1.0403 C.ar      1 RES1    0.0000
     10 C5         7.1246   12.8765    2.0233 C.ar      1 RES1    0.0000
     11 C6         7.5962   11.7164    2.6184 C.ar      1 RES1    0.0000
     12 C7         7.6837    9.2082    2.7738 C.2       1 RES1    0.0000
     13 C8         7.9833    8.9477    4.0603 C.2       1 RES1    0.0000
     14 C9         8.5950    7.6754    4.4722 C.2       1 RES1    0.0000
     15 C10        9.5887    6.9727    3.8849 C.2       1 RES1    0.0000
     16 C11        9.9528    5.7199    4.5506 C.2       1 RES1    0.0000
     17 C12       10.7166    4.6727    4.1746 C.2       1 RES1    0.0000
     18 C13       10.8412    3.5779    5.1393 C.2       1 RES1    0.0000
     19 C14       11.4762    2.4211    4.9395 C.2       1 RES1    0.0000
     20 C15       11.4986    1.3795    5.9762 C.2       1 RES1    0.0000
     21 C16       12.3501   -0.7729    6.5228 C.3       1 RES1    0.0000
     22 C17       13.3590   -1.7305    5.9516 C.3       1 RES1    0.0000
     23 C18        7.6260    9.8545    5.2187 C.3       1 RES1    0.0000
     24 C19       10.3331    7.4802    2.6762 C.3       1 RES1    0.0000
     25 C20       11.4091    4.4734    2.8526 C.3       1 RES1    0.0000
     26 H1         5.8107    9.5051    0.9221 H         1 RES1    0.0000
     27 H2         4.9320   11.4970   -0.0582 H         1 RES1    0.0000
     28 H3         7.4753   13.7712    2.2993 H         1 RES1    0.0000
     29 H4         8.2827   11.7810    3.3423 H         1 RES1    0.0000
     30 H5         7.8578    8.4733    2.1188 H         1 RES1    0.0000
     31 H6         8.2220    7.2712    5.3074 H         1 RES1    0.0000
     32 H7         9.5572    5.6206    5.4641 H         1 RES1    0.0000
     33 H8        10.4093    3.7094    6.0311 H         1 RES1    0.0000
     34 H9        11.9446    2.2605    4.0705 H         1 RES1    0.0000
     35 H10       12.6585   -0.4373    7.4128 H         1 RES1    0.0000
     36 H11       11.4641   -1.2263    6.6265 H         1 RES1    0.0000
     37 H12       13.4661   -2.5090    6.5698 H         1 RES1    0.0000
     38 H13       14.2370   -1.2650    5.8461 H         1 RES1    0.0000
     39 H14       13.0441   -2.0540    5.0597 H         1 RES1    0.0000
     40 H15        7.2163   10.6967    4.8688 H         1 RES1    0.0000
     41 H16        8.4535   10.0747    5.7357 H         1 RES1    0.0000
     42 H17        6.9731    9.3898    5.8162 H         1 RES1    0.0000
     43 H18        9.9307    8.3450    2.3754 H         1 RES1    0.0000
     44 H19       11.2948    7.6238    2.9126 H         1 RES1    0.0000
     45 H20       10.2680    6.8082    1.9383 H         1 RES1    0.0000
     46 H21       11.2599    5.2761    2.2740 H         1 RES1    0.0000
     47 H22       12.3894    4.3500    3.0051 H         1 RES1    0.0000
     48 H23       11.0374    3.6626    2.4008 H         1 RES1    0.0000
@<TRIPOS>BOND
     1    1    4 2
     2    2   20 2
     3    3   20 1
     4    5    1 2
     5    6    7 ar
     6    7    8 ar
     7    8    9 ar
     8    9    1 1
     9   10    9 ar
    10   11    6 ar
    11   12    6 1
    12   13   12 2
    13   14   13 1
    14   15   14 2
    15   16   15 1
    16   17   16 2
    17   18   17 1
    18   19   18 2
    19   20   19 1
    20   21    3 1
    21   22   21 1
    22   23   13 1
    23   24   15 1
    24   25   17 1
    25   26    7 1
    26   27    8 1
    27   28   10 1
    28   29   11 1
    29   30   12 1
    30   31   14 1
    31   32   16 1
    32   33   18 1
    33   34   19 1
    34   35   21 1
    35   36   21 1
    36   37   22 1
    37   38   22 1
    38   39   22 1
    39   40   23 1
    40   41   23 1
    41   42   23 1
    42   43   24 1
    43   44   24 1
    44   45   24 1
    45   46   25 1
    46   47   25 1
    47   48   25 1
    48   10   11 ar
@<TRIPOS>SUBSTRUCTURE
     1 RES1 1

@<TRIPOS>CRYSIN
  15.0086    8.0675   15.1036  90.0000  98.9160  90.0000  14 2

