# MOL2 file generated by ConQuest
# Please check atom types

@<TRIPOS>MOLECULE
WUVQIP
    46    50     1
SMALL
USER_CHARGES
****
Generated from CSD

@<TRIPOS>ATOM
      1 N1         4.6788    5.8199    9.5603 N.pl3     1 RES1    0.0000
      2 C1         5.8121    6.5666    9.2750 C.2       1 RES1    0.0000
      3 C2         6.0381    6.4449    7.8833 C.2       1 RES1    0.0000
      4 C3         5.0515    5.5967    7.3689 C.2       1 RES1    0.0000
      5 H1         4.9781    5.3246    6.4625 H         1 RES1    0.0000
      6 C4         4.2007    5.2176    8.3876 C.2       1 RES1    0.0000
      7 C5         4.1296    5.7342   10.8368 C.2       1 RES1    0.0000
      8 H2         3.3431    5.2218   10.9861 H         1 RES1    0.0000
      9 C6         4.7175    6.3804   11.8578 C.2       1 RES1    0.0000
     10 H3         4.3239    6.3443   12.7216 H         1 RES1    0.0000
     11 C7         6.5752    7.7412   12.7562 C.ar      1 RES1    0.0000
     12 H4         6.1782    7.7110   13.6184 H         1 RES1    0.0000
     13 C8         7.7704    8.3858   12.5848 C.ar      1 RES1    0.0000
     14 H5         8.2055    8.7862   13.3278 H         1 RES1    0.0000
     15 C9         8.3510    8.4543   11.3159 C.ar      1 RES1    0.0000
     16 H6         9.1850    8.8956   11.2040 H         1 RES1    0.0000
     17 C10        7.7273    7.8891   10.2279 C.ar      1 RES1    0.0000
     18 H7         8.1249    7.9600    9.3689 H         1 RES1    0.0000
     19 C11        6.5017    7.2048   10.3759 C.ar      1 RES1    0.0000
     20 C12        5.9244    7.1209   11.6678 C.ar      1 RES1    0.0000
     21 C13        7.0055    7.1300    7.0112 C.2       1 RES1    0.0000
     22 O1         7.6026    8.1558    7.2624 O.2       1 RES1    0.0000
     23 O2         7.1423    6.4822    5.8499 O.3       1 RES1    0.0000
     24 C14        8.0235    7.0845    4.8763 C.3       1 RES1    0.0000
     25 H8         7.6890    7.9747    4.6398 H         1 RES1    0.0000
     26 H9         8.0551    6.5239    4.0731 H         1 RES1    0.0000
     27 H10        8.9235    7.1632    5.2543 H         1 RES1    0.0000
     28 C15        2.9946    4.4261    8.3489 C.2       1 RES1    0.0000
     29 O3         2.2355    4.2806    9.3078 O.2       1 RES1    0.0000
     30 C16        2.6376    3.7463    7.0801 C.2       1 RES1    0.0000
     31 C17        3.4088    3.1393    6.0546 C.2       1 RES1    0.0000
     32 O4         4.5692    3.0762    5.7268 O.2       1 RES1    0.0000
     33 O5         2.4445    2.4180    5.2946 O.3       1 RES1    0.0000
     34 N2         1.1855    2.5914    5.8048 N.2       1 RES1   -1.0000
     35 N3         1.3555    3.3559    6.8435 N.pl3     1 RES1    1.0000
     36 C18        0.1451    3.7771    7.5327 C.ar      1 RES1    0.0000
     37 C19       -0.2896    5.0657    7.3286 C.ar      1 RES1    0.0000
     38 H11        0.1758    5.6487    6.7407 H         1 RES1    0.0000
     39 C20       -1.4206    5.4920    8.0002 C.ar      1 RES1    0.0000
     40 H12       -1.7343    6.3802    7.8804 H         1 RES1    0.0000
     41 C21       -2.0941    4.6352    8.8424 C.ar      1 RES1    0.0000
     42 H13       -2.8621    4.9385    9.3128 H         1 RES1    0.0000
     43 C22       -1.6565    3.3383    9.0037 C.ar      1 RES1    0.0000
     44 H14       -2.1368    2.7456    9.5702 H         1 RES1    0.0000
     45 C23       -0.5211    2.8929    8.3458 C.ar      1 RES1    0.0000
     46 H15       -0.2116    2.0010    8.4534 H         1 RES1    0.0000
@<TRIPOS>BOND
     1    1    2 1
     2    2    3 2
     3    3    4 1
     4    4    5 1
     5    6    1 1
     6    7    1 1
     7    8    7 1
     8    9    7 2
     9   10    9 1
    10   11   12 1
    11   13   11 ar
    12   14   13 1
    13   15   13 ar
    14   16   15 1
    15   17   15 ar
    16   18   17 1
    17   19    2 1
    18   20    9 1
    19   21    3 1
    20   22   21 2
    21   23   21 1
    22   24   23 1
    23   25   24 1
    24   26   24 1
    25   27   24 1
    26   28    6 1
    27   29   28 2
    28   30   28 1
    29   31   30 1
    30   32   31 2
    31   33   31 1
    32   34   33 1
    33   35   30 2
    34   36   35 1
    35   37   36 ar
    36   38   37 1
    37   39   37 ar
    38   40   39 1
    39   41   39 ar
    40   42   41 1
    41   43   41 ar
    42   44   43 1
    43   45   36 ar
    44   46   45 1
    45    4    6 2
    46   11   20 ar
    47   17   19 ar
    48   19   20 ar
    49   34   35 1
    50   43   45 ar
@<TRIPOS>SUBSTRUCTURE
     1 RES1 1

@<TRIPOS>CRYSIN
  11.2661    8.1641   20.8189  90.0000  94.3200  90.0000 231 1

