# MOL2 file generated by ConQuest
# Please check atom types

@<TRIPOS>MOLECULE
WUVSOV
    42    43     1
SMALL
NO_CHARGES
****
Generated from CSD

@<TRIPOS>ATOM
      1 O1         4.2707    0.0380    7.3169 O.2       1 RES1    0.0000
      2 N1         5.7406    1.6551    6.8115 N.am      1 RES1    0.0000
      3 C1         3.6940    1.5251    5.5128 C.3       1 RES1    0.0000
      4 O2         5.9869    2.8281    6.0925 O.3       1 RES1    0.0000
      5 C2         4.5695    1.0167    6.6179 C.2       1 RES1    0.0000
      6 O3         7.4474    5.4488    9.3586 O.3       1 RES1    0.0000
      7 C3         6.6437    1.4170    7.9364 C.3       1 RES1    0.0000
      8 C4         6.6714    2.5885    8.9463 C.3       1 RES1    0.0000
      9 C5         8.0903    3.1992    8.8898 C.3       1 RES1    0.0000
     10 C6         8.0705    1.3016    7.4843 C.2       1 RES1    0.0000
     11 C7         8.8418    2.2438    7.9982 C.2       1 RES1    0.0000
     12 C8         8.1340    4.6483    8.3801 C.3       1 RES1    0.0000
     13 C9         9.5702    5.0894    8.2001 C.2       1 RES1    0.0000
     14 C10       10.0248    5.2545    6.9548 C.2       1 RES1    0.0000
     15 C11       10.3741    5.2019    9.4590 C.3       1 RES1    0.0000
     16 C12       11.3994    5.4649    6.4599 C.ar      1 RES1    0.0000
     17 C13       11.5552    6.0857    5.2146 C.ar      1 RES1    0.0000
     18 C14       12.8176    6.3034    4.6809 C.ar      1 RES1    0.0000
     19 C15       13.9259    5.8929    5.3516 C.ar      1 RES1    0.0000
     20 C16       13.8070    5.2370    6.5582 C.ar      1 RES1    0.0000
     21 C17       12.5410    5.0193    7.1202 C.ar      1 RES1    0.0000
     22 H1         3.5120    2.4001    5.6499 H         1 RES1    0.0000
     23 H2         2.9541    1.0211    5.4626 H         1 RES1    0.0000
     24 H3         4.1134    1.4491    4.6976 H         1 RES1    0.0000
     25 H4         6.5149    2.5988    5.4940 H         1 RES1    0.0000
     26 H5         7.0445    6.1134    8.9714 H         1 RES1    0.0000
     27 H6         6.3777    0.6384    8.3069 H         1 RES1    0.0000
     28 H7         6.0721    3.1977    8.6909 H         1 RES1    0.0000
     29 H8         6.5371    2.2745    9.7908 H         1 RES1    0.0000
     30 H9         8.5101    3.2211    9.7520 H         1 RES1    0.0000
     31 H10        8.3979    0.6325    6.8784 H         1 RES1    0.0000
     32 H11        9.7730    2.3490    7.8412 H         1 RES1    0.0000
     33 H12        7.6575    4.6936    7.5712 H         1 RES1    0.0000
     34 H13        9.3863    5.2516    6.2673 H         1 RES1    0.0000
     35 H14       11.0764    5.7556    9.3910 H         1 RES1    0.0000
     36 H15        9.8778    5.5174   10.1581 H         1 RES1    0.0000
     37 H16       10.7527    4.3634    9.7426 H         1 RES1    0.0000
     38 H17       10.6970    6.3968    4.6924 H         1 RES1    0.0000
     39 H18       12.9130    6.7956    3.8123 H         1 RES1    0.0000
     40 H19       14.8310    6.0302    4.9927 H         1 RES1    0.0000
     41 H20       14.4244    4.8878    7.1338 H         1 RES1    0.0000
     42 H21       12.4823    4.5694    7.8851 H         1 RES1    0.0000
@<TRIPOS>BOND
     1    1    5 2
     2    2    4 1
     3    3    5 1
     4    4   25 1
     5    5    2 1
     6    6   12 1
     7    7    2 1
     8    8    7 1
     9    9    8 1
    10   10    7 1
    11   11    9 1
    12   12    9 1
    13   13   12 1
    14   14   13 2
    15   15   13 1
    16   16   14 1
    17   17   16 ar
    18   18   17 ar
    19   19   18 ar
    20   20   19 ar
    21   21   16 ar
    22   22    3 1
    23   23    3 1
    24   24    3 1
    25   26    6 1
    26   27    7 1
    27   28    8 1
    28   29    8 1
    29   30    9 1
    30   31   10 1
    31   32   11 1
    32   33   12 1
    33   34   14 1
    34   35   15 1
    35   36   15 1
    36   37   15 1
    37   38   17 1
    38   39   18 1
    39   40   19 1
    40   41   20 1
    41   42   21 1
    42   10   11 2
    43   20   21 ar
@<TRIPOS>SUBSTRUCTURE
     1 RES1 1

@<TRIPOS>CRYSIN
  10.3434   14.6080   10.4658  90.0000  90.8350  90.0000  14 1

