# MOL2 file generated by ConQuest
# Please check atom types

@<TRIPOS>MOLECULE
WUVWAL
    30    31     1
SMALL
NO_CHARGES
****
Generated from CSD

@<TRIPOS>ATOM
      1 O1         5.3397    0.4950    7.1779 O.2       1 RES1    0.0000
      2 O2         5.6348   -1.1088    5.7886 O.2       1 RES1    0.0000
      3 O3        -0.3105    5.0690    4.8396 O.3       1 RES1    0.0000
      4 N1         5.1027   -0.0525    6.1024 N.pl3     1 RES1    0.0000
      5 N2         1.3823    2.2603    2.6631 N.pl3     1 RES1    0.0000
      6 H1         1.3206    1.9613    1.8590 H         1 RES1    0.0000
      7 N3         0.5715    3.2751    3.0792 N.2       1 RES1    0.0000
      8 C1         2.2917    1.7217    3.5245 C.ar      1 RES1    0.0000
      9 C2         3.0308    0.6010    3.1108 C.ar      1 RES1    0.0000
     10 H2         2.8923    0.2485    2.2616 H         1 RES1    0.0000
     11 C3         3.9485    0.0238    3.9381 C.ar      1 RES1    0.0000
     12 H3         4.4263   -0.7227    3.6571 H         1 RES1    0.0000
     13 C4         4.1662    0.5594    5.2034 C.ar      1 RES1    0.0000
     14 C5         3.4607    1.6712    5.6146 C.ar      1 RES1    0.0000
     15 H4         3.6181    2.0306    6.4577 H         1 RES1    0.0000
     16 C6         2.5308    2.2494    4.7922 C.ar      1 RES1    0.0000
     17 H5         2.0573    2.9969    5.0805 H         1 RES1    0.0000
     18 C7        -0.2785    3.7344    2.2483 C.2       1 RES1    0.0000
     19 H6        -0.3193    3.3681    1.3942 H         1 RES1    0.0000
     20 C8        -1.1956    4.8245    2.6035 C.ar      1 RES1    0.0000
     21 C9        -1.1691    5.4452    3.8554 C.ar      1 RES1    0.0000
     22 C10       -2.0569    6.4689    4.1267 C.ar      1 RES1    0.0000
     23 H7        -2.0346    6.8917    4.9540 H         1 RES1    0.0000
     24 C11       -2.9703    6.8659    3.1850 C.ar      1 RES1    0.0000
     25 H8        -3.5656    7.5510    3.3870 H         1 RES1    0.0000
     26 C12       -3.0215    6.2739    1.9514 C.ar      1 RES1    0.0000
     27 H9        -3.6470    6.5511    1.3212 H         1 RES1    0.0000
     28 C13       -2.1312    5.2591    1.6558 C.ar      1 RES1    0.0000
     29 H10       -2.1541    4.8591    0.8176 H         1 RES1    0.0000
     30 H11        0.3011    4.4463    4.4503 H         1 RES1    0.0000
@<TRIPOS>BOND
     1    1    4 2
     2    2    4 2
     3    3   21 1
     4    4   13 1
     5    5    6 1
     6    7    5 1
     7    8    5 1
     8    9    8 ar
     9   10    9 1
    10   11    9 ar
    11   12   11 1
    12   13   11 ar
    13   14   13 ar
    14   15   14 1
    15   16    8 ar
    16   17   16 1
    17   18    7 2
    18   19   18 1
    19   20   18 1
    20   21   20 ar
    21   22   21 ar
    22   23   22 1
    23   24   22 ar
    24   25   24 1
    25   26   24 ar
    26   27   26 1
    27   28   20 ar
    28   29   28 1
    29   30    3 1
    30   14   16 ar
    31   26   28 ar
@<TRIPOS>SUBSTRUCTURE
     1 RES1 1

@<TRIPOS>CRYSIN
   5.0052    9.9004   12.1749  90.0000  92.1990  90.0000   7 1

