# MOL2 file generated by ConQuest
# Please check atom types

@<TRIPOS>MOLECULE
WUVXIU
    52    56     2
SMALL
NO_CHARGES
****
Generated from CSD

@<TRIPOS>ATOM
      1 O1         6.7132    4.7576    6.5248 O.2       1 RES1    0.0000
      2 O2         4.7196    5.4411    6.0998 O.2       1 RES1    0.0000
      3 O3         2.1649    1.4709    4.7370 O.3       1 RES1    0.0000
      4 O4         2.2830   -2.1403    5.0035 O.3       1 RES1    0.0000
      5 N1         5.5640    4.5525    6.1686 N.pl3     1 RES1    0.0000
      6 N2         3.9619   -0.6277    4.8500 N.3       1 RES1    0.0000
      7 C1         4.3716    0.6030    5.2381 C.ar      1 RES1    0.0000
      8 C2         5.6753    0.8734    5.6957 C.ar      1 RES1    0.0000
      9 C3         6.0692    2.1607    6.0013 C.ar      1 RES1    0.0000
     10 C4         5.1641    3.2010    5.8434 C.ar      1 RES1    0.0000
     11 C5         3.8531    2.9793    5.4235 C.ar      1 RES1    0.0000
     12 C6         3.4687    1.6897    5.1447 C.ar      1 RES1    0.0000
     13 C7         1.6901    0.1716    5.0824 C.3       1 RES1    0.0000
     14 C8         2.5839   -0.8748    4.4879 C.3       1 RES1    0.0000
     15 C9         3.4914   -2.8941    4.8485 C.3       1 RES1    0.0000
     16 C10        4.6181   -1.8935    5.1389 C.3       1 RES1    0.0000
     17 O5        -1.0994    1.7339    4.6849 O.2       2 RES2    0.0000
     18 O6        -2.9561    2.4910    5.4749 O.2       2 RES2    0.0000
     19 O7         1.7914    5.6951    4.2258 O.3       2 RES2    0.0000
     20 O8         1.7837    9.2908    4.8152 O.3       2 RES2    0.0000
     21 N3        -1.8395    2.6698    4.9876 N.pl3     2 RES2    0.0000
     22 N4         0.0710    7.8643    4.3793 N.3       2 RES2    0.0000
     23 C11       -0.4309    6.6032    4.5727 C.ar      2 RES2    0.0000
     24 C12       -1.7855    6.3641    4.8304 C.ar      2 RES2    0.0000
     25 C13       -2.2597    5.0749    4.9666 C.ar      2 RES2    0.0000
     26 C14       -1.3736    4.0179    4.8080 C.ar      2 RES2    0.0000
     27 C15       -0.0208    4.2184    4.5270 C.ar      2 RES2    0.0000
     28 C16        0.4524    5.5027    4.4459 C.ar      2 RES2    0.0000
     29 C17        2.2785    6.9339    4.7544 C.3       2 RES2    0.0000
     30 C18        1.4942    8.0721    4.1759 C.3       2 RES2    0.0000
     31 C19        0.5902   10.0453    4.7602 C.3       2 RES2    0.0000
     32 C20       -0.5472    9.0833    4.8876 C.3       2 RES2    0.0000
     33 H1         6.2929    0.1587    5.8002 H         1 RES1    0.0000
     34 H2         6.9485    2.3346    6.3150 H         1 RES1    0.0000
     35 H3         3.2410    3.7011    5.3356 H         1 RES1    0.0000
     36 H4         1.6877    0.0806    6.0278 H         1 RES1    0.0000
     37 H5         0.8082    0.0576    4.7502 H         1 RES1    0.0000
     38 H6         2.4932   -0.8765    3.5416 H         1 RES1    0.0000
     39 H7         3.5182   -3.6159    5.4661 H         1 RES1    0.0000
     40 H8         3.5663   -3.2321    3.9638 H         1 RES1    0.0000
     41 H9         5.3642   -2.0348    4.5669 H         1 RES1    0.0000
     42 H10        4.9013   -1.9421    6.0446 H         1 RES1    0.0000
     43 H11       -2.3845    7.0964    4.9178 H         2 RES2    0.0000
     44 H12       -3.1756    4.9139    5.1595 H         2 RES2    0.0000
     45 H13        0.5606    3.4790    4.3969 H         2 RES2    0.0000
     46 H14        2.1737    6.9350    5.6991 H         2 RES2    0.0000
     47 H15        3.1984    7.0348    4.5388 H         2 RES2    0.0000
     48 H16        1.6793    8.1449    3.2461 H         2 RES2    0.0000
     49 H17        0.5671   10.6752    5.4710 H         2 RES2    0.0000
     50 H18        0.5357   10.5063    3.9294 H         2 RES2    0.0000
     51 H19       -1.2883    9.3465    4.3542 H         2 RES2    0.0000
     52 H20       -0.8262    8.9897    5.7913 H         2 RES2    0.0000
@<TRIPOS>BOND
     1    1    5 2
     2    2    5 2
     3    3   12 1
     4    4   14 1
     5    5   10 1
     6    6    7 1
     7    7    8 ar
     8    8    9 ar
     9    9   10 ar
    10   10   11 ar
    11   11   12 ar
    12   12    7 ar
    13   13    3 1
    14   14    6 1
    15   15    4 1
    16   16    6 1
    17   17   21 2
    18   18   21 2
    19   19   28 1
    20   20   30 1
    21   21   26 1
    22   22   23 1
    23   23   24 ar
    24   24   25 ar
    25   25   26 ar
    26   26   27 ar
    27   27   28 ar
    28   28   23 ar
    29   29   19 1
    30   30   22 1
    31   31   20 1
    32   32   22 1
    33   33    8 1
    34   34    9 1
    35   35   11 1
    36   36   13 1
    37   37   13 1
    38   38   14 1
    39   39   15 1
    40   40   15 1
    41   41   16 1
    42   42   16 1
    43   43   24 1
    44   44   25 1
    45   45   27 1
    46   46   29 1
    47   47   29 1
    48   48   30 1
    49   49   31 1
    50   50   31 1
    51   51   32 1
    52   52   32 1
    53   13   14 1
    54   15   16 1
    55   29   30 1
    56   31   32 1
@<TRIPOS>SUBSTRUCTURE
     1 RES1 1
     2 RES2 17

@<TRIPOS>CRYSIN
  12.1640   22.0790    7.3730  90.0000 100.8600  90.0000  14 1

