# MOL2 file generated by ConQuest
# Please check atom types

@<TRIPOS>MOLECULE
WUWHOM
    35    38     1
SMALL
NO_CHARGES
****
Generated from CSD

@<TRIPOS>ATOM
      1 O1        13.2449    6.4637    3.6785 O.3       1 RES1    0.0000
      2 C1        13.8884    6.5028    2.5038 C.2       1 RES1    0.0000
      3 O2        14.9703    7.0170    2.4343 O.2       1 RES1    0.0000
      4 C2        13.2560    5.8309    1.3120 C.3       1 RES1    0.0000
      5 C3        12.5138    4.5030    1.3831 C.3       1 RES1    0.0000
      6 H1        11.7631    4.3926    0.7468 H         1 RES1    0.0000
      7 C4        12.3057    3.9226    2.7419 C.3       1 RES1    0.0000
      8 H2        13.1774    3.8152    3.1763 H         1 RES1    0.0000
      9 H3        11.9091    3.0318    2.6475 H         1 RES1    0.0000
     10 C5        11.4073    4.7684    3.6438 C.3       1 RES1    0.0000
     11 H4        11.5100    4.4141    4.5626 H         1 RES1    0.0000
     12 C6        11.8134    6.2429    3.6906 C.3       1 RES1    0.0000
     13 H5        11.4181    6.7032    2.9204 H         1 RES1    0.0000
     14 H6        11.4395    6.6466    4.5013 H         1 RES1    0.0000
     15 C7        13.8790    4.5613    0.7791 C.3       1 RES1    0.0000
     16 H7        13.9514    4.4628   -0.1938 H         1 RES1    0.0000
     17 H8        14.6196    4.1684    1.2870 H         1 RES1    0.0000
     18 N1         9.9720    4.6876    3.3144 N.am      1 RES1    0.0000
     19 C8         9.2859    5.3510    2.2809 C.2       1 RES1    0.0000
     20 O3         9.7833    6.0846    1.4566 O.2       1 RES1    0.0000
     21 C9         7.8638    4.9462    2.4093 C.ar      1 RES1    0.0000
     22 C10        6.7551    5.3617    1.6947 C.ar      1 RES1    0.0000
     23 H9         6.8206    6.0251    1.0319 H         1 RES1    0.0000
     24 C11        5.5432    4.7594    1.9991 C.ar      1 RES1    0.0000
     25 H10        4.7695    5.0164    1.5308 H         1 RES1    0.0000
     26 C12        5.4514    3.7835    2.9801 C.ar      1 RES1    0.0000
     27 H11        4.6215    3.3760    3.1513 H         1 RES1    0.0000
     28 C13        6.5683    3.3986    3.7157 C.ar      1 RES1    0.0000
     29 H12        6.5083    2.7522    4.3955 H         1 RES1    0.0000
     30 C14        7.7633    4.0027    3.4064 C.ar      1 RES1    0.0000
     31 C15        9.1125    3.8268    4.0088 C.2       1 RES1    0.0000
     32 O4         9.4464    3.1117    4.9195 O.2       1 RES1    0.0000
     33 N2        12.7430    6.7779    0.3351 N.pl3     1 RES1    0.0000
     34 O5        12.5246    7.9156    0.7573 O.2       1 RES1    0.0000
     35 O6        12.5098    6.4179   -0.7953 O.2       1 RES1    0.0000
@<TRIPOS>BOND
     1    1    2 1
     2    2    3 2
     3    4    2 1
     4    5    4 1
     5    6    5 1
     6    7    5 1
     7    8    7 1
     8    9    7 1
     9   10    7 1
    10   11   10 1
    11   12    1 1
    12   13   12 1
    13   14   12 1
    14   15    4 1
    15   16   15 1
    16   17   15 1
    17   18   10 1
    18   19   18 1
    19   20   19 2
    20   21   19 1
    21   22   21 ar
    22   23   22 1
    23   24   22 ar
    24   25   24 1
    25   26   24 ar
    26   27   26 1
    27   28   26 ar
    28   29   28 1
    29   30   21 ar
    30   31   18 1
    31   32   31 2
    32   33    4 1
    33   34   33 2
    34   35   33 2
    35    5   15 1
    36   10   12 1
    37   28   30 ar
    38   30   31 1
@<TRIPOS>SUBSTRUCTURE
     1 RES1 1

@<TRIPOS>CRYSIN
  14.9683   11.3211    8.1328  90.0000  96.8920  90.0000  14 1

