# MOL2 file generated by ConQuest
# Please check atom types

@<TRIPOS>MOLECULE
WUWHUS
    46    48     2
SMALL
NO_CHARGES
****
Generated from CSD

@<TRIPOS>ATOM
      1 O1        12.4631    7.2003   12.0580 O.2       1 RES1    0.0000
      2 O2        14.9613    7.2737   10.6420 O.2       1 RES1    0.0000
      3 O3        14.0833    8.2475    8.9542 O.2       1 RES1    0.0000
      4 O4        12.2350    2.4604   12.2613 O.3       1 RES1    0.0000
      5 H1        12.3776    1.6329   12.2441 H         1 RES1    0.0000
      6 N1        11.7574    5.1445   11.4890 N.am      1 RES1    0.0000
      7 H2        11.4359    5.0413   12.3024 H         1 RES1    0.0000
      8 N2        14.0783    7.3987    9.8147 N.pl3     1 RES1    0.0000
      9 C1        12.3830    6.2872   11.2326 C.2       1 RES1    0.0000
     10 C2        12.9774    6.4139    9.8631 C.3       1 RES1    0.0000
     11 C3        12.1416    6.2218    8.6320 C.3       1 RES1    0.0000
     12 H3        11.1855    5.9989    8.7562 H         1 RES1    0.0000
     13 H4        12.3367    6.7953    7.8488 H         1 RES1    0.0000
     14 C4        13.1481    5.1834    8.9998 C.3       1 RES1    0.0000
     15 H5        13.9733    5.1609    8.4348 H         1 RES1    0.0000
     16 C5        12.7641    3.8800    9.6458 C.3       1 RES1    0.0000
     17 H6        13.5260    3.5421   10.1795 H         1 RES1    0.0000
     18 H7        12.5640    3.2130    8.9416 H         1 RES1    0.0000
     19 C6        11.5498    4.0368   10.5492 C.3       1 RES1    0.0000
     20 H8        10.7648    4.2635    9.9732 H         1 RES1    0.0000
     21 C7        11.2115    2.7837   11.3285 C.3       1 RES1    0.0000
     22 H9        10.3583    2.9181   11.8120 H         1 RES1    0.0000
     23 H10       11.0904    2.0289   10.6997 H         1 RES1    0.0000
     24 O5         9.2904    8.8867    8.4082 O.2       2 RES2    0.0000
     25 O6        11.7700    9.2287    7.0962 O.2       2 RES2    0.0000
     26 O7        11.0763   10.2202    5.3107 O.2       2 RES2    0.0000
     27 O8         9.3996    4.2351    7.8622 O.3       2 RES2    0.0000
     28 H11        9.3409    3.4396    8.1268 H         2 RES2    0.0000
     29 N3         8.6062    6.9240    7.5324 N.am      2 RES2    0.0000
     30 H12        8.2427    6.7247    8.3077 H         2 RES2    0.0000
     31 N4        10.9625    9.3885    6.1947 N.pl3     2 RES2    0.0000
     32 C8         9.2312    8.0968    7.4551 C.2       2 RES2    0.0000
     33 C9         9.8335    8.4387    6.1316 C.3       2 RES2    0.0000
     34 C10        8.9799    8.4252    4.8966 C.3       2 RES2    0.0000
     35 H13        8.0257    8.1801    4.9993 H         2 RES2    0.0000
     36 H14        9.1596    9.1124    4.2069 H         2 RES2    0.0000
     37 C11        9.9882    7.3562    5.0803 C.3       2 RES2    0.0000
     38 H15       10.8022    7.4357    4.5044 H         2 RES2    0.0000
     39 C12        9.6540    5.9618    5.5254 C.3       2 RES2    0.0000
     40 H16       10.4387    5.5710    5.9860 H         2 RES2    0.0000
     41 H17        9.4610    5.4046    4.7302 H         2 RES2    0.0000
     42 C13        8.4573    5.9241    6.4623 C.3       2 RES2    0.0000
     43 H18        7.6371    6.1468    5.9352 H         2 RES2    0.0000
     44 C14        8.2623    4.5607    7.0941 C.3       2 RES2    0.0000
     45 H19        7.4581    4.5703    7.6724 H         2 RES2    0.0000
     46 H20        8.1275    3.8794    6.3882 H         2 RES2    0.0000
@<TRIPOS>BOND
     1    1    9 2
     2    2    8 2
     3    3    8 2
     4    4    5 1
     5    6    7 1
     6    8   10 1
     7    9    6 1
     8   10    9 1
     9   11   10 1
    10   12   11 1
    11   13   11 1
    12   14   10 1
    13   15   14 1
    14   16   14 1
    15   17   16 1
    16   18   16 1
    17   19    6 1
    18   20   19 1
    19   21    4 1
    20   22   21 1
    21   23   21 1
    22   24   32 2
    23   25   31 2
    24   26   31 2
    25   27   28 1
    26   29   30 1
    27   31   33 1
    28   32   29 1
    29   33   32 1
    30   34   33 1
    31   35   34 1
    32   36   34 1
    33   37   33 1
    34   38   37 1
    35   39   37 1
    36   40   39 1
    37   41   39 1
    38   42   29 1
    39   43   42 1
    40   44   27 1
    41   45   44 1
    42   46   44 1
    43   11   14 1
    44   16   19 1
    45   19   21 1
    46   34   37 1
    47   39   42 1
    48   42   44 1
@<TRIPOS>SUBSTRUCTURE
     1 RES1 1
     2 RES2 24

@<TRIPOS>CRYSIN
  15.0235    7.4290   15.0658  90.0000  97.1070  90.0000 231 1

