# MOL2 file generated by ConQuest
# Please check atom types

@<TRIPOS>MOLECULE
WUWHIG
    35    38     1
SMALL
NO_CHARGES
****
Generated from CSD

@<TRIPOS>ATOM
      1 O1         0.7513    5.3866    3.2217 O.2       1 RES1    0.0000
      2 O2         2.8885    5.7790    3.6284 O.3       1 RES1    0.0000
      3 O3         7.1022    8.5434    2.3215 O.2       1 RES1    0.0000
      4 O4         3.0419    8.5873    4.4288 O.2       1 RES1    0.0000
      5 O5         2.5774    3.1394    1.8261 O.2       1 RES1    0.0000
      6 O6         2.5366    3.7132   -0.2786 O.2       1 RES1    0.0000
      7 N1         2.4479    3.9654    0.9188 N.pl3     1 RES1    0.0000
      8 N2         4.9949    8.2306    3.2324 N.am      1 RES1    0.0000
      9 C1         1.8764    5.4884    2.7900 C.2       1 RES1    0.0000
     10 C2         2.1890    5.3589    1.3277 C.3       1 RES1    0.0000
     11 C3         2.9726    6.4355    0.5872 C.3       1 RES1    0.0000
     12 H1         3.5982    6.1124   -0.1234 H         1 RES1    0.0000
     13 C4         3.4647    7.5670    1.4287 C.3       1 RES1    0.0000
     14 H2         2.7127    7.9267    1.9622 H         1 RES1    0.0000
     15 H3         3.7945    8.2915    0.8402 H         1 RES1    0.0000
     16 C5         4.5856    7.1327    2.3674 C.3       1 RES1    0.0000
     17 H4         5.3727    6.9212    1.7877 H         1 RES1    0.0000
     18 C6         4.2535    5.8485    3.1278 C.3       1 RES1    0.0000
     19 H5         4.4105    5.0763    2.5294 H         1 RES1    0.0000
     20 H6         4.8757    5.7645    3.8945 H         1 RES1    0.0000
     21 C7         1.5182    6.2412    0.3166 C.3       1 RES1    0.0000
     22 H7         1.2623    5.8362   -0.5485 H         1 RES1    0.0000
     23 H8         0.8935    6.9321    0.6532 H         1 RES1    0.0000
     24 C8         6.2469    8.8610    3.1241 C.2       1 RES1    0.0000
     25 C9         6.2708    9.9382    4.1389 C.ar      1 RES1    0.0000
     26 C10        7.2826   10.7794    4.5266 C.ar      1 RES1    0.0000
     27 H9         8.1264   10.7715    4.0902 H         1 RES1    0.0000
     28 C11        7.0195   11.6472    5.5875 C.ar      1 RES1    0.0000
     29 H10        7.7010   12.2357    5.8892 H         1 RES1    0.0000
     30 C12        5.7863   11.6657    6.2071 C.ar      1 RES1    0.0000
     31 H11        5.6336   12.2689    6.9239 H         1 RES1    0.0000
     32 C13        4.7638   10.8174    5.8006 C.ar      1 RES1    0.0000
     33 H12        3.9115   10.8361    6.2195 H         1 RES1    0.0000
     34 C14        5.0314    9.9532    4.7759 C.ar      1 RES1    0.0000
     35 C15        4.1908    8.8847    4.1862 C.2       1 RES1    0.0000
@<TRIPOS>BOND
     1    1    9 2
     2    2    9 1
     3    3   24 2
     4    4   35 2
     5    5    7 2
     6    6    7 2
     7    7   10 1
     8    8   16 1
     9    9   10 1
    10   10   11 1
    11   11   12 1
    12   13   11 1
    13   14   13 1
    14   15   13 1
    15   16   13 1
    16   17   16 1
    17   18    2 1
    18   19   18 1
    19   20   18 1
    20   21   10 1
    21   22   21 1
    22   23   21 1
    23   24    8 1
    24   25   24 1
    25   26   25 ar
    26   27   26 1
    27   28   26 ar
    28   29   28 1
    29   30   28 ar
    30   31   30 1
    31   32   30 ar
    32   33   32 1
    33   34   25 ar
    34   35    8 1
    35   11   21 1
    36   16   18 1
    37   32   34 ar
    38   34   35 1
@<TRIPOS>SUBSTRUCTURE
     1 RES1 1

@<TRIPOS>CRYSIN
   6.6993    8.1796   13.0249  76.3780  78.0680  80.0660   2 1

