# MOL2 file generated by ConQuest
# Please check atom types

@<TRIPOS>MOLECULE
WUWLIK
    98   102     2
SMALL
NO_CHARGES
****
Generated from CSD

@<TRIPOS>ATOM
      1 O1         1.6393    2.2032    6.6062 O.3       1 RES1    0.0000
      2 O2         3.7381    0.2027    7.8428 O.2       1 RES1    0.0000
      3 O3         1.9315    0.1932    8.9390 O.2       1 RES1    0.0000
      4 N1         2.5207    0.0937    7.8967 N.pl3     1 RES1    0.0000
      5 C1         0.8201    1.0404    6.4216 C.3       1 RES1    0.0000
      6 H1         0.0873    1.0404    7.1012 H         1 RES1    0.0000
      7 C2         0.2225    1.0022    5.0461 C.2       1 RES1    0.0000
      8 H2        -0.5316    1.5510    4.8632 H         1 RES1    0.0000
      9 C3         0.7090    0.2219    4.0529 C.2       1 RES1    0.0000
     10 H3         0.2654    0.2314    3.2133 H         1 RES1    0.0000
     11 C4         1.8745   -0.6330    4.2048 C.3       1 RES1    0.0000
     12 H4         2.4573   -0.5298    3.4109 H         1 RES1    0.0000
     13 H5         1.5803   -1.5778    4.2424 H         1 RES1    0.0000
     14 C5         2.6759   -0.3079    5.4578 C.3       1 RES1    0.0000
     15 H6         3.1731    0.5374    5.3320 H         1 RES1    0.0000
     16 H7         3.3299   -1.0308    5.6375 H         1 RES1    0.0000
     17 C6         1.7082   -0.1759    6.6372 C.3       1 RES1    0.0000
     18 C7         0.9420   -1.4535    6.9182 C.3       1 RES1    0.0000
     19 H8         0.3808   -1.3139    7.7219 H         1 RES1    0.0000
     20 H9         0.3352   -1.6314    6.1570 H         1 RES1    0.0000
     21 C8         1.7874   -2.6412    7.1339 C.2       1 RES1    0.0000
     22 H10        2.4467   -2.5857    7.8151 H         1 RES1    0.0000
     23 C9         1.7085   -3.7848    6.4576 C.2       1 RES1    0.0000
     24 H11        0.9903   -3.8747    5.8417 H         1 RES1    0.0000
     25 C10        2.6275   -4.9190    6.5752 C.ar      1 RES1    0.0000
     26 C11        2.3702   -6.0875    5.8433 C.ar      1 RES1    0.0000
     27 H12        1.5789   -6.1563    5.3222 H         1 RES1    0.0000
     28 C12        3.2860   -7.1661    5.8776 C.ar      1 RES1    0.0000
     29 H13        3.1038   -7.9522    5.3761 H         1 RES1    0.0000
     30 C13        4.4114   -7.0916    6.6111 C.ar      1 RES1    0.0000
     31 H14        5.0334   -7.8087    6.6111 H         1 RES1    0.0000
     32 C14        4.6562   -5.9498    7.3724 C.ar      1 RES1    0.0000
     33 H15        5.4339   -5.9077    7.9163 H         1 RES1    0.0000
     34 C15        3.7960   -4.8903    7.3495 C.ar      1 RES1    0.0000
     35 H16        3.9927   -4.1195    7.8673 H         1 RES1    0.0000
     36 C16        0.9415    3.4291    6.5131 C.3       1 RES1    0.0000
     37 H17        0.2082    3.4444    7.1763 H         1 RES1    0.0000
     38 H18        0.5421    3.5152    5.6114 H         1 RES1    0.0000
     39 C17        1.8652    4.5766    6.7614 C.ar      1 RES1    0.0000
     40 C18        3.0606    4.4332    7.4181 C.ar      1 RES1    0.0000
     41 H19        3.3339    3.5745    7.7187 H         1 RES1    0.0000
     42 C19        3.8719    5.5310    7.6452 C.ar      1 RES1    0.0000
     43 H20        4.6791    5.4353    8.1369 H         1 RES1    0.0000
     44 C20        3.4993    6.7760    7.1535 C.ar      1 RES1    0.0000
     45 H21        4.0633    7.5295    7.2858 H         1 RES1    0.0000
     46 C21        2.3011    6.9175    6.4690 C.ar      1 RES1    0.0000
     47 H22        2.0386    7.7628    6.1243 H         1 RES1    0.0000
     48 C22        1.5013    5.8159    6.2958 C.ar      1 RES1    0.0000
     49 H23        0.6728    5.9135    5.8401 H         1 RES1    0.0000
     50 O4         0.0702    6.8544    2.4765 O.3       2 RES2    0.0000
     51 O5        -1.9367    9.0538    3.7001 O.2       2 RES2    0.0000
     52 O6        -0.2255    8.6330    4.9138 O.2       2 RES2    0.0000
     53 N2        -0.7461    8.9582    3.8504 N.pl3     2 RES2    0.0000
     54 C23        1.0085    7.9101    2.4602 C.3       2 RES2    0.0000
     55 H24        1.6652    7.7934    3.2051 H         2 RES2    0.0000
     56 C24        1.7396    8.0134    1.1419 C.2       2 RES2    0.0000
     57 H25        2.4707    7.4262    0.9916 H         2 RES2    0.0000
     58 C25        1.4259    8.8721    0.1813 C.2       2 RES2    0.0000
     59 H26        1.9455    8.8568   -0.6126 H         2 RES2    0.0000
     60 C26        0.3203    9.8513    0.2663 C.3       2 RES2    0.0000
     61 H27       -0.1865    9.8436   -0.5848 H         2 RES2    0.0000
     62 H28        0.6970   10.7578    0.3888 H         2 RES2    0.0000
     63 C27       -0.6355    9.5396    1.4261 C.3       2 RES2    0.0000
     64 H29       -1.2313   10.3141    1.5895 H         2 RES2    0.0000
     65 H30       -1.1968    8.7573    1.2007 H         2 RES2    0.0000
     66 C28        0.1882    9.2469    2.6725 C.3       2 RES2    0.0000
     67 C29        1.0835   10.3466    3.1152 C.3       2 RES2    0.0000
     68 H31        1.8442   10.4174    2.4863 H         2 RES2    0.0000
     69 H32        1.4484   10.1267    4.0088 H         2 RES2    0.0000
     70 C30        0.3604   11.7064    3.1871 C.2       2 RES2    0.0000
     71 H33       -0.4373   11.7370    3.7033 H         2 RES2    0.0000
     72 C31        0.7243   12.8061    2.6219 C.2       2 RES2    0.0000
     73 H34        1.5197   12.7640    2.1041 H         2 RES2    0.0000
     74 C32        0.0769   14.0913    2.6791 C.ar      2 RES2    0.0000
     75 C33        0.5956   15.1814    1.9570 C.ar      2 RES2    0.0000
     76 H35        1.3961   15.0629    1.4604 H         2 RES2    0.0000
     77 C34       -0.0065   16.3978    1.9472 C.ar      2 RES2    0.0000
     78 H36        0.4102   17.1226    1.4980 H         2 RES2    0.0000
     79 C35       -1.1901   16.5871    2.5680 C.ar      2 RES2    0.0000
     80 H37       -1.6471   17.4152    2.4830 H         2 RES2    0.0000
     81 C36       -1.7335   15.5678    3.3276 C.ar      2 RES2    0.0000
     82 H38       -2.5254   15.7169    3.8308 H         2 RES2    0.0000
     83 C37       -1.1151   14.3342    3.3488 C.ar      2 RES2    0.0000
     84 H39       -1.5191   13.6285    3.8373 H         2 RES2    0.0000
     85 C38        0.6712    5.5730    2.5811 C.3       2 RES2    0.0000
     86 H40        1.2462    5.5424    3.3864 H         2 RES2    0.0000
     87 H41        1.2435    5.4085    1.7888 H         2 RES2    0.0000
     88 C39       -0.3594    4.5135    2.6709 C.ar      2 RES2    0.0000
     89 C40       -1.4491    4.6340    3.5106 C.ar      2 RES2    0.0000
     90 H42       -1.5395    5.4085    4.0529 H         2 RES2    0.0000
     91 C41       -2.3965    3.6567    3.5726 C.ar      2 RES2    0.0000
     92 H43       -3.1325    3.7657    4.1640 H         2 RES2    0.0000
     93 C42       -2.3198    2.5207    2.8065 C.ar      2 RES2    0.0000
     94 H44       -3.0006    1.8590    2.8441 H         2 RES2    0.0000
     95 C43       -1.2390    2.3696    1.9897 C.ar      2 RES2    0.0000
     96 H45       -1.1587    1.5836    1.4621 H         2 RES2    0.0000
     97 C44       -0.2512    3.3469    1.9162 C.ar      2 RES2    0.0000
     98 H46        0.5005    3.2187    1.3493 H         2 RES2    0.0000
@<TRIPOS>BOND
     1    1    5 1
     2    2    4 2
     3    3    4 2
     4    4   17 1
     5    5    6 1
     6    7    5 1
     7    8    7 1
     8    9    7 2
     9   10    9 1
    10   11    9 1
    11   12   11 1
    12   13   11 1
    13   14   11 1
    14   15   14 1
    15   16   14 1
    16   17    5 1
    17   18   17 1
    18   19   18 1
    19   20   18 1
    20   21   18 1
    21   22   21 1
    22   23   21 2
    23   24   23 1
    24   25   23 1
    25   26   25 ar
    26   27   26 1
    27   28   26 ar
    28   29   28 1
    29   30   28 ar
    30   31   30 1
    31   32   30 ar
    32   33   32 1
    33   34   25 ar
    34   35   34 1
    35   36    1 1
    36   37   36 1
    37   38   36 1
    38   39   36 1
    39   40   39 ar
    40   41   40 1
    41   42   40 ar
    42   43   42 1
    43   44   42 ar
    44   45   44 1
    45   46   44 ar
    46   47   46 1
    47   48   39 ar
    48   49   48 1
    49   50   54 1
    50   51   53 2
    51   52   53 2
    52   53   66 1
    53   54   55 1
    54   56   54 1
    55   57   56 1
    56   58   56 2
    57   59   58 1
    58   60   58 1
    59   61   60 1
    60   62   60 1
    61   63   60 1
    62   64   63 1
    63   65   63 1
    64   66   54 1
    65   67   66 1
    66   68   67 1
    67   69   67 1
    68   70   67 1
    69   71   70 1
    70   72   70 2
    71   73   72 1
    72   74   72 1
    73   75   74 ar
    74   76   75 1
    75   77   75 ar
    76   78   77 1
    77   79   77 ar
    78   80   79 1
    79   81   79 ar
    80   82   81 1
    81   83   74 ar
    82   84   83 1
    83   85   50 1
    84   86   85 1
    85   87   85 1
    86   88   85 1
    87   89   88 ar
    88   90   89 1
    89   91   89 ar
    90   92   91 1
    91   93   91 ar
    92   94   93 1
    93   95   93 ar
    94   96   95 1
    95   97   88 ar
    96   98   97 1
    97   14   17 1
    98   32   34 ar
    99   46   48 ar
   100   63   66 1
   101   81   83 ar
   102   95   97 ar
@<TRIPOS>SUBSTRUCTURE
     1 RES1 1
     2 RES2 50

@<TRIPOS>CRYSIN
   5.8570   19.1250   16.3360  90.0000  90.2600  90.0000   7 1

