# MOL2 file generated by ConQuest
# Please check atom types

@<TRIPOS>MOLECULE
WUXFAX
    68    70     2
SMALL
NO_CHARGES
****
Generated from CSD

@<TRIPOS>ATOM
      1 O1         6.2880    1.1875   13.4371 O.2       1 RES1    0.0000
      2 O2         9.2715    3.3198    8.0436 O.2       1 RES1    0.0000
      3 O3         7.4829    3.1078    6.9365 O.2       1 RES1    0.0000
      4 O4         2.6494    3.5298   18.4217 O.2       1 RES1    0.0000
      5 O5         4.3321    2.8542   19.5590 O.2       1 RES1    0.0000
      6 N1         8.1760    2.8575    7.8957 N.pl3     1 RES1    0.0000
      7 N2         3.6237    2.8214   18.5663 N.pl3     1 RES1    0.0000
      8 C1         5.8239    0.0908   13.2172 C.2       1 RES1    0.0000
      9 C2         6.0880   -0.6303   11.9190 C.3       1 RES1    0.0000
     10 H1         6.7194   -1.3733   12.0884 H         1 RES1    0.0000
     11 H2         5.2396   -1.0252   11.5952 H         1 RES1    0.0000
     12 C3         5.0348   -0.6532   14.2525 C.3       1 RES1    0.0000
     13 H3         5.5708   -1.4210   14.5721 H         1 RES1    0.0000
     14 H4         4.2155   -1.0125   13.8311 H         1 RES1    0.0000
     15 C4         6.6525    0.2480   10.8470 C.ar      1 RES1    0.0000
     16 C5         7.9294    0.7650   10.9518 C.ar      1 RES1    0.0000
     17 H5         8.4726    0.5245   11.6933 H         1 RES1    0.0000
     18 C6         8.4322    1.6241    9.9973 C.ar      1 RES1    0.0000
     19 H6         9.3031    1.9904   10.0874 H         1 RES1    0.0000
     20 C7         7.6501    1.9394    8.9181 C.ar      1 RES1    0.0000
     21 C8         6.3869    1.4416    8.7686 C.ar      1 RES1    0.0000
     22 H7         5.8611    1.6657    8.0090 H         1 RES1    0.0000
     23 C9         5.8972    0.6073    9.7451 C.ar      1 RES1    0.0000
     24 H8         5.0146    0.2672    9.6614 H         1 RES1    0.0000
     25 C10        4.6468    0.1951   15.4306 C.ar      1 RES1    0.0000
     26 C11        3.4119    0.8039   15.4704 C.ar      1 RES1    0.0000
     27 H9         2.7846    0.6326   14.7787 H         1 RES1    0.0000
     28 C12        3.0714    1.6564   16.4980 C.ar      1 RES1    0.0000
     29 H10        2.2208    2.0789   16.5111 H         1 RES1    0.0000
     30 C13        3.9755    1.8856   17.4941 C.ar      1 RES1    0.0000
     31 C14        5.2026    1.2853   17.4964 C.ar      1 RES1    0.0000
     32 H11        5.8212    1.4472   18.1997 H         1 RES1    0.0000
     33 C15        5.5261    0.4408   16.4567 C.ar      1 RES1    0.0000
     34 H12        6.3777    0.0178   16.4492 H         1 RES1    0.0000
     35 O6         0.6016    1.1707   19.1880 O.2       2 RES2    0.0000
     36 O7         2.2754    3.0245   25.7419 O.2       2 RES2    0.0000
     37 O8         3.7857    3.5401   24.3172 O.2       2 RES2    0.0000
     38 O9        -1.2651    1.7733   12.6497 O.2       2 RES2    0.0000
     39 O10       -2.7069    3.0147   13.6884 O.2       2 RES2    0.0000
     40 N3         2.7954    2.9131   24.6487 N.pl3     2 RES2    0.0000
     41 N4        -1.8517    2.1350   13.6538 N.pl3     2 RES2    0.0000
     42 C16        0.1198    0.1095   19.4821 C.2       2 RES2    0.0000
     43 C17       -0.7908   -0.6410   18.5475 C.3       2 RES2    0.0000
     44 H13       -0.3809   -1.5188   18.3417 H         2 RES2    0.0000
     45 H14       -1.6501   -0.8109   19.0104 H         2 RES2    0.0000
     46 C18        0.4164   -0.5830   20.7903 C.3       2 RES2    0.0000
     47 H15       -0.4318   -0.9381   21.1611 H         2 RES2    0.0000
     48 H16        1.0123   -1.3532   20.6137 H         2 RES2    0.0000
     49 C19        1.0608    0.2962   21.8231 C.ar      2 RES2    0.0000
     50 C20        2.3260    0.8109   21.6240 C.ar      2 RES2    0.0000
     51 H17        2.8090    0.5694   20.8435 H         2 RES2    0.0000
     52 C21        2.9023    1.6695   22.5375 C.ar      2 RES2    0.0000
     53 H18        3.7655    2.0330   22.3849 H         2 RES2    0.0000
     54 C22        2.2001    1.9853   23.6697 C.ar      2 RES2    0.0000
     55 C23        0.9604    1.4748   23.9196 C.ar      2 RES2    0.0000
     56 H19        0.4991    1.6891   24.7215 H         2 RES2    0.0000
     57 C24        0.3911    0.6401   22.9798 C.ar      2 RES2    0.0000
     58 H20       -0.4789    0.2952   23.1311 H         2 RES2    0.0000
     59 C25       -1.0698    0.0735   17.2586 C.ar      2 RES2    0.0000
     60 C26       -2.1506    0.9222   17.1473 C.ar      2 RES2    0.0000
     61 H21       -2.7341    1.0364   17.8899 H         2 RES2    0.0000
     62 C27       -2.4008    1.6077   15.9775 C.ar      2 RES2    0.0000
     63 H22       -3.1404    2.1991   15.9147 H         2 RES2    0.0000
     64 C28       -1.5730    1.4252   14.9145 C.ar      2 RES2    0.0000
     65 C29       -0.4921    0.5924   14.9765 C.ar      2 RES2    0.0000
     66 H23        0.0734    0.4693   14.2210 H         2 RES2    0.0000
     67 C30       -0.2396   -0.0692   16.1685 C.ar      2 RES2    0.0000
     68 H24        0.5223   -0.6335   16.2349 H         2 RES2    0.0000
@<TRIPOS>BOND
     1    1    8 2
     2    2    6 2
     3    3    6 2
     4    4    7 2
     5    5    7 2
     6    6   20 1
     7    7   30 1
     8    8    9 1
     9    9   10 1
    10   11    9 1
    11   12    8 1
    12   13   12 1
    13   14   12 1
    14   15    9 1
    15   16   15 ar
    16   17   16 1
    17   18   16 ar
    18   19   18 1
    19   20   18 ar
    20   21   20 ar
    21   22   21 1
    22   23   15 ar
    23   24   23 1
    24   25   12 1
    25   26   25 ar
    26   27   26 1
    27   28   26 ar
    28   29   28 1
    29   30   28 ar
    30   31   30 ar
    31   32   31 1
    32   33   25 ar
    33   34   33 1
    34   35   42 2
    35   36   40 2
    36   37   40 2
    37   38   41 2
    38   39   41 2
    39   40   54 1
    40   41   64 1
    41   42   43 1
    42   43   44 1
    43   45   43 1
    44   46   42 1
    45   47   46 1
    46   48   46 1
    47   49   46 1
    48   50   49 ar
    49   51   50 1
    50   52   50 ar
    51   53   52 1
    52   54   52 ar
    53   55   54 ar
    54   56   55 1
    55   57   49 ar
    56   58   57 1
    57   59   43 1
    58   60   59 ar
    59   61   60 1
    60   62   60 ar
    61   63   62 1
    62   64   62 ar
    63   65   64 ar
    64   66   65 1
    65   67   59 ar
    66   68   67 1
    67   21   23 ar
    68   31   33 ar
    69   55   57 ar
    70   65   67 ar
@<TRIPOS>SUBSTRUCTURE
     1 RES1 1
     2 RES2 35

@<TRIPOS>CRYSIN
  23.4890    4.6790   34.7410  90.0000 131.9970  90.0000  13 1

