# MOL2 file generated by ConQuest
# Please check atom types

@<TRIPOS>MOLECULE
WUXHAY01
    31    32     1
SMALL
NO_CHARGES
****
Generated from CSD

@<TRIPOS>ATOM
      1 O1         7.5403    2.7865    7.3607 O.2       1 RES1    0.0000
      2 N1         7.2486    2.7638    4.7503 N.3       1 RES1    0.0000
      3 O2         9.4952    2.8022    8.2540 O.2       1 RES1    0.0000
      4 N2         8.7724    2.7732    7.2678 N.pl3     1 RES1    0.0000
      5 N3         6.6034    2.7347    3.5362 N.2       1 RES1    0.0000
      6 C1         8.5991    2.7048    4.7709 C.ar      1 RES1    0.0000
      7 C2         9.3771    2.7232    5.9574 C.ar      1 RES1    0.0000
      8 C3         4.5543    2.7325    2.3284 C.ar      1 RES1    0.0000
      9 C4         5.3337    2.7728    3.5686 C.2       1 RES1    0.0000
     10 C5        10.7617    2.6828    5.9267 C.ar      1 RES1    0.0000
     11 C6         3.1652    2.7121    2.3950 C.ar      1 RES1    0.0000
     12 C7         9.3205    2.6009    3.5571 C.ar      1 RES1    0.0000
     13 C8         5.1800    2.7033    1.0754 C.ar      1 RES1    0.0000
     14 N4        12.8493    2.5422    4.6825 N.pl3     1 RES1    0.0000
     15 C9        11.3963    2.6016    4.7179 C.ar      1 RES1    0.0000
     16 C10       10.6809    2.5483    3.5254 C.ar      1 RES1    0.0000
     17 O3        13.3955    2.4917    3.5994 O.2       1 RES1    0.0000
     18 C11        2.4140    2.6575    1.2300 C.ar      1 RES1    0.0000
     19 C12        4.4206    2.6582   -0.0717 C.ar      1 RES1    0.0000
     20 C13        3.0399    2.6296   -0.0010 C.ar      1 RES1    0.0000
     21 O4        13.4579    2.5272    5.7293 O.2       1 RES1    0.0000
     22 H1        11.2441    2.7026    6.7528 H         1 RES1    0.0000
     23 H2         2.7194    2.7299    3.2890 H         1 RES1    0.0000
     24 H3         4.8598    2.8118    4.3939 H         1 RES1    0.0000
     25 H4         8.8051    2.5456    2.7243 H         1 RES1    0.0000
     26 H5         6.1675    2.7162    1.0218 H         1 RES1    0.0000
     27 H6        11.1163    2.4705    2.6856 H         1 RES1    0.0000
     28 H7         2.5277    2.5934   -0.8040 H         1 RES1    0.0000
     29 H8         6.7701    2.8323    5.5003 H         1 RES1    0.0000
     30 H9         1.4834    2.6480    1.2568 H         1 RES1    0.0000
     31 H10        4.8933    2.6343   -0.9272 H         1 RES1    0.0000
@<TRIPOS>BOND
     1    1    4 2
     2    2    5 1
     3    3    4 2
     4    4    7 1
     5    5    9 2
     6    6    2 1
     7    7    6 ar
     8    8    9 1
     9    9   24 1
    10   10    7 ar
    11   11    8 ar
    12   12    6 ar
    13   13    8 ar
    14   14   15 1
    15   15   10 ar
    16   16   12 ar
    17   17   14 2
    18   18   11 ar
    19   19   13 ar
    20   20   18 ar
    21   21   14 2
    22   22   10 1
    23   23   11 1
    24   25   12 1
    25   26   13 1
    26   27   16 1
    27   28   20 1
    28   29    2 1
    29   30   18 1
    30   31   19 1
    31   15   16 ar
    32   19   20 ar
@<TRIPOS>SUBSTRUCTURE
     1 RES1 1

@<TRIPOS>CRYSIN
  13.2961    6.8247   14.3454  90.0000  92.5630  90.0000  14 1

