# MOL2 file generated by ConQuest
# Please check atom types

@<TRIPOS>MOLECULE
WUXHUS
    20    20     1
SMALL
NO_CHARGES
****
Generated from CSD

@<TRIPOS>ATOM
      1 C1         2.7727    2.9221    6.4060 C.ar      1 RES1    0.0000
      2 C2         1.8727    3.2101    5.3658 C.ar      1 RES1    0.0000
      3 C3         1.1131    4.3738    5.4842 C.ar      1 RES1    0.0000
      4 C4         1.2640    5.2690    6.5352 C.ar      1 RES1    0.0000
      5 C5         2.1739    4.9779    7.5383 C.ar      1 RES1    0.0000
      6 C6         2.9093    3.7992    7.4876 C.ar      1 RES1    0.0000
      7 C7         3.5829    1.6641    6.3442 C.2       1 RES1    0.0000
      8 O1         3.5705    0.9377    5.3680 O.2       1 RES1    0.0000
      9 O2         4.2969    1.4342    7.4268 O.3       1 RES1    0.0000
     10 C8         1.8339    2.3222    4.1390 C.2       1 RES1    0.0000
     11 O3         2.5087    2.5747    3.1594 O.2       1 RES1    0.0000
     12 O4         1.0581    1.2717    4.2756 O.3       1 RES1    0.0000
     13 N1         0.0694    4.6633    4.4824 N.pl3     1 RES1    0.0000
     14 O5        -0.5643    5.7103    4.5844 O.2       1 RES1    0.0000
     15 O6        -0.1361    3.8250    3.6078 O.2       1 RES1    0.0000
     16 H1         0.7516    6.0684    6.5656 H         1 RES1    0.0000
     17 H2         2.2956    5.5832    8.2605 H         1 RES1    0.0000
     18 H3         3.5090    3.5873    8.1929 H         1 RES1    0.0000
     19 H4         4.6951    0.6991    7.3491 H         1 RES1    0.0000
     20 H5         1.2428    0.7081    3.6813 H         1 RES1    0.0000
@<TRIPOS>BOND
     1    1    2 ar
     2    2    3 ar
     3    3    4 ar
     4    4    5 ar
     5    5    6 ar
     6    6    1 ar
     7    7    1 1
     8    8    7 2
     9    9    7 1
    10   10    2 1
    11   11   10 2
    12   12   10 1
    13   13    3 1
    14   14   13 2
    15   15   13 2
    16   16    4 1
    17   17    5 1
    18   18    6 1
    19   19    9 1
    20   20   12 1
@<TRIPOS>SUBSTRUCTURE
     1 RES1 1

@<TRIPOS>CRYSIN
   9.4972    6.9014   12.3077  90.0000  92.0599  90.0000 231 1

