# MOL2 file generated by ConQuest
# Please check atom types

@<TRIPOS>MOLECULE
WUXHAY
    31    32     1
SMALL
NO_CHARGES
****
Generated from CSD

@<TRIPOS>ATOM
      1 O1        13.3852    0.9193    3.5986 O.2       1 RES1    0.0000
      2 O2        13.4459    0.8838    5.7242 O.2       1 RES1    0.0000
      3 O3         9.4831    0.6088    8.2461 O.2       1 RES1    0.0000
      4 O4         7.5341    0.6231    7.3550 O.2       1 RES1    0.0000
      5 N1        12.8402    0.8743    4.6759 N.pl3     1 RES1    0.0000
      6 N2         8.7665    0.6381    7.2581 N.pl3     1 RES1    0.0000
      7 N3         7.2441    0.6450    4.7436 N.pl3     1 RES1    0.0000
      8 H1         6.7968    0.5842    5.4748 H         1 RES1    0.0000
      9 N4         6.5994    0.6784    3.5304 N.2       1 RES1    0.0000
     10 C1         8.5928    0.7091    4.7668 C.ar      1 RES1    0.0000
     11 C2         9.3690    0.6900    5.9554 C.ar      1 RES1    0.0000
     12 C3        10.7516    0.7337    5.9192 C.ar      1 RES1    0.0000
     13 H2        11.2422    0.7105    6.7089 H         1 RES1    0.0000
     14 C4        11.3869    0.8108    4.7158 C.ar      1 RES1    0.0000
     15 C5        10.6723    0.8627    3.5285 C.ar      1 RES1    0.0000
     16 H3        11.1202    0.9296    2.7159 H         1 RES1    0.0000
     17 C6         9.3170    0.8142    3.5565 C.ar      1 RES1    0.0000
     18 H4         8.8486    0.8511    2.7531 H         1 RES1    0.0000
     19 C7         5.3255    0.6368    3.5606 C.2       1 RES1    0.0000
     20 H5         4.8863    0.5794    4.3781 H         1 RES1    0.0000
     21 C8         4.5484    0.6770    2.3242 C.ar      1 RES1    0.0000
     22 C9         3.1642    0.7002    2.3899 C.ar      1 RES1    0.0000
     23 H6         2.7394    0.6791    3.2170 H         1 RES1    0.0000
     24 C10        2.4130    0.7535    1.2290 C.ar      1 RES1    0.0000
     25 H7         1.4838    0.7678    1.2756 H         1 RES1    0.0000
     26 C11        3.0420    0.7849    0.0077 C.ar      1 RES1    0.0000
     27 H8         2.5362    0.8245   -0.7717 H         1 RES1    0.0000
     28 C12        4.4178    0.7576   -0.0683 C.ar      1 RES1    0.0000
     29 H9         4.8371    0.7726   -0.8977 H         1 RES1    0.0000
     30 C13        5.1716    0.7084    1.0811 C.ar      1 RES1    0.0000
     31 H10        6.1001    0.6962    1.0265 H         1 RES1    0.0000
@<TRIPOS>BOND
     1    1    5 2
     2    2    5 2
     3    3    6 2
     4    4    6 2
     5    5   14 1
     6    6   11 1
     7    7    8 1
     8    9    7 1
     9   10    7 1
    10   11   10 ar
    11   12   11 ar
    12   13   12 1
    13   14   12 ar
    14   15   14 ar
    15   16   15 1
    16   17   10 ar
    17   18   17 1
    18   19    9 2
    19   20   19 1
    20   21   19 1
    21   22   21 ar
    22   23   22 1
    23   24   22 ar
    24   25   24 1
    25   26   24 ar
    26   27   26 1
    27   28   26 ar
    28   29   28 1
    29   30   21 ar
    30   31   30 1
    31   15   17 ar
    32   28   30 ar
@<TRIPOS>SUBSTRUCTURE
     1 RES1 1

@<TRIPOS>CRYSIN
  13.2900    6.8250   14.3316  90.0000  92.5960  90.0000  14 1

