# MOL2 file generated by ConQuest
# Please check atom types

@<TRIPOS>MOLECULE
WUXJII
    47    51     1
SMALL
NO_CHARGES
****
Generated from CSD

@<TRIPOS>ATOM
      1 O1        -2.0246   14.4432   -1.5630 O.2       1 RES1    0.0000
      2 N1         1.9375   16.5432    2.2332 N.ar      1 RES1    0.0000
      3 N2        -1.4531   15.6917    0.0874 N.3       1 RES1    0.0000
      4 N3        -2.2720   14.7786   -0.4029 N.2       1 RES1    0.0000
      5 C1         0.6422   16.9867    0.2373 C.3       1 RES1    0.0000
      6 H1         1.5266   17.0129   -0.1609 H         1 RES1    0.0000
      7 H2         0.3096   17.8972    0.2696 H         1 RES1    0.0000
      8 C2        -0.2772   16.1656   -0.6741 C.3       1 RES1    0.0000
      9 H3         0.2226   15.3773   -0.9726 H         1 RES1    0.0000
     10 C3        -1.7133   16.0111    1.5126 C.3       1 RES1    0.0000
     11 H4        -2.2396   15.2675    1.8738 H         1 RES1    0.0000
     12 C4        -0.3516   15.6809    3.5978 C.ar      1 RES1    0.0000
     13 H5        -1.1105   15.3677    4.0333 H         1 RES1    0.0000
     14 C5         1.0033   15.5158    5.6728 C.ar      1 RES1    0.0000
     15 H6         0.2682   15.2251    6.1616 H         1 RES1    0.0000
     16 C6         2.1988   15.6721    6.2904 C.ar      1 RES1    0.0000
     17 H7         2.2705   15.4948    7.2006 H         1 RES1    0.0000
     18 C7         3.3301   16.0967    5.5813 C.ar      1 RES1    0.0000
     19 H8         4.1453   16.1961    6.0178 H         1 RES1    0.0000
     20 C8         3.2301   16.3658    4.2405 C.ar      1 RES1    0.0000
     21 H9         3.9816   16.6507    3.7728 H         1 RES1    0.0000
     22 C9         2.0092   16.2165    3.5651 C.ar      1 RES1    0.0000
     23 C10        0.8621   15.7898    4.2920 C.ar      1 RES1    0.0000
     24 C11        0.7668   16.4764    1.6387 C.ar      1 RES1    0.0000
     25 C12       -0.4148   16.0356    2.2851 C.ar      1 RES1    0.0000
     26 C13       -2.5714   17.2622    1.6591 C.ar      1 RES1    0.0000
     27 C14       -3.9082   17.1832    1.3015 C.ar      1 RES1    0.0000
     28 H10       -4.2460   16.3849    0.9666 H         1 RES1    0.0000
     29 C15       -4.7489   18.2773    1.4343 C.ar      1 RES1    0.0000
     30 H11       -5.6453   18.2131    1.1929 H         1 RES1    0.0000
     31 C16       -4.2492   19.4517    1.9221 C.ar      1 RES1    0.0000
     32 H12       -4.8089   20.1897    2.0126 H         1 RES1    0.0000
     33 C17       -2.9288   19.5507    2.2792 C.ar      1 RES1    0.0000
     34 H13       -2.5966   20.3573    2.6030 H         1 RES1    0.0000
     35 C18       -2.0836   18.4509    2.1615 C.ar      1 RES1    0.0000
     36 H14       -1.1930   18.5175    2.4200 H         1 RES1    0.0000
     37 C19       -0.6393   16.9744   -1.8989 C.ar      1 RES1    0.0000
     38 C20        0.1061   16.8070   -3.0577 C.ar      1 RES1    0.0000
     39 H15        0.7499   16.1383   -3.1019 H         1 RES1    0.0000
     40 C21       -0.1068   17.6325   -4.1460 C.ar      1 RES1    0.0000
     41 H16        0.4044   17.5177   -4.9154 H         1 RES1    0.0000
     42 C22       -1.0639   18.6215   -4.1067 C.ar      1 RES1    0.0000
     43 H17       -1.1950   19.1783   -4.8410 H         1 RES1    0.0000
     44 C23       -1.8262   18.7788   -2.9702 C.ar      1 RES1    0.0000
     45 H18       -2.4898   19.4288   -2.9420 H         1 RES1    0.0000
     46 C24       -1.6051   17.9696   -1.8696 C.ar      1 RES1    0.0000
     47 H19       -2.1106   18.0956   -1.0994 H         1 RES1    0.0000
@<TRIPOS>BOND
     1    1    4 2
     2    2   22 ar
     3    3    4 1
     4    5    6 1
     5    7    5 1
     6    8    3 1
     7    9    8 1
     8   10    3 1
     9   11   10 1
    10   12   13 1
    11   14   15 1
    12   16   14 ar
    13   17   16 1
    14   18   16 ar
    15   19   18 1
    16   20   18 ar
    17   21   20 1
    18   22   20 ar
    19   23   12 ar
    20   24    2 ar
    21   25   10 1
    22   26   10 1
    23   27   26 ar
    24   28   27 1
    25   29   27 ar
    26   30   29 1
    27   31   29 ar
    28   32   31 1
    29   33   31 ar
    30   34   33 1
    31   35   26 ar
    32   36   35 1
    33   37    8 1
    34   38   37 ar
    35   39   38 1
    36   40   38 ar
    37   41   40 1
    38   42   40 ar
    39   43   42 1
    40   44   42 ar
    41   45   44 1
    42   46   37 ar
    43   47   46 1
    44    5    8 1
    45    5   24 1
    46   12   25 ar
    47   14   23 ar
    48   22   23 ar
    49   24   25 ar
    50   33   35 ar
    51   44   46 ar
@<TRIPOS>SUBSTRUCTURE
     1 RES1 1

@<TRIPOS>CRYSIN
   9.7130   19.2650   10.4500  90.0000 105.7400  90.0000  14 2

