# MOL2 file generated by ConQuest
# Please check atom types

@<TRIPOS>MOLECULE
WUXJOO
    38    39     1
SMALL
NO_CHARGES
****
Generated from CSD

@<TRIPOS>ATOM
      1 O1         1.1044    1.5903   14.8418 O.2       1 RES1    0.0000
      2 O2         2.9291    1.9135   15.9435 O.2       1 RES1    0.0000
      3 O3         8.0323   -0.6002    9.7468 O.2       1 RES1    0.0000
      4 O4         8.5601    0.1120   11.7159 O.2       1 RES1    0.0000
      5 O5         7.9803    2.4855    9.2464 O.2       1 RES1    0.0000
      6 O6         7.9707    2.2427    7.1649 O.2       1 RES1    0.0000
      7 O7         2.5042   -0.2189    5.9767 O.2       1 RES1    0.0000
      8 O8         3.8081    1.1739    5.0183 O.2       1 RES1    0.0000
      9 O9         1.2148    3.7237   13.1315 O.3       1 RES1    0.0000
     10 N1         2.2841    1.9179   14.9115 N.pl3     1 RES1    0.0000
     11 N2         7.8090    0.0530   10.7567 N.pl3     1 RES1    0.0000
     12 N3         7.4744    2.0785    8.2562 N.pl3     1 RES1    0.0000
     13 N4         3.4622    0.5190    5.9792 N.pl3     1 RES1    0.0000
     14 C1         4.2137    1.7048   13.4507 C.ar      1 RES1    0.0000
     15 H1         4.6006    1.1568   14.0938 H         1 RES1    0.0000
     16 C2         2.9861    2.2831   13.6842 C.ar      1 RES1    0.0000
     17 C3         2.3973    3.1750   12.7856 C.ar      1 RES1    0.0000
     18 C4         3.1032    3.4662   11.6249 C.ar      1 RES1    0.0000
     19 H2         2.7611    4.0860   11.0228 H         1 RES1    0.0000
     20 C5         4.3023    2.8489   11.3582 C.ar      1 RES1    0.0000
     21 H3         4.7422    3.0412   10.5619 H         1 RES1    0.0000
     22 C6         4.8756    1.9414   12.2484 C.ar      1 RES1    0.0000
     23 C7         6.1251    1.2295   11.9727 C.2       1 RES1    0.0000
     24 H4         6.6875    1.0705   12.6974 H         1 RES1    0.0000
     25 C8         6.5298    0.7883   10.7887 C.2       1 RES1    0.0000
     26 C9         5.7692    0.7714    9.5215 C.ar      1 RES1    0.0000
     27 C10        4.5419    0.1052    9.5055 C.ar      1 RES1    0.0000
     28 H5         4.2312   -0.2950   10.2866 H         1 RES1    0.0000
     29 C11        3.7815    0.0274    8.3611 C.ar      1 RES1    0.0000
     30 H6         2.9633   -0.4138    8.3647 H         1 RES1    0.0000
     31 C12        4.2559    0.6165    7.2116 C.ar      1 RES1    0.0000
     32 C13        5.4622    1.2757    7.1672 C.ar      1 RES1    0.0000
     33 H7         5.7701    1.6596    6.3782 H         1 RES1    0.0000
     34 C14        6.1948    1.3491    8.3192 C.ar      1 RES1    0.0000
     35 C15        0.6142    4.6469   12.2197 C.3       1 RES1    0.0000
     36 H8         1.1921    5.4045   12.1045 H         1 RES1    0.0000
     37 H9        -0.2299    4.9393   12.5709 H         1 RES1    0.0000
     38 H10        0.4773    4.2160   11.3712 H         1 RES1    0.0000
@<TRIPOS>BOND
     1    1   10 2
     2    2   10 2
     3    3   11 2
     4    4   11 2
     5    5   12 2
     6    6   12 2
     7    7   13 2
     8    8   13 2
     9    9   17 1
    10   10   16 1
    11   11   25 1
    12   12   34 1
    13   13   31 1
    14   14   15 1
    15   16   14 ar
    16   17   16 ar
    17   18   17 ar
    18   19   18 1
    19   20   18 ar
    20   21   20 1
    21   22   14 ar
    22   23   22 1
    23   24   23 1
    24   25   23 2
    25   26   25 1
    26   27   26 ar
    27   28   27 1
    28   29   27 ar
    29   30   29 1
    30   31   29 ar
    31   32   31 ar
    32   33   32 1
    33   34   26 ar
    34   35    9 1
    35   36   35 1
    36   37   35 1
    37   38   35 1
    38   20   22 ar
    39   32   34 ar
@<TRIPOS>SUBSTRUCTURE
     1 RES1 1

@<TRIPOS>CRYSIN
   7.0960    8.5500   28.1010  90.0000  90.8700  90.0000  14 1

