# MOL2 file generated by ConQuest
# Please check atom types

@<TRIPOS>MOLECULE
WUXVUI
    37    39     1
SMALL
NO_CHARGES
****
Generated from CSD

@<TRIPOS>ATOM
      1 O1         3.1982    4.3385    3.1394 O.3       1 RES1    0.0000
      2 O2         0.5559    7.7626    7.0429 O.2       1 RES1    0.0000
      3 O3         2.2642    7.7594    5.5589 O.3       1 RES1    0.0000
      4 N1         2.7609    4.3428    1.7858 N.2       1 RES1    0.0000
      5 N2        -0.3885    5.3668    5.7846 N.pl3     1 RES1    0.0000
      6 H1        -0.9646    5.6429    6.3724 H         1 RES1    0.0000
      7 C1         1.6340    4.7856   -0.7782 C.ar      1 RES1    0.0000
      8 H2         1.7364    3.8837   -0.4990 H         1 RES1    0.0000
      9 C2         1.2164    5.0668   -2.0719 C.ar      1 RES1    0.0000
     10 H3         1.0276    4.3577   -2.6749 H         1 RES1    0.0000
     11 C3         1.0763    6.3803   -2.4831 C.ar      1 RES1    0.0000
     12 H4         0.8102    6.5722   -3.3741 H         1 RES1    0.0000
     13 C4         1.3227    7.4090   -1.6014 C.ar      1 RES1    0.0000
     14 H5         1.2115    8.3085   -1.8843 H         1 RES1    0.0000
     15 C5         1.7312    7.1405   -0.3049 C.ar      1 RES1    0.0000
     16 H6         1.8925    7.8560    0.2988 H         1 RES1    0.0000
     17 C6         1.9051    5.8267    0.1134 C.ar      1 RES1    0.0000
     18 C7         2.3797    5.5298    1.4816 C.2       1 RES1    0.0000
     19 C8         2.5319    6.5205    2.5990 C.3       1 RES1    0.0000
     20 H7         1.7222    7.0811    2.7068 H         1 RES1    0.0000
     21 H8         3.3223    7.1026    2.4689 H         1 RES1    0.0000
     22 C9         2.7183    5.5630    3.7738 C.3       1 RES1    0.0000
     23 H9         3.3994    5.9182    4.4141 H         1 RES1    0.0000
     24 C10        1.4282    5.2417    4.4916 C.2       1 RES1    0.0000
     25 C11        0.6428    4.1003    4.2894 C.2       1 RES1    0.0000
     26 H10        0.8416    3.3801    3.7033 H         1 RES1    0.0000
     27 C12       -0.4648    4.2095    5.0891 C.2       1 RES1    0.0000
     28 H11       -1.1701    3.5761    5.1452 H         1 RES1    0.0000
     29 C13        0.7713    6.0208    5.4406 C.2       1 RES1    0.0000
     30 C14        1.1420    7.2507    6.0990 C.2       1 RES1    0.0000
     31 C15        2.8770    8.9065    6.2046 C.3       1 RES1    0.0000
     32 H12        2.9052    8.7799    7.1862 H         1 RES1    0.0000
     33 H13        2.3671    9.7307    6.0054 H         1 RES1    0.0000
     34 C16        4.2715    8.9984    5.6428 C.3       1 RES1    0.0000
     35 H14        4.7629    9.7105    6.1026 H         1 RES1    0.0000
     36 H15        4.2246    9.2002    4.6854 H         1 RES1    0.0000
     37 H16        4.7333    8.1447    5.7748 H         1 RES1    0.0000
@<TRIPOS>BOND
     1    1    4 1
     2    2   30 2
     3    3   30 1
     4    4   18 2
     5    5    6 1
     6    7    8 1
     7    9    7 ar
     8   10    9 1
     9   11    9 ar
    10   12   11 1
    11   13   11 ar
    12   14   13 1
    13   15   13 ar
    14   16   15 1
    15   17    7 ar
    16   18   17 1
    17   19   18 1
    18   20   19 1
    19   21   19 1
    20   22    1 1
    21   23   22 1
    22   24   22 1
    23   25   24 1
    24   26   25 1
    25   27    5 1
    26   28   27 1
    27   29    5 1
    28   30   29 1
    29   31    3 1
    30   32   31 1
    31   33   31 1
    32   34   31 1
    33   35   34 1
    34   36   34 1
    35   37   34 1
    36   15   17 ar
    37   19   22 1
    38   24   29 2
    39   25   27 2
@<TRIPOS>SUBSTRUCTURE
     1 RES1 1

@<TRIPOS>CRYSIN
   7.2240   13.4290   14.6590  90.0000  98.2900  90.0000 231 1

