# MOL2 file generated by ConQuest
# Please check atom types

@<TRIPOS>MOLECULE
WUYLUZ
    33    34     1
SMALL
NO_CHARGES
****
Generated from CSD

@<TRIPOS>ATOM
      1 O1         7.0978    2.8322    1.7587 O.2       1 RES1    0.0000
      2 O2         6.9075    4.9234    2.1782 O.2       1 RES1    0.0000
      3 N1         6.5150    3.7743    2.2719 N.pl3     1 RES1    0.0000
      4 N2         0.1462    4.5373    5.8977 N.1       1 RES1    0.0000
      5 N3         0.5322    1.1491    6.4444 N.pl3     1 RES1    0.0000
      6 H1         0.1851    0.3711    6.5674 H         1 RES1    0.0000
      7 H2         0.0589    1.8022    6.7479 H         1 RES1    0.0000
      8 N4         2.3157    0.4150    5.1722 N.pl3     1 RES1    0.0000
      9 C1         5.3214    3.5304    3.0533 C.ar      1 RES1    0.0000
     10 C2         4.6127    4.5905    3.5759 C.ar      1 RES1    0.0000
     11 H3         4.9189    5.4806    3.4487 H         1 RES1    0.0000
     12 C3         3.4584    4.3489    4.2843 C.ar      1 RES1    0.0000
     13 H4         2.9782    5.0748    4.6642 H         1 RES1    0.0000
     14 C4         2.9893    3.0426    4.4484 C.ar      1 RES1    0.0000
     15 C5         3.7383    1.9802    3.9224 C.ar      1 RES1    0.0000
     16 C6         4.9105    2.2265    3.2261 C.ar      1 RES1    0.0000
     17 H5         5.4213    1.5074    2.8728 H         1 RES1    0.0000
     18 C7         3.1749    0.6023    4.0075 C.3       1 RES1    0.0000
     19 H6         2.6530    0.4162    3.1874 H         1 RES1    0.0000
     20 H7         3.9192   -0.0486    4.0470 H         1 RES1    0.0000
     21 C8         1.7753    2.7224    5.1516 C.2       1 RES1    0.0000
     22 C9         0.8904    3.7350    5.5702 C.1       1 RES1    0.0000
     23 C10        1.5223    1.4057    5.5728 C.2       1 RES1    0.0000
     24 C11        2.2263   -0.9595    5.6639 C.3       1 RES1    0.0000
     25 H8         1.7726   -0.9525    6.5442 H         1 RES1    0.0000
     26 H9         3.1422   -1.3086    5.8023 H         1 RES1    0.0000
     27 C12        1.4886   -1.8947    4.7502 C.3       1 RES1    0.0000
     28 H10        0.5273   -1.6565    4.7519 H         1 RES1    0.0000
     29 H11        1.8279   -1.7779    3.8270 H         1 RES1    0.0000
     30 C13        1.6367   -3.3304    5.1473 C.3       1 RES1    0.0000
     31 H12        1.1099   -3.8923    4.5421 H         1 RES1    0.0000
     32 H13        1.3177   -3.4495    6.0662 H         1 RES1    0.0000
     33 H14        2.5807   -3.5882    5.0931 H         1 RES1    0.0000
@<TRIPOS>BOND
     1    1    3 2
     2    2    3 2
     3    3    9 1
     4    4   22 3
     5    5    6 1
     6    7    5 1
     7    8   18 1
     8    9   10 ar
     9   10   11 1
    10   12   10 ar
    11   13   12 1
    12   14   12 ar
    13   15   14 ar
    14   16    9 ar
    15   17   16 1
    16   18   15 1
    17   19   18 1
    18   20   18 1
    19   21   14 1
    20   22   21 1
    21   23    5 1
    22   24    8 1
    23   25   24 1
    24   26   24 1
    25   27   24 1
    26   28   27 1
    27   29   27 1
    28   30   27 1
    29   31   30 1
    30   32   30 1
    31   33   30 1
    32    8   23 1
    33   15   16 ar
    34   21   23 2
@<TRIPOS>SUBSTRUCTURE
     1 RES1 1

@<TRIPOS>CRYSIN
  12.5160   11.5600    8.6200  90.0000  94.2740  90.0000  14 1

