# MOL2 file generated by ConQuest
# Please check atom types

@<TRIPOS>MOLECULE
XABCOT
    26    26     1
SMALL
USER_CHARGES
****
Generated from CSD

@<TRIPOS>ATOM
      1 O1         0.4081    3.6895    2.0577 O.2       1 RES1   -1.0000
      2 O2        -2.5979    4.6298   -3.3200 O.2       1 RES1    0.0000
      3 O3        -3.4823    6.2091   -2.1203 O.2       1 RES1    0.0000
      4 O4        -1.4178    5.0868    3.5097 O.2       1 RES1    0.0000
      5 O5        -2.1321    6.8234    2.4195 O.2       1 RES1    0.0000
      6 N1         1.7433    2.1534    0.3795 N.pl3     1 RES1    1.0000
      7 N2        -2.7298    5.2405   -2.2567 N.pl3     1 RES1    0.0000
      8 N3        -1.6641    5.6779    2.4603 N.pl3     1 RES1    0.0000
      9 C1        -0.2292    3.3976   -0.2077 C.ar      1 RES1    0.0000
     10 C2        -0.3644    3.9953    1.1139 C.ar      1 RES1    0.0000
     11 C3        -1.4095    4.9989    1.2019 C.ar      1 RES1    0.0000
     12 C4        -2.1506    5.4127    0.1154 C.ar      1 RES1    0.0000
     13 C5        -1.9587    4.7955   -1.1205 C.ar      1 RES1    0.0000
     14 C6        -1.0220    3.7818   -1.2834 C.ar      1 RES1    0.0000
     15 C7         0.8369    2.4737   -0.4883 C.2       1 RES1    0.0000
     16 C8         2.9258    1.3514    0.0544 C.3       1 RES1    0.0000
     17 C9         4.0851    2.2560   -0.3313 C.3       1 RES1    0.0000
     18 H1         1.6816    2.5704    1.3193 H         1 RES1    0.0000
     19 H2        -2.8797    6.2003    0.2360 H         1 RES1    0.0000
     20 H3        -0.8804    3.3460   -2.2614 H         1 RES1    0.0000
     21 H4         0.9516    2.0250   -1.4695 H         1 RES1    0.0000
     22 H5         2.6590    0.6763   -0.7586 H         1 RES1    0.0000
     23 H6         3.1757    0.7910    0.9554 H         1 RES1    0.0000
     24 H7         4.9510    1.6782   -0.5307 H         1 RES1    0.0000
     25 H8         4.3005    2.9053    0.4783 H         1 RES1    0.0000
     26 H9         3.8214    2.8247   -1.1861 H         1 RES1    0.0000
@<TRIPOS>BOND
     1    1   10 1
     2    2    7 2
     3    3    7 2
     4    4    8 2
     5    5    8 2
     6    6   15 2
     7    7   13 1
     8    8   11 1
     9    9   10 ar
    10   10   11 ar
    11   11   12 ar
    12   12   13 ar
    13   13   14 ar
    14   14    9 ar
    15   15    9 1
    16   16    6 1
    17   17   16 1
    18   18    6 1
    19   19   12 1
    20   20   14 1
    21   21   15 1
    22   22   16 1
    23   23   16 1
    24   24   17 1
    25   25   17 1
    26   26   17 1
@<TRIPOS>SUBSTRUCTURE
     1 RES1 1

@<TRIPOS>CRYSIN
   8.1530   11.2840   11.3730  90.0000  91.9160  90.0000  14 1

