# MOL2 file generated by ConQuest
# Please check atom types

@<TRIPOS>MOLECULE
XABCUZ
    34    35     1
SMALL
USER_CHARGES
****
Generated from CSD

@<TRIPOS>ATOM
      1 O1        -0.1066    1.4099   -0.4335 O.2       1 RES1   -1.0000
      2 O2         3.9600    5.9643   -1.6872 O.2       1 RES1    0.0000
      3 O3         2.2421    6.6378   -2.8373 O.2       1 RES1    0.0000
      4 N1         1.9478    0.7698    1.1418 N.pl3     1 RES1    1.0000
      5 N2         2.7985    5.8213   -2.0950 N.pl3     1 RES1    0.0000
      6 C1         1.9106    2.6630   -0.3371 C.ar      1 RES1    0.0000
      7 C2         0.5673    2.4020   -0.8290 C.ar      1 RES1    0.0000
      8 C3         0.0402    3.3546   -1.7823 C.ar      1 RES1    0.0000
      9 C4         0.7616    4.4415   -2.1942 C.ar      1 RES1    0.0000
     10 C5         2.0693    4.6499   -1.6903 C.ar      1 RES1    0.0000
     11 C6         2.6343    3.7807   -0.7737 C.ar      1 RES1    0.0000
     12 C7         2.5147    1.8331    0.6630 C.2       1 RES1    0.0000
     13 C8         2.4561   -0.0676    2.2421 C.3       1 RES1    0.0000
     14 C9         3.7611    0.4390    2.8449 C.3       1 RES1    0.0000
     15 C10        4.1868   -0.4636    4.0149 C.3       1 RES1    0.0000
     16 C11        3.0859   -0.5920    5.0674 C.3       1 RES1    0.0000
     17 C12        1.7908   -1.0922    4.4385 C.3       1 RES1    0.0000
     18 C13        1.3525   -0.1753    3.2951 C.3       1 RES1    0.0000
     19 H1        -0.9631    3.2117   -2.1554 H         1 RES1    0.0000
     20 H2         0.3709    5.1514   -2.9082 H         1 RES1    0.0000
     21 H3         3.6035    4.0069   -0.3541 H         1 RES1    0.0000
     22 H4         3.4795    2.1230    1.0659 H         1 RES1    0.0000
     23 H5         2.6156   -1.0421    1.7805 H         1 RES1    0.0000
     24 H6         3.5852    1.4214    3.2021 H         1 RES1    0.0000
     25 H7         4.5150    0.4476    2.0577 H         1 RES1    0.0000
     26 H8         5.0781   -0.0273    4.4657 H         1 RES1    0.0000
     27 H9         4.4654   -1.4412    3.6214 H         1 RES1    0.0000
     28 H10        3.3970   -1.2416    5.8856 H         1 RES1    0.0000
     29 H11        2.9158    0.3677    5.5554 H         1 RES1    0.0000
     30 H12        1.9661   -2.1034    4.0711 H         1 RES1    0.0000
     31 H13        1.0183   -1.1498    5.2054 H         1 RES1    0.0000
     32 H14        1.1160    0.8072    3.7034 H         1 RES1    0.0000
     33 H15        0.4691   -0.6018    2.8199 H         1 RES1    0.0000
     34 H16        1.0531    0.4955    0.7116 H         1 RES1    0.0000
@<TRIPOS>BOND
     1    1    7 1
     2    2    5 2
     3    3    5 2
     4    4   12 2
     5    5   10 1
     6    6    7 ar
     7    7    8 ar
     8    8    9 ar
     9    9   10 ar
    10   10   11 ar
    11   11    6 ar
    12   12    6 1
    13   13    4 1
    14   14   13 1
    15   15   14 1
    16   16   15 1
    17   17   16 1
    18   18   13 1
    19   19    8 1
    20   20    9 1
    21   21   11 1
    22   22   12 1
    23   23   13 1
    24   24   14 1
    25   25   14 1
    26   26   15 1
    27   27   15 1
    28   28   16 1
    29   29   16 1
    30   30   17 1
    31   31   17 1
    32   32   18 1
    33   33   18 1
    34   34    4 1
    35   17   18 1
@<TRIPOS>SUBSTRUCTURE
     1 RES1 1

@<TRIPOS>CRYSIN
   6.2451   10.0966   10.8726  67.2270  83.4550  75.0300   2 1

