# MOL2 file generated by ConQuest
# Please check atom types

@<TRIPOS>MOLECULE
XACCOW
    48    48     1
SMALL
NO_CHARGES
****
Generated from CSD

@<TRIPOS>ATOM
      1 C1         6.3941    4.3600    2.3655 C.ar      1 RES1    0.0000
      2 C2         7.1163    5.0476    3.3321 C.ar      1 RES1    0.0000
      3 C3         7.0302    6.4345    3.3007 C.ar      1 RES1    0.0000
      4 C4         6.2831    7.1196    2.3596 C.ar      1 RES1    0.0000
      5 H1         6.2396    8.0679    2.3645 H         1 RES1    0.0000
      6 C5         5.6030    6.3798    1.4126 C.ar      1 RES1    0.0000
      7 C6         5.6353    4.9892    1.3794 C.ar      1 RES1    0.0000
      8 C7         7.9169    4.3331    4.4003 C.2       1 RES1    0.0000
      9 C8         9.7526    2.9388    4.7496 C.3       1 RES1    0.0000
     10 H2         9.1941    2.2963    5.2534 H         1 RES1    0.0000
     11 H3        10.2028    3.5401    5.3943 H         1 RES1    0.0000
     12 C9        10.7736    2.2057    3.9063 C.3       1 RES1    0.0000
     13 C10        4.8988    4.1942    0.3219 C.2       1 RES1    0.0000
     14 C11        3.1590    2.6841   -0.0264 C.3       1 RES1    0.0000
     15 H4         3.7501    1.9471   -0.3199 H         1 RES1    0.0000
     16 H5         2.8426    3.1759   -0.8257 H         1 RES1    0.0000
     17 C12        1.9887    2.1463    0.7670 C.3       1 RES1    0.0000
     18 N1         6.4073    2.8809    2.4046 N.pl3     1 RES1    0.0000
     19 N2        11.4164    3.1071    2.8726 N.pl3     1 RES1    0.0000
     20 N3        11.9063    1.6854    4.7840 N.pl3     1 RES1    0.0000
     21 N4        10.1745    1.0115    3.1778 N.pl3     1 RES1    0.0000
     22 N5         7.8205    7.2291    4.2589 N.pl3     1 RES1    0.0000
     23 N6         4.7723    7.1118    0.4472 N.pl3     1 RES1    0.0000
     24 N7         0.9896    1.4860   -0.1742 N.pl3     1 RES1    0.0000
     25 N8         1.2727    3.2730    1.4938 N.pl3     1 RES1    0.0000
     26 N9         2.3766    1.0886    1.7941 N.pl3     1 RES1    0.0000
     27 O1         6.3798    2.2905    1.3355 O.2       1 RES1    0.0000
     28 O2         6.4331    2.3533    3.5056 O.2       1 RES1    0.0000
     29 O3         8.9445    3.6985    3.8333 O.3       1 RES1    0.0000
     30 O4         7.6657    4.3507    5.5643 O.2       1 RES1    0.0000
     31 O5        11.5933    2.6493    1.7606 O.2       1 RES1    0.0000
     32 O6        11.7152    4.2120    3.2735 O.2       1 RES1    0.0000
     33 O7        12.9868    1.5607    4.2578 O.2       1 RES1    0.0000
     34 O8        11.5898    1.4273    5.9203 O.2       1 RES1    0.0000
     35 O9        10.7327   -0.0477    3.2821 O.2       1 RES1    0.0000
     36 O10        9.1514    1.2403    2.5663 O.2       1 RES1    0.0000
     37 O11        8.9589    6.8432    4.4872 O.2       1 RES1    0.0000
     38 O12        7.3002    8.2260    4.7235 O.2       1 RES1    0.0000
     39 O13        3.7831    6.5276    0.0119 O.2       1 RES1    0.0000
     40 O14        5.0980    8.2443    0.1622 O.2       1 RES1    0.0000
     41 O15        3.8561    3.5672    0.8720 O.3       1 RES1    0.0000
     42 O16        5.2228    4.1279   -0.8246 O.2       1 RES1    0.0000
     43 O17       -0.1767    1.6596    0.0270 O.2       1 RES1    0.0000
     44 O18        1.5098    0.7996   -1.0272 O.2       1 RES1    0.0000
     45 O19        1.1126    3.1620    2.6856 O.2       1 RES1    0.0000
     46 O20        0.9444    4.1989    0.7772 O.2       1 RES1    0.0000
     47 O21        1.5091    0.3249    2.1359 O.2       1 RES1    0.0000
     48 O22        3.5311    1.1192    2.1690 O.2       1 RES1    0.0000
@<TRIPOS>BOND
     1    1    2 ar
     2    2    3 ar
     3    3    4 ar
     4    4    5 1
     5    6    4 ar
     6    7    1 ar
     7    8    2 1
     8    9   10 1
     9   11    9 1
    10   12    9 1
    11   13    7 1
    12   14   15 1
    13   16   14 1
    14   17   14 1
    15   18    1 1
    16   19   12 1
    17   20   12 1
    18   21   12 1
    19   22    3 1
    20   23    6 1
    21   24   17 1
    22   25   17 1
    23   26   17 1
    24   27   18 2
    25   28   18 2
    26   29    8 1
    27   30    8 2
    28   31   19 2
    29   32   19 2
    30   33   20 2
    31   34   20 2
    32   35   21 2
    33   36   21 2
    34   37   22 2
    35   38   22 2
    36   39   23 2
    37   40   23 2
    38   41   13 1
    39   42   13 2
    40   43   24 2
    41   44   24 2
    42   45   25 2
    43   46   25 2
    44   47   26 2
    45   48   26 2
    46    6    7 ar
    47    9   29 1
    48   14   41 1
@<TRIPOS>SUBSTRUCTURE
     1 RES1 1

@<TRIPOS>CRYSIN
  13.8583   16.6279   10.0771  90.0000 103.8790  90.0000  14 1

