# MOL2 file generated by ConQuest
# Please check atom types

@<TRIPOS>MOLECULE
XACCUC
    33    33     1
SMALL
NO_CHARGES
****
Generated from CSD

@<TRIPOS>ATOM
      1 C1         3.3881    8.2024    4.4731 C.ar      1 RES1    0.0000
      2 C2         3.8812    8.5203    3.2094 C.ar      1 RES1    0.0000
      3 C3         4.9761    7.7694    2.7774 C.ar      1 RES1    0.0000
      4 C4         5.5930    6.8244    3.5738 C.ar      1 RES1    0.0000
      5 H1         6.3411    6.3310    3.2609 H         1 RES1    0.0000
      6 C5         5.0872    6.6221    4.8360 C.ar      1 RES1    0.0000
      7 C6         3.9675    7.2657    5.3056 C.ar      1 RES1    0.0000
      8 H2         3.6090    7.0743    6.1638 H         1 RES1    0.0000
      9 C7         3.2136    9.5550    2.3413 C.2       1 RES1    0.0000
     10 C8         3.3020   11.7501    1.5908 C.3       1 RES1    0.0000
     11 H3         2.3162   11.6724    1.5441 H         1 RES1    0.0000
     12 H4         3.6694   11.6592    0.6756 H         1 RES1    0.0000
     13 C9         3.6940   13.0797    2.1813 C.3       1 RES1    0.0000
     14 N1         2.1805    8.8959    4.9620 N.pl3     1 RES1    0.0000
     15 N2         5.1445   13.4515    1.9340 N.pl3     1 RES1    0.0000
     16 N3         2.8480   14.1976    1.5868 N.pl3     1 RES1    0.0000
     17 N4         3.4777   13.1282    3.6858 N.pl3     1 RES1    0.0000
     18 N5         5.4868    7.9466    1.4011 N.pl3     1 RES1    0.0000
     19 N6         5.7899    5.6759    5.7386 N.pl3     1 RES1    0.0000
     20 O1         1.5128    8.3096    5.7996 O.2       1 RES1    0.0000
     21 O2         1.9204    9.9896    4.4983 O.2       1 RES1    0.0000
     22 O3         3.8403   10.7319    2.4470 O.3       1 RES1    0.0000
     23 O4         2.2577    9.3349    1.6574 O.2       1 RES1    0.0000
     24 O5         5.9283   12.5350    2.0427 O.2       1 RES1    0.0000
     25 O6         5.3971   14.6047    1.6640 O.2       1 RES1    0.0000
     26 O7         2.4684   14.0064    0.4508 O.2       1 RES1    0.0000
     27 O8         2.6440   15.1674    2.2872 O.2       1 RES1    0.0000
     28 O9         2.3754   12.7762    4.0401 O.2       1 RES1    0.0000
     29 O10        4.4070   13.5007    4.3730 O.2       1 RES1    0.0000
     30 O11        6.3360    7.1616    1.0159 O.2       1 RES1    0.0000
     31 O12        5.0247    8.8550    0.7302 O.2       1 RES1    0.0000
     32 O13        6.7660    5.1012    5.2894 O.2       1 RES1    0.0000
     33 O14        5.3600    5.5512    6.8678 O.2       1 RES1    0.0000
@<TRIPOS>BOND
     1    1    2 ar
     2    2    3 ar
     3    3    4 ar
     4    4    5 1
     5    6    4 ar
     6    7    1 ar
     7    8    7 1
     8    9    2 1
     9   10   11 1
    10   12   10 1
    11   13   10 1
    12   14    1 1
    13   15   13 1
    14   16   13 1
    15   17   13 1
    16   18    3 1
    17   19    6 1
    18   20   14 2
    19   21   14 2
    20   22    9 1
    21   23    9 2
    22   24   15 2
    23   25   15 2
    24   26   16 2
    25   27   16 2
    26   28   17 2
    27   29   17 2
    28   30   18 2
    29   31   18 2
    30   32   19 2
    31   33   19 2
    32    6    7 ar
    33   10   22 1
@<TRIPOS>SUBSTRUCTURE
     1 RES1 1

@<TRIPOS>CRYSIN
   5.8335   10.1818   25.5630  90.0000  96.5400  90.0000  14 1

