# MOL2 file generated by ConQuest
# Please check atom types

@<TRIPOS>MOLECULE
XACDAJ
    52    52     2
SMALL
USER_CHARGES
****
Generated from CSD

@<TRIPOS>ATOM
      1 C1         5.9186    5.4826    1.6283 C.2       1 RES1    0.0000
      2 C2         5.2325    4.6826    2.5719 C.2       1 RES1    0.0000
      3 C3         6.5900    6.8059    1.6795 C.3       1 RES1    0.0000
      4 H1         7.4417    6.7221    2.1577 H         1 RES1    0.0000
      5 H2         6.0134    7.4469    2.1470 H         1 RES1    0.0000
      6 H3         6.7572    7.1224    0.7680 H         1 RES1    0.0000
      7 C4         4.9073    4.9387    4.0021 C.2       1 RES1    0.0000
      8 C5         5.4351    6.2480    5.8729 C.3       1 RES1    0.0000
      9 H4         5.5154    5.4773    6.4891 H         1 RES1    0.0000
     10 H5         4.5097    6.5977    5.9193 H         1 RES1    0.0000
     11 C6         6.4307    7.3265    6.2405 C.3       1 RES1    0.0000
     12 N1         5.8563    4.8210    0.4871 N.pl3     1 RES1    1.0000
     13 N2         4.7854    3.5688    2.0457 N.2       1 RES1    0.0000
     14 N3         6.1956    8.6797    5.5616 N.pl3     1 RES1    0.0000
     15 N4         6.3956    7.6224    7.7303 N.pl3     1 RES1    0.0000
     16 N5         7.8557    6.9049    5.9086 N.pl3     1 RES1    0.0000
     17 O1         5.1565    3.5715    0.7341 O.3       1 RES1    0.0000
     18 O2         6.2126    5.0517   -0.6730 O.2       1 RES1   -1.0000
     19 O3         5.7589    5.8526    4.5247 O.3       1 RES1    0.0000
     20 O4         4.0195    4.4147    4.6033 O.2       1 RES1    0.0000
     21 O5         5.8801    8.6352    4.4013 O.2       1 RES1    0.0000
     22 O6         6.3652    9.6712    6.2419 O.2       1 RES1    0.0000
     23 O7         7.4590    7.9084    8.2624 O.2       1 RES1    0.0000
     24 O8         5.2960    7.5792    8.2363 O.2       1 RES1    0.0000
     25 O9         8.5311    7.6457    5.2290 O.2       1 RES1    0.0000
     26 O10        8.1796    5.8304    6.3714 O.2       1 RES1    0.0000
     27 C7         1.9007    2.4331    2.6548 C.2       2 RES2    0.0000
     28 C8         2.4687    1.7768    3.7734 C.2       2 RES2    0.0000
     29 C9         1.0745    3.6526    2.5040 C.3       2 RES2    0.0000
     30 H6         1.6248    4.4439    2.6775 H         2 RES2    0.0000
     31 H7         0.3327    3.6254    3.1436 H         2 RES2    0.0000
     32 H8         0.7176    3.6952    1.5915 H         2 RES2    0.0000
     33 C10        2.3586    2.1099    5.2172 C.2       2 RES2    0.0000
     34 C11        1.1680    3.3208    6.8083 C.3       2 RES2    0.0000
     35 H9         2.0144    3.7158    7.1375 H         2 RES2    0.0000
     36 H10        0.9298    2.5508    7.3840 H         2 RES2    0.0000
     37 C12        0.0656    4.3468    6.8108 C.3       2 RES2    0.0000
     38 N6         2.3342    1.7628    1.5991 N.pl3     2 RES2    1.0000
     39 N7         3.2111    0.7547    3.4441 N.2       2 RES2    0.0000
     40 N8        -1.1341    3.8847    5.9931 N.pl3     2 RES2    0.0000
     41 N9         0.4928    5.7193    6.2784 N.pl3     2 RES2    0.0000
     42 N10       -0.4328    4.5969    8.2283 N.pl3     2 RES2    0.0000
     43 O11        3.1796    0.6656    2.0857 O.3       2 RES2    0.0000
     44 O12        2.2104    1.8679    0.3805 O.2       2 RES2   -1.0000
     45 O13        1.3004    2.9085    5.4414 O.3       2 RES2    0.0000
     46 O14        3.1027    1.7256    6.0708 O.2       2 RES2    0.0000
     47 O15       -1.5783    2.8081    6.3257 O.2       2 RES2    0.0000
     48 O16       -1.5138    4.6015    5.0927 O.2       2 RES2    0.0000
     49 O17       -0.0809    6.6848    6.7329 O.2       2 RES2    0.0000
     50 O18        1.3566    5.7120    5.4367 O.2       2 RES2    0.0000
     51 O19        0.4666    4.7132    9.0435 O.2       2 RES2    0.0000
     52 O20       -1.6235    4.6906    8.4135 O.2       2 RES2    0.0000
@<TRIPOS>BOND
     1    1    2 1
     2    2    7 1
     3    3    1 1
     4    4    3 1
     5    5    3 1
     6    6    3 1
     7    7   19 1
     8    8    9 1
     9   10    8 1
    10   11    8 1
    11   12    1 2
    12   13    2 2
    13   14   11 1
    14   15   11 1
    15   16   11 1
    16   17   12 1
    17   18   12 1
    18   19    8 1
    19   20    7 2
    20   21   14 2
    21   22   14 2
    22   23   15 2
    23   24   15 2
    24   25   16 2
    25   26   16 2
    26   27   28 1
    27   28   33 1
    28   29   27 1
    29   30   29 1
    30   31   29 1
    31   32   29 1
    32   33   45 1
    33   34   35 1
    34   36   34 1
    35   37   34 1
    36   38   27 2
    37   39   28 2
    38   40   37 1
    39   41   37 1
    40   42   37 1
    41   43   38 1
    42   44   38 1
    43   45   34 1
    44   46   33 2
    45   47   40 2
    46   48   40 2
    47   49   41 2
    48   50   41 2
    49   51   42 2
    50   52   42 2
    51   13   17 1
    52   39   43 1
@<TRIPOS>SUBSTRUCTURE
     1 RES1 1
     2 RES2 27

@<TRIPOS>CRYSIN
  19.1602    6.6496   18.5136  90.0000 105.2510  90.0000  14 1

