# MOL2 file generated by ConQuest
# Please check atom types

@<TRIPOS>MOLECULE
XACNAT
   138    95     2
SMALL
NO_CHARGES
****
Generated from CSD

@<TRIPOS>ATOM
      1 O1         4.9008   -0.7339   15.0785 O.3       1 RES1    0.0000
      2 O2         6.5633    0.7798   16.6770 O.3       1 RES1    0.0000
      3 O3         4.4188    2.6422   16.1973 O.3       1 RES1    0.0000
      4 O4         2.1690    0.3914   15.2868 O.3       1 RES1    0.0000
      5 O5         0.5588   -1.0956   15.7570 O.2       1 RES1    0.0000
      6 O6        -3.2273    2.0527   10.8860 O.2       1 RES1    0.0000
      7 O7        -1.5061    3.1766   10.2911 O.2       1 RES1    0.0000
      8 N1         5.9572    0.0497   13.0888 N.am      1 RES1    0.0000
      9 N2        -2.0431    2.3050   10.9712 N.pl3     1 RES1    0.0000
     10 C1         6.1010   -0.1682   14.5420 C.3       1 RES1    0.0000
     11 H1         6.8820   -0.7630   14.7314 H         1 RES1    0.0000
     12 C2         6.2217    1.1475   15.3326 C.3       1 RES1    0.0000
     13 H2         6.8232    1.8310   14.9192 H         1 RES1    0.0000
     14 C3         4.7508    1.5428   15.3941 C.3       1 RES1    0.0000
     15 H3         4.3498    1.6177   14.4805 H         1 RES1    0.0000
     16 C4         4.3876    0.2171   16.0631 C.3       1 RES1    0.0000
     17 C5         2.9675   -0.1216   16.3803 C.3       1 RES1    0.0000
     18 H4         2.8694   -1.1154   16.4198 H         1 RES1    0.0000
     19 C6         2.5420    0.4748   17.7058 C.2       1 RES1    0.0000
     20 H5         1.6110    0.5505   17.8809 H         1 RES1    0.0000
     21 C7         3.3791    0.8937   18.6320 C.2       1 RES1    0.0000
     22 H6         3.0111    1.2072   19.4493 H         1 RES1    0.0000
     23 C8         4.8701    0.9136   18.4884 C.3       1 RES1    0.0000
     24 H7         5.2786    0.5000   19.2900 H         1 RES1    0.0000
     25 H8         5.1782    1.8532   18.4426 H         1 RES1    0.0000
     26 C9         5.3558    0.1682   17.2434 C.3       1 RES1    0.0000
     27 H9         5.5447   -0.7852   17.4785 H         1 RES1    0.0000
     28 C10        0.9757   -0.1881   15.0754 C.2       1 RES1    0.0000
     29 C11        0.2399    0.4029   13.9456 C.ar      1 RES1    0.0000
     30 C12       -1.0927    0.0657   13.7704 C.ar      1 RES1    0.0000
     31 H10       -1.4915   -0.5826   14.3385 H         1 RES1    0.0000
     32 C13       -1.8478    0.6636   12.7764 C.ar      1 RES1    0.0000
     33 H11       -2.7642    0.4419   12.6533 H         1 RES1    0.0000
     34 C14       -1.2149    1.6063   11.9637 C.ar      1 RES1    0.0000
     35 C15        0.0968    1.9235   12.0758 C.ar      1 RES1    0.0000
     36 H12        0.5022    2.5359   11.4730 H         1 RES1    0.0000
     37 C16        0.8280    1.3387   13.0825 C.ar      1 RES1    0.0000
     38 H13        1.7421    1.5711   13.1945 H         1 RES1    0.0000
     39 O8         8.2314    0.2110   12.9988 O.2       1 RES1    0.0000
     40 O9         5.8235    0.9327    9.1945 O.2       1 RES1    0.0000
     41 O10        8.5488   -0.9472    9.8115 O.3       1 RES1    0.0000
     42 N3         7.0347    0.3807   11.0343 N.am      1 RES1    0.0000
     43 C17        7.1519    0.2110   12.4245 C.2       1 RES1    0.0000
     44 C18        5.8246    0.6116   10.3716 C.2       1 RES1    0.0000
     45 C19        4.6104    0.3593   11.1527 C.2       1 RES1    0.0000
     46 C20        4.7423    0.0535   12.4371 C.2       1 RES1    0.0000
     47 H14        3.9632   -0.1758   12.9326 H         1 RES1    0.0000
     48 C21        3.3057    0.4511   10.4332 C.3       1 RES1    0.0000
     49 H15        2.5848    0.1399   11.0201 H         1 RES1    0.0000
     50 H16        3.3345   -0.1055    9.6284 H         1 RES1    0.0000
     51 H17        3.1399    1.3838   10.1807 H         1 RES1    0.0000
     52 C22        4.8239    3.9143   15.6213 C.3       1 RES1    0.0000
     53 H18        5.8118    3.9396   15.5440 H         1 RES1    0.0000
     54 H19        4.5470    4.6506   16.2225 H         1 RES1    0.0000
     55 C23        4.2165    4.1284   14.2612 C.ar      1 RES1    0.0000
     56 C24        4.9985    4.0061   13.1219 C.ar      1 RES1    0.0000
     57 H20        5.9242    3.8058   13.2040 H         1 RES1    0.0000
     58 C25        4.4329    4.1666   11.8454 C.ar      1 RES1    0.0000
     59 C26        5.2055    4.0061   10.6982 C.ar      1 RES1    0.0000
     60 H21        6.1403    3.8501   10.7693 H         1 RES1    0.0000
     61 C27        4.6005    4.0825    9.4438 C.ar      1 RES1    0.0000
     62 H22        5.1167    3.9258    8.6612 H         1 RES1    0.0000
     63 C28        3.2439    4.3883    9.3239 C.ar      1 RES1    0.0000
     64 H23        2.8523    4.4694    8.4639 H         1 RES1    0.0000
     65 C29        2.4661    4.5642   10.4568 C.ar      1 RES1    0.0000
     66 H24        1.5398    4.7637   10.3795 H         1 RES1    0.0000
     67 C30        3.0678    4.4495   11.7255 C.ar      1 RES1    0.0000
     68 C31        2.2903    4.6330   12.8773 C.ar      1 RES1    0.0000
     69 H25        1.3774    4.8845   12.7984 H         1 RES1    0.0000
     70 C32        2.8536    4.4419   14.1397 C.ar      1 RES1    0.0000
     71 H26        2.3145    4.5260   14.9160 H         1 RES1    0.0000
     72 C33        8.2777    0.3670   10.2359 C.3       1 RES1    0.0000
     73 H27        8.1755    0.9610    9.4485 H         1 RES1    0.0000
     74 H28        9.0316    0.7079   10.7819 H         1 RES1    0.0000
     75 C34        7.7647   -1.3685    8.6848 C.3       1 RES1    0.0000
     76 H29        7.8036   -0.6705    7.9842 H         1 RES1    0.0000
     77 H30        6.8190   -1.4610    8.9657 H         1 RES1    0.0000
     78 C35        8.2287   -2.6598    8.1105 C.ar      1 RES1    0.0000
     79 C36        7.5108   -3.1743    7.0375 C.ar      1 RES1    0.0000
     80 H31        6.7509   -2.7095    6.7077 H         1 RES1    0.0000
     81 C37        7.9050   -4.3685    6.4474 C.ar      1 RES1    0.0000
     82 H32        7.4144   -4.7201    5.7136 H         1 RES1    0.0000
     83 C38        9.0179   -5.0489    6.9286 C.ar      1 RES1    0.0000
     84 H33        9.2871   -5.8646    6.5247 H         1 RES1    0.0000
     85 C39        9.7358   -4.5344    8.0016 C.ar      1 RES1    0.0000
     86 H34       10.4957   -4.9992    8.3314 H         1 RES1    0.0000
     87 C40        9.3409   -3.3394    8.5933 C.ar      1 RES1    0.0000
     88 H35        9.8315   -2.9877    9.3270 H         1 RES1    0.0000
     89 O11        8.1307    0.6575   12.9136 Du        2 SUP2    0.0000
     90 O12        5.4225    1.1697    9.2513 Du        2 SUP2    0.0000
     91 O13        8.2371    0.2523    9.2545 Du        2 SUP2    0.0000
     92 N4         6.8054    0.8716   11.0391 Du        2 SUP2    0.0000
     93 C41        7.0355    0.5352   12.3787 Du        2 SUP2    0.0000
     94 C42        5.5359    0.8639   10.4379 Du        2 SUP2    0.0000
     95 C43        4.4207    0.5352   11.3278 Du        2 SUP2    0.0000
     96 C44        4.6801    0.0765   12.5444 Du        2 SUP2    0.0000
     97 H36        3.9575   -0.2454   13.0698 Du        2 SUP2    0.0000
     98 C45        3.0407    0.5046   10.7456 Du        2 SUP2    0.0000
     99 H37        2.4230    0.1047   11.3957 Du        2 SUP2    0.0000
    100 H38        3.0423   -0.0283    9.9251 Du        2 SUP2    0.0000
    101 H39        2.7522    1.4189   10.5436 Du        2 SUP2    0.0000
    102 C46        4.7859    3.9151   15.5945 Du        2 SUP2    0.0000
    103 H40        5.7716    3.9671   15.5188 Du        2 SUP2    0.0000
    104 H41        4.4860    4.6536   16.1831 Du        2 SUP2    0.0000
    105 C47        4.1735    4.0855   14.2328 Du        2 SUP2    0.0000
    106 C48        4.9882    4.0802   13.0998 Du        2 SUP2    0.0000
    107 H42        5.9262    3.9679   13.1961 Du        2 SUP2    0.0000
    108 C49        4.4354    4.2370   11.8233 Du        2 SUP2    0.0000
    109 C50        5.2637    4.2301   10.6951 Du        2 SUP2    0.0000
    110 H43        6.2002    4.1185   10.7882 Du        2 SUP2    0.0000
    111 C51        4.6911    4.3883    9.4312 Du        2 SUP2    0.0000
    112 H44        5.2473    4.3845    8.6612 Du        2 SUP2    0.0000
    113 C52        3.3065    4.5535    9.2844 Du        2 SUP2    0.0000
    114 H45        2.9360    4.6597    8.4182 Du        2 SUP2    0.0000
    115 C53        2.4859    4.5611   10.4079 Du        2 SUP2    0.0000
    116 H46        1.5480    4.6727   10.3117 Du        2 SUP2    0.0000
    117 C54        3.0543    4.4021   11.6781 Du        2 SUP2    0.0000
    118 C55        2.2404    4.4075   12.8158 Du        2 SUP2    0.0000
    119 H47        1.3017    4.5191   12.7211 Du        2 SUP2    0.0000
    120 C56        2.7917    4.2500   14.0892 Du        2 SUP2    0.0000
    121 H48        2.2305    4.2553   14.8545 Du        2 SUP2    0.0000
    122 C57        7.9512    1.2538   10.1965 Du        2 SUP2    0.0000
    123 H49        7.7502    2.1009    9.7278 Du        2 SUP2    0.0000
    124 H50        8.7474    1.4014   10.7693 Du        2 SUP2    0.0000
    125 C58        8.7489   -0.9556    9.7988 Du        2 SUP2    0.0000
    126 H51        8.2696   -1.1514   10.6336 Du        2 SUP2    0.0000
    127 H52        9.7046   -0.8012   10.0339 Du        2 SUP2    0.0000
    128 C59        8.6901   -2.1559    8.9310 Du        2 SUP2    0.0000
    129 C60        7.5862   -2.3777    8.1152 Du        2 SUP2    0.0000
    130 H53        6.8739   -1.7469    8.1010 Du        2 SUP2    0.0000
    131 C61        7.5222   -3.5168    7.3215 Du        2 SUP2    0.0000
    132 H54        6.7660   -3.6643    6.7645 Du        2 SUP2    0.0000
    133 C62        8.5670   -4.4342    7.3420 Du        2 SUP2    0.0000
    134 H55        8.5189   -5.2148    6.7992 Du        2 SUP2    0.0000
    135 C63        9.6609   -4.2202    8.1578 Du        2 SUP2    0.0000
    136 H56       10.3796   -4.8478    8.1704 Du        2 SUP2    0.0000
    137 C64        9.7306   -3.0810    8.9515 Du        2 SUP2    0.0000
    138 H57       10.4868   -2.9304    9.5085 Du        2 SUP2    0.0000
@<TRIPOS>BOND
     1    1   10 1
     2    2   12 1
     3    3   14 1
     4    4   17 1
     5    5   28 2
     6    6    9 2
     7    7    9 2
     8    8   10 1
     9    9   34 1
    10   10   11 1
    11   12   10 1
    12   13   12 1
    13   14   12 1
    14   15   14 1
    15   16    1 1
    16   17   16 1
    17   18   17 1
    18   19   17 1
    19   20   19 1
    20   21   19 2
    21   22   21 1
    22   23   21 1
    23   24   23 1
    24   25   23 1
    25   26    2 1
    26   27   26 1
    27   28    4 1
    28   29   28 1
    29   30   29 ar
    30   31   30 1
    31   32   30 ar
    32   33   32 1
    33   34   32 ar
    34   35   34 ar
    35   36   35 1
    36   37   29 ar
    37   38   37 1
    38   39   43 2
    39   40   44 2
    40   41   72 1
    41   42   43 1
    42   43    8 1
    43   44   42 1
    44   45   44 1
    45   46    8 1
    46   47   46 1
    47   48   45 1
    48   49   48 1
    49   50   48 1
    50   51   48 1
    51   52    3 1
    52   53   52 1
    53   54   52 1
    54   55   52 1
    55   56   55 ar
    56   57   56 1
    57   58   56 ar
    58   59   58 ar
    59   60   59 1
    60   61   59 ar
    61   62   61 1
    62   63   61 ar
    63   64   63 1
    64   65   63 ar
    65   66   65 1
    66   67   58 ar
    67   68   67 ar
    68   69   68 1
    69   70   55 ar
    70   71   70 1
    71   72   42 1
    72   73   72 1
    73   74   72 1
    74   75   41 1
    75   76   75 1
    76   77   75 1
    77   78   75 1
    78   79   78 ar
    79   80   79 1
    80   81   79 ar
    81   82   81 1
    82   83   81 ar
    83   84   83 1
    84   85   83 ar
    85   86   85 1
    86   87   78 ar
    87   88   87 1
    88   14   16 1
    89   16   26 1
    90   23   26 1
    91   35   37 ar
    92   45   46 2
    93   65   67 ar
    94   68   70 ar
    95   85   87 ar
@<TRIPOS>SUBSTRUCTURE
     1 RES1 1
     2 SUP2 89

@<TRIPOS>CRYSIN
  14.2003    7.6452   17.2049  90.0000 113.4900  90.0000   4 1

