# MOL2 file generated by ConQuest
# Please check atom types

@<TRIPOS>MOLECULE
XACZIN
    28    29     1
SMALL
NO_CHARGES
****
Generated from CSD

@<TRIPOS>ATOM
      1 O1         4.8019    1.2299    0.9272 O.2       1 RES1    0.0000
      2 O2         6.0408    3.7861    2.0061 O.2       1 RES1    0.0000
      3 O3         7.1559    3.5759    6.7116 O.2       1 RES1    0.0000
      4 O4         4.6181   -0.7776    0.0875 O.2       1 RES1    0.0000
      5 N1         2.8588    0.1786    0.9902 N.3       1 RES1    0.0000
      6 O5         3.8822    3.9420    1.7523 O.2       1 RES1    0.0000
      7 N2         4.1571    0.2015    0.6465 N.pl3     1 RES1    0.0000
      8 N3         4.8866    3.5564    2.3423 N.pl3     1 RES1    0.0000
      9 O6         6.2990    1.9851    7.8821 O.2       1 RES1    0.0000
     10 N4         1.8129    0.5868    3.8362 N.2       1 RES1    0.0000
     11 N5         2.2860    0.5810    5.0377 N.2       1 RES1    0.0000
     12 N6         2.5695    1.4087    3.0425 N.3       1 RES1    0.0000
     13 N7         6.3376    2.6879    6.8912 N.pl3     1 RES1    0.0000
     14 C1         2.2935    1.3509    1.6013 C.3       1 RES1    0.0000
     15 H1         1.3144    1.3537    1.4560 H         1 RES1    0.0000
     16 H2         2.6680    2.1572    1.1664 H         1 RES1    0.0000
     17 C2         3.5849    1.9353    3.7828 C.ar      1 RES1    0.0000
     18 C3         4.2798    1.6136    6.1232 C.ar      1 RES1    0.0000
     19 H3         4.1444    1.2353    6.9841 H         1 RES1    0.0000
     20 C4         5.3470    2.4201    5.8415 C.ar      1 RES1    0.0000
     21 C5         4.6820    2.7967    3.5742 C.ar      1 RES1    0.0000
     22 C6         3.4028    1.3841    5.0634 C.ar      1 RES1    0.0000
     23 C7         5.5608    3.0247    4.5925 C.ar      1 RES1    0.0000
     24 H4         6.3134    3.5883    4.4562 H         1 RES1    0.0000
     25 C8         2.1431   -1.0776    0.8251 C.3       1 RES1    0.0000
     26 H5         2.1264   -1.3213   -0.1232 H         1 RES1    0.0000
     27 H6         1.2251   -0.9754    1.1520 H         1 RES1    0.0000
     28 H7         2.5966   -1.7808    1.3348 H         1 RES1    0.0000
@<TRIPOS>BOND
     1    1    7 2
     2    2    8 2
     3    3   13 2
     4    4    7 2
     5    5    7 1
     6    6    8 2
     7    8   21 1
     8    9   13 2
     9   10   11 2
    10   11   22 1
    11   12   10 1
    12   13   20 1
    13   14    5 1
    14   15   14 1
    15   16   14 1
    16   17   12 1
    17   18   19 1
    18   20   18 ar
    19   21   17 ar
    20   22   17 ar
    21   23   20 ar
    22   24   23 1
    23   25    5 1
    24   26   25 1
    25   27   25 1
    26   28   25 1
    27   12   14 1
    28   18   22 ar
    29   21   23 ar
@<TRIPOS>SUBSTRUCTURE
     1 RES1 1

@<TRIPOS>CRYSIN
   5.7625    9.5536   20.5353  90.0000  90.0000  90.0000  19 1

