# MOL2 file generated by ConQuest
# Please check atom types

@<TRIPOS>MOLECULE
XADPEA
    22    21     1
SMALL
NO_CHARGES
****
Generated from CSD

@<TRIPOS>ATOM
      1 O1         1.9183   -1.8268    0.5573 O.2       1 RES1    0.0000
      2 O2         1.2150    0.5157    1.5224 O.3       1 RES1    0.0000
      3 O3         3.4243    0.8945    2.0002 O.3       1 RES1    0.0000
      4 N1         2.4126   -0.0820    1.9345 N.am      1 RES1    0.0000
      5 N2         4.0925   -1.3909    0.9960 N.am      1 RES1    0.0000
      6 H1         4.3231   -2.0560    0.6066 H         1 RES1    0.0000
      7 H2         4.6960   -0.8538    1.3262 H         1 RES1    0.0000
      8 C1         2.8092   -1.1662    1.0595 C.2       1 RES1    0.0000
      9 C2         1.2980    1.1223    0.2441 C.3       1 RES1    0.0000
     10 H3         1.5680    0.4674   -0.4049 H         1 RES1    0.0000
     11 H4         1.9430    1.8335    0.2681 H         1 RES1    0.0000
     12 H5         0.4397    1.4774    0.0014 H         1 RES1    0.0000
     13 C3         3.4879    1.4302    3.3394 C.3       1 RES1    0.0000
     14 H6         2.5870    1.6571    3.6512 H         1 RES1    0.0000
     15 C4         4.1098    0.4404    4.2606 C.3       1 RES1    0.0000
     16 H7         3.5919   -0.3674    4.2592 H         1 RES1    0.0000
     17 H8         4.1345    0.8033    5.1494 H         1 RES1    0.0000
     18 H9         5.0038    0.2494    3.9686 H         1 RES1    0.0000
     19 C5         4.3178    2.6828    3.2110 C.3       1 RES1    0.0000
     20 H10        5.1861    2.4570    2.8696 H         1 RES1    0.0000
     21 H11        4.4092    3.0952    4.0730 H         1 RES1    0.0000
     22 H12        3.8855    3.2929    2.6086 H         1 RES1    0.0000
@<TRIPOS>BOND
     1    1    8 2
     2    2    4 1
     3    3    4 1
     4    4    8 1
     5    5    6 1
     6    7    5 1
     7    8    5 1
     8    9    2 1
     9   10    9 1
    10   11    9 1
    11   12    9 1
    12   13    3 1
    13   14   13 1
    14   15   13 1
    15   16   15 1
    16   17   15 1
    17   18   15 1
    18   19   13 1
    19   20   19 1
    20   21   19 1
    21   22   19 1
@<TRIPOS>SUBSTRUCTURE
     1 RES1 1

@<TRIPOS>CRYSIN
   5.2528   11.2347   14.1080  90.0000  90.0000  90.0000  19 1

