# MOL2 file generated by ConQuest
# Please check atom types

@<TRIPOS>MOLECULE
XAGPAX
   124   132     4
SMALL
NO_CHARGES
****
Generated from CSD

@<TRIPOS>ATOM
      1 O1        -5.0099    0.4179    3.7897 O.3       1 RES1    0.0000
      2 C1        -5.8588    0.8176    2.7173 C.3       1 RES1    0.0000
      3 C2        -5.7100   -0.2720    1.6967 C.3       1 RES1    0.0000
      4 C3        -5.0721   -1.4012    2.3763 C.3       1 RES1    0.0000
      5 C4        -4.8554   -0.9969    3.7960 C.3       1 RES1    0.0000
      6 O2        -5.4335    2.0379    2.2039 O.3       1 RES1    0.0000
      7 C5        -5.7188    3.1336    3.0575 C.3       1 RES1    0.0000
      8 N1        -4.3131   -0.6140    1.4412 N.am      1 RES1    0.0000
      9 C6        -3.8856   -1.1139    0.2287 C.2       1 RES1    0.0000
     10 O3        -3.4972   -2.2720    0.1077 O.2       1 RES1    0.0000
     11 C7        -3.7745   -0.1383   -0.8866 C.ar      1 RES1    0.0000
     12 C8        -4.2560    1.1641   -0.7980 C.ar      1 RES1    0.0000
     13 C9        -4.1407    2.0303   -1.8513 C.ar      1 RES1    0.0000
     14 C10       -3.5171    1.6474   -2.9909 C.ar      1 RES1    0.0000
     15 C11       -3.0117    0.3602   -3.1029 C.ar      1 RES1    0.0000
     16 C12       -3.1272   -0.5243   -2.0537 C.ar      1 RES1    0.0000
     17 N2        -3.3484    2.5409   -4.1098 N.pl3     1 RES1    0.0000
     18 O4        -2.6641    2.1777   -5.0591 O.2       1 RES1    0.0000
     19 O5        -3.8935    3.6412   -4.0545 O.2       1 RES1    0.0000
     20 H1        -6.8179    0.9209    2.9819 H         1 RES1    0.0000
     21 H2        -6.4991   -0.1094    1.1037 H         1 RES1    0.0000
     22 H3        -5.2084   -2.3859    2.4844 H         1 RES1    0.0000
     23 H4        -5.5435   -1.4194    4.3865 H         1 RES1    0.0000
     24 H5        -3.9423   -1.2568    4.1102 H         1 RES1    0.0000
     25 H6        -5.3880    3.9801    2.6396 H         1 RES1    0.0000
     26 H7        -6.7062    3.1974    3.2024 H         1 RES1    0.0000
     27 H8        -5.2601    2.9938    3.9353 H         1 RES1    0.0000
     28 H9        -4.6910    1.4741    0.0475 H         1 RES1    0.0000
     29 H10       -4.5155    2.9558   -1.7807 H         1 RES1    0.0000
     30 H11       -2.5460    0.0745   -3.9407 H         1 RES1    0.0000
     31 H12       -2.7569   -1.4498   -2.1314 H         1 RES1    0.0000
     32 O6        -6.2164   -3.9543   -3.6266 O.3       2 RES2    0.0000
     33 C13       -5.7242   -3.2582   -2.4920 C.3       2 RES2    0.0000
     34 C14       -5.5468   -4.3068   -1.4370 C.3       2 RES2    0.0000
     35 C15       -5.6550   -5.6214   -2.0831 C.3       2 RES2    0.0000
     36 C16       -5.8674   -5.3296   -3.5419 C.3       2 RES2    0.0000
     37 O7        -6.6393   -2.3069   -2.0913 O.3       2 RES2    0.0000
     38 C17       -6.8102   -1.2522   -3.0365 C.3       2 RES2    0.0000
     39 N3        -6.7556   -5.1335   -1.2654 N.am      2 RES2    0.0000
     40 C18       -7.1278   -5.7050   -0.0689 C.2       2 RES2    0.0000
     41 O8        -7.1711   -6.9070    0.1195 O.2       2 RES2    0.0000
     42 C19       -7.5853   -4.7020    0.9718 C.ar      2 RES2    0.0000
     43 C20       -7.9888   -3.4132    0.6434 C.ar      2 RES2    0.0000
     44 C21       -8.3975   -2.5409    1.6361 C.ar      2 RES2    0.0000
     45 C22       -8.3959   -2.9741    2.9344 C.ar      2 RES2    0.0000
     46 C23       -7.9964   -4.2567    3.2874 C.ar      2 RES2    0.0000
     47 C24       -7.6081   -5.1092    2.3036 C.ar      2 RES2    0.0000
     48 N4        -8.8129   -2.0166    3.9964 N.pl3     2 RES2    0.0000
     49 O9        -8.9972   -0.8723    3.6875 O.2       2 RES2    0.0000
     50 O10       -8.9712   -2.4528    5.1175 O.2       2 RES2    0.0000
     51 H13       -4.8654   -2.7795   -2.6755 H         2 RES2    0.0000
     52 H14       -4.9308   -3.8403   -0.8024 H         2 RES2    0.0000
     53 H15       -5.1564   -6.4861   -2.1079 H         2 RES2    0.0000
     54 H16       -6.6030   -5.9010   -3.9073 H         2 RES2    0.0000
     55 H17       -5.0251   -5.5044   -4.0529 H         2 RES2    0.0000
     56 H18       -7.4851   -0.6003   -2.6879 H         2 RES2    0.0000
     57 H19       -7.1232   -1.6200   -3.9122 H         2 RES2    0.0000
     58 H20       -5.9340   -0.7872   -3.1646 H         2 RES2    0.0000
     59 H21       -7.9869   -3.1154   -0.3114 H         2 RES2    0.0000
     60 H22       -8.6887   -1.6124    1.4059 H         2 RES2    0.0000
     61 H23       -8.0144   -4.5545    4.2419 H         2 RES2    0.0000
     62 H24       -7.3197   -6.0362    2.5432 H         2 RES2    0.0000
     63 O11       -1.1281   -8.1517   -6.5967 O.3       3 RES3    0.0000
     64 C25       -0.6066   -8.8158   -7.7181 C.3       3 RES3    0.0000
     65 C26       -0.3363   -7.7733   -8.7571 C.3       3 RES3    0.0000
     66 C27       -0.4325   -6.4724   -8.0956 C.3       3 RES3    0.0000
     67 C28       -0.7174   -6.7794   -6.6400 C.3       3 RES3    0.0000
     68 O12       -1.5269   -9.7504   -8.1715 O.3       3 RES3    0.0000
     69 C29       -1.7826  -10.8187   -7.2847 C.3       3 RES3    0.0000
     70 N5        -1.5077   -6.9253   -8.9581 N.am      3 RES3    0.0000
     71 C30       -1.8042   -6.3250  -10.1649 C.2       3 RES3    0.0000
     72 O13       -1.8209   -5.1138  -10.3382 O.2       3 RES3    0.0000
     73 C31       -2.2145   -7.2763  -11.2529 C.ar      3 RES3    0.0000
     74 C32       -2.7037   -8.5286  -10.9765 C.ar      3 RES3    0.0000
     75 C33       -3.0397   -9.4039  -12.0124 C.ar      3 RES3    0.0000
     76 C34       -2.8739   -8.9632  -13.2967 C.ar      3 RES3    0.0000
     77 C35       -2.4101   -7.7079  -13.5979 C.ar      3 RES3    0.0000
     78 C36       -2.0821   -6.8766  -12.5660 C.ar      3 RES3    0.0000
     79 N6        -3.1941   -9.8887  -14.4057 N.pl3     3 RES3    0.0000
     80 O14       -3.5937  -10.9981  -14.1411 O.2       3 RES3    0.0000
     81 O15       -2.9930   -9.5224  -15.5418 O.2       3 RES3    0.0000
     82 H25        0.2274   -9.3188   -7.4902 H         3 RES3    0.0000
     83 H26        0.2954   -8.2474   -9.3705 H         3 RES3    0.0000
     84 H27        0.0898   -5.6214   -8.0425 H         3 RES3    0.0000
     85 H28        0.1103   -6.6517   -6.0936 H         3 RES3    0.0000
     86 H29       -1.4416   -6.1837   -6.2931 H         3 RES3    0.0000
     87 H30       -2.4568  -11.4373   -7.6878 H         3 RES3    0.0000
     88 H31       -0.9359  -11.3187   -7.1062 H         3 RES3    0.0000
     89 H32       -2.1405  -10.4510   -6.4258 H         3 RES3    0.0000
     90 H33       -2.8046   -8.8264  -10.0269 H         3 RES3    0.0000
     91 H34       -3.4086  -10.3112  -11.8165 H         3 RES3    0.0000
     92 H35       -2.2987   -7.4253  -14.5506 H         3 RES3    0.0000
     93 H36       -1.7460   -5.9572  -12.7709 H         3 RES3    0.0000
     94 O16        0.3138  -12.4372  -14.3074 O.3       4 RES4    0.0000
     95 C37       -0.5447  -12.8202  -13.2495 C.3       4 RES4    0.0000
     96 C38       -0.4053  -11.7230  -12.2231 C.3       4 RES4    0.0000
     97 C39        0.2970  -10.6045  -12.8625 C.3       4 RES4    0.0000
     98 C40        0.5186  -11.0102  -14.2837 C.3       4 RES4    0.0000
     99 O17       -0.1583  -14.0496  -12.7440 O.3       4 RES4    0.0000
    100 C41       -0.3938  -15.1529  -13.6390 C.3       4 RES4    0.0000
    101 N7         1.0063  -11.4494  -11.9152 N.am      4 RES4    0.0000
    102 C42        1.4122  -10.9525  -10.6762 C.2       4 RES4    0.0000
    103 O18        1.7969   -9.8081  -10.5284 O.2       4 RES4    0.0000
    104 C43        1.4245  -11.9479   -9.5713 C.ar      4 RES4    0.0000
    105 C44        0.9690  -13.2548   -9.7273 C.ar      4 RES4    0.0000
    106 C45        0.9729  -14.1484   -8.6639 C.ar      4 RES4    0.0000
    107 C46        1.4631  -13.6834   -7.4484 C.ar      4 RES4    0.0000
    108 C47        1.9437  -12.3977   -7.2658 C.ar      4 RES4    0.0000
    109 C48        1.9274  -11.5604   -8.3350 C.ar      4 RES4    0.0000
    110 N8         1.4701  -14.6286   -6.3204 N.pl3     4 RES4    0.0000
    111 O19        0.9927  -15.7304   -6.4806 O.2       4 RES4    0.0000
    112 O20        1.8912  -14.2183   -5.2559 O.2       4 RES4    0.0000
    113 H37       -1.5007  -12.9023  -13.5313 H         4 RES4    0.0000
    114 H38       -1.2282  -11.8628  -11.6716 H         4 RES4    0.0000
    115 H39        0.2080   -9.6136  -12.9500 H         4 RES4    0.0000
    116 H40       -0.1311  -10.5528  -14.8908 H         4 RES4    0.0000
    117 H41        1.4520  -10.7944  -14.5706 H         4 RES4    0.0000
    118 H42       -0.0909  -16.0009  -13.2043 H         4 RES4    0.0000
    119 H43        0.1121  -15.0162  -14.4895 H         4 RES4    0.0000
    120 H44       -1.3722  -15.2122  -13.8385 H         4 RES4    0.0000
    121 H45        0.6197  -13.5542  -10.6151 H         4 RES4    0.0000
    122 H46        0.6572  -15.0906   -8.7781 H         4 RES4    0.0000
    123 H47        2.2939  -12.0968   -6.3792 H         4 RES4    0.0000
    124 H48        2.2887  -10.6333   -8.2269 H         4 RES4    0.0000
@<TRIPOS>BOND
     1    1    2 1
     2    2    3 1
     3    3    4 1
     4    4    5 1
     5    5    1 1
     6    6    2 1
     7    7    6 1
     8    8    3 1
     9    9    8 1
    10   10    9 2
    11   11    9 1
    12   12   11 ar
    13   13   12 ar
    14   14   13 ar
    15   15   14 ar
    16   16   11 ar
    17   17   14 1
    18   18   17 2
    19   19   17 2
    20   20    2 1
    21   21    3 1
    22   22    4 1
    23   23    5 1
    24   24    5 1
    25   25    7 1
    26   26    7 1
    27   27    7 1
    28   28   12 1
    29   29   13 1
    30   30   15 1
    31   31   16 1
    32   32   33 1
    33   33   34 1
    34   34   35 1
    35   35   36 1
    36   36   32 1
    37   37   33 1
    38   38   37 1
    39   39   34 1
    40   40   39 1
    41   41   40 2
    42   42   40 1
    43   43   42 ar
    44   44   43 ar
    45   45   44 ar
    46   46   45 ar
    47   47   42 ar
    48   48   45 1
    49   49   48 2
    50   50   48 2
    51   51   33 1
    52   52   34 1
    53   53   35 1
    54   54   36 1
    55   55   36 1
    56   56   38 1
    57   57   38 1
    58   58   38 1
    59   59   43 1
    60   60   44 1
    61   61   46 1
    62   62   47 1
    63   63   64 1
    64   64   65 1
    65   65   66 1
    66   66   67 1
    67   67   63 1
    68   68   64 1
    69   69   68 1
    70   70   65 1
    71   71   70 1
    72   72   71 2
    73   73   71 1
    74   74   73 ar
    75   75   74 ar
    76   76   75 ar
    77   77   76 ar
    78   78   73 ar
    79   79   76 1
    80   80   79 2
    81   81   79 2
    82   82   64 1
    83   83   65 1
    84   84   66 1
    85   85   67 1
    86   86   67 1
    87   87   69 1
    88   88   69 1
    89   89   69 1
    90   90   74 1
    91   91   75 1
    92   92   77 1
    93   93   78 1
    94   94   95 1
    95   95   96 1
    96   96   97 1
    97   97   98 1
    98   98   94 1
    99   99   95 1
   100  100   99 1
   101  101   96 1
   102  102  101 1
   103  103  102 2
   104  104  102 1
   105  105  104 ar
   106  106  105 ar
   107  107  106 ar
   108  108  107 ar
   109  109  104 ar
   110  110  107 1
   111  111  110 2
   112  112  110 2
   113  113   95 1
   114  114   96 1
   115  115   97 1
   116  116   98 1
   117  117   98 1
   118  118  100 1
   119  119  100 1
   120  120  100 1
   121  121  105 1
   122  122  106 1
   123  123  108 1
   124  124  109 1
   125    4    8 1
   126   15   16 ar
   127   35   39 1
   128   46   47 ar
   129   66   70 1
   130   77   78 ar
   131   97  101 1
   132  108  109 ar
@<TRIPOS>SUBSTRUCTURE
     1 RES1 1
     2 RES2 32
     3 RES3 63
     4 RES4 94

@<TRIPOS>CRYSIN
   7.7280   15.1970   21.1800  90.0000  97.4900  90.0000   4 1

