# MOL2 file generated by ConQuest
# Please check atom types

@<TRIPOS>MOLECULE
XAGWOR
    42    44     1
SMALL
NO_CHARGES
****
Generated from CSD

@<TRIPOS>ATOM
      1 O1         7.0172    2.2969    7.5271 O.3       1 RES1    0.0000
      2 O2         2.7220    4.6217   -3.1686 O.2       1 RES1    0.0000
      3 O3         2.9165    2.4836   -3.1445 O.2       1 RES1    0.0000
      4 N1         4.7082    2.1521    7.1417 N.3       1 RES1    0.0000
      5 N2         2.8377    3.5573   -2.5741 N.pl3     1 RES1    0.0000
      6 C1         5.9578    2.7404    6.6907 C.3       1 RES1    0.0000
      7 H1         6.1345    2.4404    5.7744 H         1 RES1    0.0000
      8 C2         6.0167    4.2599    6.7271 C.3       1 RES1    0.0000
      9 H2         6.8398    4.5529    6.3070 H         1 RES1    0.0000
     10 H3         6.0351    4.5517    7.6516 H         1 RES1    0.0000
     11 C3         4.8388    4.9205    6.0221 C.3       1 RES1    0.0000
     12 H4         4.9289    4.7641    5.0699 H         1 RES1    0.0000
     13 H5         4.8977    5.8775    6.1667 H         1 RES1    0.0000
     14 C4         3.4352    4.4525    6.4578 C.3       1 RES1    0.0000
     15 H6         2.8150    5.1913    6.2804 H         1 RES1    0.0000
     16 C5         2.9087    3.2294    5.7083 C.3       1 RES1    0.0000
     17 H7         1.9869    3.0776    6.0048 H         1 RES1    0.0000
     18 C6         3.7353    1.9596    6.0850 C.3       1 RES1    0.0000
     19 H8         3.1194    1.2605    6.3568 H         1 RES1    0.0000
     20 H9         4.1994    1.6479    5.2923 H         1 RES1    0.0000
     21 C7         4.0774    2.8034    8.3014 C.3       1 RES1    0.0000
     22 H10        4.7572    2.9726    8.9727 H         1 RES1    0.0000
     23 H11        3.4281    2.1941    8.6868 H         1 RES1    0.0000
     24 C8         3.3628    4.1467    7.9614 C.3       1 RES1    0.0000
     25 H12        2.4339    4.0954    8.2351 H         1 RES1    0.0000
     26 H13        3.7815    4.8680    8.4568 H         1 RES1    0.0000
     27 C9         7.2840    0.9115    7.3522 C.3       1 RES1    0.0000
     28 H14        8.0029    0.6489    7.9325 H         1 RES1    0.0000
     29 H15        7.5317    0.7458    6.4404 H         1 RES1    0.0000
     30 H16        6.4978    0.4050    7.5682 H         1 RES1    0.0000
     31 C10        2.8753    3.4254    4.2448 C.1       1 RES1    0.0000
     32 C11        2.8718    3.5456    3.0766 C.1       1 RES1    0.0000
     33 C12        2.8718    3.5760    1.6405 C.ar      1 RES1    0.0000
     34 C13        2.8370    4.7723    0.9272 C.ar      1 RES1    0.0000
     35 H17        2.8242    5.5787    1.3899 H         1 RES1    0.0000
     36 C14        2.8221    4.7863   -0.4395 C.ar      1 RES1    0.0000
     37 H18        2.7944    5.5892   -0.9079 H         1 RES1    0.0000
     38 C15        2.8490    3.5772   -1.1111 C.ar      1 RES1    0.0000
     39 C16        2.8824    2.3821   -0.4472 C.ar      1 RES1    0.0000
     40 H19        2.8987    1.5791   -0.9157 H         1 RES1    0.0000
     41 C17        2.8909    2.3867    0.9118 C.ar      1 RES1    0.0000
     42 H20        2.9108    1.5756    1.3667 H         1 RES1    0.0000
@<TRIPOS>BOND
     1    1    6 1
     2    2    5 2
     3    3    5 2
     4    4    6 1
     5    5   38 1
     6    6    7 1
     7    8    6 1
     8    9    8 1
     9   10    8 1
    10   11    8 1
    11   12   11 1
    12   13   11 1
    13   14   11 1
    14   15   14 1
    15   16   14 1
    16   17   16 1
    17   18    4 1
    18   19   18 1
    19   20   18 1
    20   21    4 1
    21   22   21 1
    22   23   21 1
    23   24   14 1
    24   25   24 1
    25   26   24 1
    26   27    1 1
    27   28   27 1
    28   29   27 1
    29   30   27 1
    30   31   16 1
    31   32   31 3
    32   33   32 1
    33   34   33 ar
    34   35   34 1
    35   36   34 ar
    36   37   36 1
    37   38   36 ar
    38   39   38 ar
    39   40   39 1
    40   41   33 ar
    41   42   41 1
    42   16   18 1
    43   21   24 1
    44   39   41 ar
@<TRIPOS>SUBSTRUCTURE
     1 RES1 1

@<TRIPOS>CRYSIN
   7.0960   11.6710   19.2770  90.0000  90.0000  90.0000  19 1

