# MOL2 file generated by ConQuest
# Please check atom types

@<TRIPOS>MOLECULE
XAHBEN
    50    51     1
SMALL
NO_CHARGES
****
Generated from CSD

@<TRIPOS>ATOM
      1 O1        -0.2605   -3.7114    1.9437 O.2       1 RES1    0.0000
      2 O2        -0.8645   -2.1986    0.5390 O.2       1 RES1    0.0000
      3 O3         2.8809    0.9727    5.7703 O.3       1 RES1    0.0000
      4 O4         2.0578    2.6289    4.5408 O.2       1 RES1    0.0000
      5 N1        -0.3105   -2.5553    1.5662 N.pl3     1 RES1    0.0000
      6 C1         0.3624   -1.5289    2.3956 C.ar      1 RES1    0.0000
      7 C2         0.2039   -0.2182    2.0490 C.ar      1 RES1    0.0000
      8 C3         0.8144    0.7420    2.8330 C.ar      1 RES1    0.0000
      9 C4         1.5583    0.3754    3.9410 C.ar      1 RES1    0.0000
     10 C5         1.7004   -0.9603    4.2567 C.ar      1 RES1    0.0000
     11 C6         1.1013   -1.9243    3.4782 C.ar      1 RES1    0.0000
     12 C7         2.1778    1.4616    4.7604 C.2       1 RES1    0.0000
     13 C8         3.5653    1.9517    6.6024 C.3       1 RES1    0.0000
     14 C9         4.3846    1.1648    7.6070 C.3       1 RES1    0.0000
     15 C10        3.5812    0.3741    8.5688 C.3       1 RES1    0.0000
     16 H1        -0.3108    0.0262    1.2904 H         1 RES1    0.0000
     17 H2         0.7215    1.6611    2.6098 H         1 RES1    0.0000
     18 H3         2.2143   -1.2147    5.0144 H         1 RES1    0.0000
     19 H4         1.1985   -2.8459    3.6878 H         1 RES1    0.0000
     20 H5         4.1331    2.4954    6.0698 H         1 RES1    0.0000
     21 H6         2.9325    2.5004    7.0525 H         1 RES1    0.0000
     22 H7         4.9469    0.5687    7.1278 H         1 RES1    0.0000
     23 H8         4.9182    1.7771    8.0988 H         1 RES1    0.0000
     24 H9         3.0523    0.9603    9.0961 H         1 RES1    0.0000
     25 H10        3.0152   -0.2220    8.0934 H         1 RES1    0.0000
     26 C10B       4.4783   -0.3741    9.5797 C.3       1 RES1    0.0000
     27 C9B        3.6749   -1.1648   10.5416 C.3       1 RES1    0.0000
     28 C8B        4.4942   -1.9517   11.5461 C.3       1 RES1    0.0000
     29 O3B        5.1785   -0.9727   12.3782 O.3       1 RES1    0.0000
     30 C7B        5.8817   -1.4616   13.3882 C.2       1 RES1    0.0000
     31 O4B        6.0017   -2.6289   13.6078 O.2       1 RES1    0.0000
     32 C4B        6.5011   -0.3754   14.2076 C.ar      1 RES1    0.0000
     33 C3B        7.2451   -0.7420   15.3156 C.ar      1 RES1    0.0000
     34 C2B        7.8555    0.2182   16.0996 C.ar      1 RES1    0.0000
     35 C1B        7.6971    1.5289   15.7530 C.ar      1 RES1    0.0000
     36 N1B        8.3699    2.5553   16.5823 N.pl3     1 RES1    0.0000
     37 O1B        8.3199    3.7114   16.2049 O.2       1 RES1    0.0000
     38 O2B        8.9240    2.1986   17.6096 O.2       1 RES1    0.0000
     39 C6B        6.9581    1.9243   14.6704 C.ar      1 RES1    0.0000
     40 C5B        6.3591    0.9603   13.8918 C.ar      1 RES1    0.0000
     41 H3B        5.8452    1.2147   13.1341 H         1 RES1    0.0000
     42 H4B        6.8610    2.8459   14.4608 H         1 RES1    0.0000
     43 H1B        8.3703   -0.0262   16.8582 H         1 RES1    0.0000
     44 H2B        7.3379   -1.6611   15.5388 H         1 RES1    0.0000
     45 H5B        3.9264   -2.4954   12.0788 H         1 RES1    0.0000
     46 H6B        5.1270   -2.5004   11.0960 H         1 RES1    0.0000
     47 H7B        3.1125   -0.5687   11.0207 H         1 RES1    0.0000
     48 H8B        3.1412   -1.7771   10.0498 H         1 RES1    0.0000
     49 H9B        5.0072   -0.9603    9.0525 H         1 RES1    0.0000
     50 H10B       5.0442    0.2220   10.0552 H         1 RES1    0.0000
@<TRIPOS>BOND
     1    1    5 2
     2    2    5 2
     3    3   12 1
     4    4   12 2
     5    5    6 1
     6    6    7 ar
     7    7    8 ar
     8    8    9 ar
     9    9   10 ar
    10   10   11 ar
    11   11    6 ar
    12   12    9 1
    13   13    3 1
    14   14   13 1
    15   15   14 1
    16   16    7 1
    17   17    8 1
    18   18   10 1
    19   19   11 1
    20   20   13 1
    21   21   13 1
    22   22   14 1
    23   23   14 1
    24   24   15 1
    25   25   15 1
    26   26   15 1
    27   27   26 1
    28   28   27 1
    29   29   28 1
    30   30   29 1
    31   31   30 2
    32   32   30 1
    33   33   32 ar
    34   34   33 ar
    35   35   34 ar
    36   36   35 1
    37   37   36 2
    38   38   36 2
    39   39   35 ar
    40   40   32 ar
    41   41   40 1
    42   42   39 1
    43   43   34 1
    44   44   33 1
    45   45   28 1
    46   46   28 1
    47   47   27 1
    48   48   27 1
    49   49   26 1
    50   50   26 1
    51   39   40 ar
@<TRIPOS>SUBSTRUCTURE
     1 RES1 1

@<TRIPOS>CRYSIN
   8.9820   12.4710    9.0860  90.0000  92.9100  90.0000 231 1

