# MOL2 file generated by ConQuest
# Please check atom types

@<TRIPOS>MOLECULE
XAHGAP
    72    74     2
SMALL
NO_CHARGES
****
Generated from CSD

@<TRIPOS>ATOM
      1 C1        -0.1140  -11.3983   -0.0315 C.3       1 RES1    0.0000
      2 H1        -0.9136  -10.9489    0.3665 H         1 RES1    0.0000
      3 C2        -0.1965  -12.8962    0.2301 C.3       1 RES1    0.0000
      4 H2        -0.9547  -13.2747   -0.2818 H         1 RES1    0.0000
      5 H3         0.6339  -13.3304   -0.0904 H         1 RES1    0.0000
      6 C3        -0.0448  -11.0803   -1.5154 C.ar      1 RES1    0.0000
      7 C4         1.0403  -11.5161   -2.2816 C.ar      1 RES1    0.0000
      8 H4         1.7455  -12.0005   -1.8698 H         1 RES1    0.0000
      9 C5         1.0897  -11.2415   -3.6396 C.ar      1 RES1    0.0000
     10 H5         1.8297  -11.5427   -4.1538 H         1 RES1    0.0000
     11 C6         0.0781  -10.5369   -4.2515 C.ar      1 RES1    0.0000
     12 H6         0.1168  -10.3581   -5.1832 H         1 RES1    0.0000
     13 C7        -1.0016  -10.0897   -3.4958 C.ar      1 RES1    0.0000
     14 H7        -1.7009   -9.5973   -3.9108 H         1 RES1    0.0000
     15 C8        -1.0561  -10.3621   -2.1306 C.ar      1 RES1    0.0000
     16 H8        -1.7937  -10.0519   -1.6179 H         1 RES1    0.0000
     17 C9         2.1707   -9.1380    1.2078 C.2       1 RES1    0.0000
     18 H9         2.7797   -9.7705    1.5703 H         1 RES1    0.0000
     19 C10        2.4732   -7.7100    1.3047 C.ar      1 RES1    0.0000
     20 C11        1.6342   -6.7391    0.7783 C.ar      1 RES1    0.0000
     21 H10        0.8229   -6.9961    0.3560 H         1 RES1    0.0000
     22 C12        1.9689   -5.3903    0.8623 C.ar      1 RES1    0.0000
     23 H11        1.3814   -4.7414    0.4949 H         1 RES1    0.0000
     24 C13        3.1443   -4.9799    1.4718 C.ar      1 RES1    0.0000
     25 C14        3.9752   -5.9529    2.0071 C.ar      1 RES1    0.0000
     26 H12        4.7781   -5.6909    2.4414 H         1 RES1    0.0000
     27 C15        3.6589   -7.3011    1.9215 C.ar      1 RES1    0.0000
     28 H13        4.2506   -7.9488    2.2848 H         1 RES1    0.0000
     29 C16        3.5110   -3.5234    1.5388 C.3       1 RES1    0.0000
     30 H14        4.4080   -3.4300    1.9223 H         1 RES1    0.0000
     31 H15        2.8640   -3.0496    2.1015 H         1 RES1    0.0000
     32 H16        3.5004   -3.1424    0.6362 H         1 RES1    0.0000
     33 N1         1.1043   -9.5450    0.6467 N.2       1 RES1    0.0000
     34 O1         1.0632  -10.9733    0.6653 O.3       1 RES1    0.0000
     35 O2        -0.3730  -13.1869    1.6099 O.3       1 RES1    0.0000
     36 H17        0.3696  -13.1510    2.0006 H         1 RES1    0.0000
     37 C17        2.6913    0.4321    3.8083 C.3       2 RES2    0.0000
     38 H18        3.6391    0.7516    3.8107 H         2 RES2    0.0000
     39 C18        1.7809    1.5628    4.2483 C.3       2 RES2    0.0000
     40 H19        1.7338    2.2454    3.5330 H         2 RES2    0.0000
     41 H20        0.8670    1.2124    4.3969 H         2 RES2    0.0000
     42 C19        2.3239   -0.0254    2.4188 C.ar      2 RES2    0.0000
     43 C20        1.1183   -0.6733    2.1435 C.ar      2 RES2    0.0000
     44 H21        0.5218   -0.8815    2.8532 H         2 RES2    0.0000
     45 C21        0.7871   -1.0145    0.8453 C.ar      2 RES2    0.0000
     46 H22       -0.0373   -1.4568    0.6758 H         2 RES2    0.0000
     47 C22        1.6404   -0.7231   -0.2212 C.ar      2 RES2    0.0000
     48 H23        1.4015   -0.9526   -1.1117 H         2 RES2    0.0000
     49 C23        2.8343   -0.0956    0.0444 C.ar      2 RES2    0.0000
     50 H24        3.4290    0.1083   -0.6685 H         2 RES2    0.0000
     51 C24        3.1764    0.2428    1.3442 C.ar      2 RES2    0.0000
     52 H25        4.0107    0.6681    1.5089 H         2 RES2    0.0000
     53 C25        3.3771   -2.5458    5.4165 C.2       2 RES2    0.0000
     54 H26        2.6437   -2.5269    6.0196 H         2 RES2    0.0000
     55 C26        4.2743   -3.7093    5.4052 C.ar      2 RES2    0.0000
     56 C27        3.8544   -4.8750    6.0342 C.ar      2 RES2    0.0000
     57 H27        3.0463   -4.8744    6.5331 H         2 RES2    0.0000
     58 C28        4.6016   -6.0441    5.9437 C.ar      2 RES2    0.0000
     59 H28        4.2867   -6.8353    6.3676 H         2 RES2    0.0000
     60 C29        5.8104   -6.0766    5.2389 C.ar      2 RES2    0.0000
     61 C30        6.2467   -4.8883    4.6399 C.ar      2 RES2    0.0000
     62 H29        7.0718   -4.8806    4.1692 H         2 RES2    0.0000
     63 C31        5.4977   -3.7164    4.7206 C.ar      2 RES2    0.0000
     64 H30        5.8166   -2.9197    4.3113 H         2 RES2    0.0000
     65 C32        6.6098   -7.3463    5.1235 C.3       2 RES2    0.0000
     66 H31        7.1165   -7.4879    5.9502 H         2 RES2    0.0000
     67 H32        7.2308   -7.2745    4.3686 H         2 RES2    0.0000
     68 H33        6.0035   -8.1034    4.9773 H         2 RES2    0.0000
     69 N2         3.5706   -1.5526    4.6213 N.2       2 RES2    0.0000
     70 O3         2.5341   -0.5960    4.7925 O.3       2 RES2    0.0000
     71 O4         2.2579    2.1613    5.4424 O.3       2 RES2    0.0000
     72 H34        1.6222    2.2485    5.9849 H         2 RES2    0.0000
@<TRIPOS>BOND
     1    1    2 1
     2    3    1 1
     3    4    3 1
     4    5    3 1
     5    6    1 1
     6    7    6 ar
     7    8    7 1
     8    9    7 ar
     9   10    9 1
    10   11    9 ar
    11   12   11 1
    12   13   11 ar
    13   14   13 1
    14   15    6 ar
    15   16   15 1
    16   17   18 1
    17   19   17 1
    18   20   19 ar
    19   21   20 1
    20   22   20 ar
    21   23   22 1
    22   24   22 ar
    23   25   24 ar
    24   26   25 1
    25   27   19 ar
    26   28   27 1
    27   29   24 1
    28   30   29 1
    29   31   29 1
    30   32   29 1
    31   33   17 2
    32   34    1 1
    33   35    3 1
    34   36   35 1
    35   37   38 1
    36   39   37 1
    37   40   39 1
    38   41   39 1
    39   42   37 1
    40   43   42 ar
    41   44   43 1
    42   45   43 ar
    43   46   45 1
    44   47   45 ar
    45   48   47 1
    46   49   47 ar
    47   50   49 1
    48   51   42 ar
    49   52   51 1
    50   53   54 1
    51   55   53 1
    52   56   55 ar
    53   57   56 1
    54   58   56 ar
    55   59   58 1
    56   60   58 ar
    57   61   60 ar
    58   62   61 1
    59   63   55 ar
    60   64   63 1
    61   65   60 1
    62   66   65 1
    63   67   65 1
    64   68   65 1
    65   69   53 2
    66   70   37 1
    67   71   39 1
    68   72   71 1
    69   13   15 ar
    70   25   27 ar
    71   33   34 1
    72   49   51 ar
    73   61   63 ar
    74   69   70 1
@<TRIPOS>SUBSTRUCTURE
     1 RES1 1
     2 RES2 37

@<TRIPOS>CRYSIN
   5.5250   30.9290    8.1140  90.0000  95.7240  90.0000   4 1

