# MOL2 file generated by ConQuest
# Please check atom types

@<TRIPOS>MOLECULE
XAHMIE
    46    48     2
SMALL
NO_CHARGES
****
Generated from CSD

@<TRIPOS>ATOM
      1 O1         4.8921    0.4468   13.3479 O.3       1 RES1    0.0000
      2 O2         2.4326   -0.1780   10.3119 O.2       1 RES1    0.0000
      3 O3         2.4575    1.3561    8.7629 O.2       1 RES1    0.0000
      4 O4         0.3279    3.4292   10.4150 O.2       1 RES1    0.0000
      5 O5         0.1699    4.4584   12.3271 O.2       1 RES1    0.0000
      6 O6         1.3814    4.1808   15.0110 O.2       1 RES1    0.0000
      7 O7         2.1731    2.2034   15.4404 O.2       1 RES1    0.0000
      8 N1         4.4116    1.5046   14.0776 N.2       1 RES1    0.0000
      9 N2         4.4349    0.4694   12.0479 N.2       1 RES1    0.0000
     10 N3         2.9929    1.9206   10.8397 N.pl3     1 RES1    0.0000
     11 N4         2.9274    3.3066   13.6468 N.3       1 RES1    0.0000
     12 N5         2.1877    4.0867   11.4554 N.3       1 RES1    0.0000
     13 N6         2.6050    0.9538    9.9018 N.pl3     1 RES1    0.0000
     14 N7         0.8019    3.9760   11.4021 N.pl3     1 RES1    0.0000
     15 N8         2.0906    3.2234   14.7791 N.pl3     1 RES1    0.0000
     16 C1         3.6200    2.1516   13.2688 C.2       1 RES1    0.0000
     17 C2         3.6382    1.5025   11.9917 C.2       1 RES1    0.0000
     18 C3         2.9438    3.3407   10.4789 C.3       1 RES1    0.0000
     19 H1         3.8647    3.7007   10.4282 H         1 RES1    0.0000
     20 H2         2.5239    3.4409    9.5875 H         1 RES1    0.0000
     21 C4         2.7831    4.4362   12.7223 C.3       1 RES1    0.0000
     22 H3         2.2260    5.1310   13.1542 H         1 RES1    0.0000
     23 H4         3.6769    4.8270   12.5560 H         1 RES1    0.0000
     24 O8        -1.7456    3.3808   15.9926 O.3       2 RES2    0.0000
     25 O9         1.1970    3.2277   18.5749 O.2       2 RES2    0.0000
     26 O10        1.6272    1.3860   19.6431 O.2       2 RES2    0.0000
     27 O11        2.8692   -0.2790   17.2378 O.2       2 RES2    0.0000
     28 O12        2.4365   -0.8557   15.1834 O.2       2 RES2    0.0000
     29 O13        0.5021   -0.4631   12.9672 O.2       2 RES2    0.0000
     30 O14        0.3701    1.7035   13.1184 O.2       2 RES2    0.0000
     31 N9        -1.5301    2.4462   15.0055 N.2       2 RES2    0.0000
     32 N10       -1.0890    3.0577   17.1628 N.2       2 RES2    0.0000
     33 N11        0.4007    1.2969   17.7818 N.pl3     2 RES2    0.0000
     34 N12        0.7758   -0.7795   16.6581 N.3       2 RES2    0.0000
     35 N13       -0.2566    0.4433   14.8548 N.3       2 RES2    0.0000
     36 N14        1.1246    2.0270   18.7370 N.pl3     2 RES2    0.0000
     37 N15        2.1160   -0.6210   16.3350 N.pl3     2 RES2    0.0000
     38 N16        0.2468    0.5695   13.5544 N.pl3     2 RES2    0.0000
     39 C5        -0.7082    1.5796   15.5310 C.2       2 RES2    0.0000
     40 C6        -0.4262    1.9689   16.8856 C.2       2 RES2    0.0000
     41 C7         0.3468   -0.1581   17.8933 C.3       2 RES2    0.0000
     42 H5         0.9330   -0.4546   18.6334 H         2 RES2    0.0000
     43 H6        -0.5789   -0.4394   18.1009 H         2 RES2    0.0000
     44 C8        -0.1434   -0.8417   15.5414 C.3       2 RES2    0.0000
     45 H7        -1.0371   -1.1166   15.8689 H         2 RES2    0.0000
     46 H8         0.1687   -1.5284   14.8990 H         2 RES2    0.0000
@<TRIPOS>BOND
     1    1    8 1
     2    2   13 2
     3    3   13 2
     4    4   14 2
     5    5   14 2
     6    6   15 2
     7    7   15 2
     8    8   16 2
     9    9    1 1
    10   10   13 1
    11   11   15 1
    12   12   14 1
    13   16   11 1
    14   17    9 2
    15   18   10 1
    16   19   18 1
    17   20   18 1
    18   21   11 1
    19   22   21 1
    20   23   21 1
    21   24   31 1
    22   25   36 2
    23   26   36 2
    24   27   37 2
    25   28   37 2
    26   29   38 2
    27   30   38 2
    28   31   39 2
    29   32   24 1
    30   33   36 1
    31   34   37 1
    32   35   38 1
    33   39   35 1
    34   40   32 2
    35   41   33 1
    36   42   41 1
    37   43   41 1
    38   44   34 1
    39   45   44 1
    40   46   44 1
    41   10   17 1
    42   12   18 1
    43   12   21 1
    44   16   17 1
    45   33   40 1
    46   34   41 1
    47   35   44 1
    48   39   40 1
@<TRIPOS>SUBSTRUCTURE
     1 RES1 1
     2 RES2 24

@<TRIPOS>CRYSIN
  11.9614   13.8190   22.6601  90.0000  90.0000  90.0000  61 1

