# MOL2 file generated by ConQuest
# Please check atom types

@<TRIPOS>MOLECULE
XAHMIE01
    46    48     2
SMALL
NO_CHARGES
****
Generated from CSD

@<TRIPOS>ATOM
      1 O1         4.9503    0.5080   13.4380 O.3       1 RES1    0.0000
      2 O2         2.5099   -0.1409   10.4205 O.2       1 RES1    0.0000
      3 O3         2.4589    1.3797    8.8827 O.2       1 RES1    0.0000
      4 O4         0.3690    3.4450   10.5066 O.2       1 RES1    0.0000
      5 O5         0.2079    4.4812   12.4008 O.2       1 RES1    0.0000
      6 O6         1.4395    4.2283   15.0822 O.2       1 RES1    0.0000
      7 O7         2.2134    2.2541   15.5027 O.2       1 RES1    0.0000
      8 N1         4.4618    1.5636   14.1541 N.2       1 RES1    0.0000
      9 N2         4.5022    0.5239   12.1408 N.2       1 RES1    0.0000
     10 N3         3.0669    1.9510   10.9150 N.pl3     1 RES1    0.0000
     11 N4         2.9751    3.3486   13.7131 N.3       1 RES1    0.0000
     12 N5         2.2337    4.1054   11.5312 N.3       1 RES1    0.0000
     13 N6         2.6532    0.9810   10.0066 N.pl3     1 RES1    0.0000
     14 N7         0.8405    3.9960   11.4785 N.pl3     1 RES1    0.0000
     15 N8         2.1378    3.2681   14.8559 N.pl3     1 RES1    0.0000
     16 C1         3.6774    2.1977   13.3419 C.2       1 RES1    0.0000
     17 C2         3.7056    1.5476   12.0794 C.2       1 RES1    0.0000
     18 C3         2.9913    3.3680   10.5612 C.3       1 RES1    0.0000
     19 H1         3.8872    3.7350   10.5064 H         1 RES1    0.0000
     20 H2         2.5760    3.4601    9.6891 H         1 RES1    0.0000
     21 C4         2.8286    4.4653   12.7912 C.3       1 RES1    0.0000
     22 H3         2.2814    5.1483   13.2117 H         1 RES1    0.0000
     23 H4         3.7033    4.8497   12.6250 H         1 RES1    0.0000
     24 O8        -1.7724    3.3845   16.0175 O.3       2 RES2    0.0000
     25 O9         1.1554    3.2857   18.6042 O.2       2 RES2    0.0000
     26 O10        1.6163    1.4849   19.6961 O.2       2 RES2    0.0000
     27 O11        2.8463   -0.2877   17.4232 O.2       2 RES2    0.0000
     28 O12        2.4595   -0.8989   15.3854 O.2       2 RES2    0.0000
     29 O13        0.5645   -0.4719   13.1062 O.2       2 RES2    0.0000
     30 O14        0.3778    1.6762   13.1969 O.2       2 RES2    0.0000
     31 N9        -1.5300    2.4394   15.0468 N.2       2 RES2    0.0000
     32 N10       -1.1406    3.0855   17.1997 N.2       2 RES2    0.0000
     33 N11        0.3425    1.3526   17.8738 N.pl3     2 RES2    0.0000
     34 N12        0.7552   -0.7400   16.7999 N.3       2 RES2    0.0000
     35 N13       -0.2336    0.4561   14.9562 N.3       2 RES2    0.0000
     36 N14        1.0938    2.1008   18.7948 N.pl3     2 RES2    0.0000
     37 N15        2.1136   -0.6288   16.5139 N.pl3     2 RES2    0.0000
     38 N16        0.2818    0.5613   13.6601 N.pl3     2 RES2    0.0000
     39 C5        -0.7151    1.5960   15.6043 C.2       2 RES2    0.0000
     40 C6        -0.4664    2.0032   16.9485 C.2       2 RES2    0.0000
     41 C7         0.3006   -0.0963   18.0037 C.3       2 RES2    0.0000
     42 H5         0.8619   -0.3697   18.7457 H         2 RES2    0.0000
     43 H6        -0.6075   -0.3767   18.1955 H         2 RES2    0.0000
     44 C8        -0.1390   -0.8114   15.6627 C.3       2 RES2    0.0000
     45 H7        -1.0226   -1.0729   15.9673 H         2 RES2    0.0000
     46 H8         0.1777   -1.4943   15.0518 H         2 RES2    0.0000
@<TRIPOS>BOND
     1    1    8 1
     2    2   13 2
     3    3   13 2
     4    4   14 2
     5    5   14 2
     6    6   15 2
     7    7   15 2
     8    8   16 2
     9    9    1 1
    10   10   13 1
    11   11   15 1
    12   12   14 1
    13   16   11 1
    14   17    9 2
    15   18   10 1
    16   19   18 1
    17   20   18 1
    18   21   11 1
    19   22   21 1
    20   23   21 1
    21   24   31 1
    22   25   36 2
    23   26   36 2
    24   27   37 2
    25   28   37 2
    26   29   38 2
    27   30   38 2
    28   31   39 2
    29   32   24 1
    30   33   36 1
    31   34   37 1
    32   35   38 1
    33   39   35 1
    34   40   32 2
    35   41   33 1
    36   42   41 1
    37   43   41 1
    38   44   34 1
    39   45   44 1
    40   46   44 1
    41   10   17 1
    42   12   18 1
    43   12   21 1
    44   16   17 1
    45   33   40 1
    46   34   41 1
    47   35   44 1
    48   39   40 1
@<TRIPOS>SUBSTRUCTURE
     1 RES1 1
     2 RES2 24

@<TRIPOS>CRYSIN
  12.1740   13.9520   22.8300  90.0000  90.0000  90.0000  61 1

