# MOL2 file generated by ConQuest
# Please check atom types

@<TRIPOS>MOLECULE
XAHQUV
    42    45     1
SMALL
NO_CHARGES
****
Generated from CSD

@<TRIPOS>ATOM
      1 O1         1.2215    3.7114    0.2301 O.3       1 RES1    0.0000
      2 O2        -0.0066    0.7585   -0.3085 O.2       1 RES1    0.0000
      3 O3        -0.6927    0.9984    1.7142 O.2       1 RES1    0.0000
      4 N1         0.2970    5.2948    1.7309 N.pl3     1 RES1    0.0000
      5 N2        -0.0012    5.3949    3.0767 N.2       1 RES1    0.0000
      6 N3         0.1721    1.0504    0.8651 N.pl3     1 RES1    0.0000
      7 C1         0.9185    4.1140    1.4844 C.2       1 RES1    0.0000
      8 C2         1.0607    3.4281    2.6553 C.2       1 RES1    0.0000
      9 C3         1.6244    2.0313    2.7075 C.3       1 RES1    0.0000
     10 H1         1.0343    1.4635    3.2823 H         1 RES1    0.0000
     11 C4         1.5822    1.4976    1.2618 C.3       1 RES1    0.0000
     12 H2         2.1875    0.7038    1.2054 H         1 RES1    0.0000
     13 C5         2.0493    2.5211    0.2414 C.3       1 RES1    0.0000
     14 H3         2.9834    2.7786    0.4454 H         1 RES1    0.0000
     15 H4         2.0371    2.1101   -0.6584 H         1 RES1    0.0000
     16 C6         0.4694    4.2765    3.6207 C.2       1 RES1    0.0000
     17 C7         0.3365    4.0260    5.0888 C.3       1 RES1    0.0000
     18 H5        -0.4403    4.5132    5.4349 H         1 RES1    0.0000
     19 H6         1.1465    4.3345    5.5479 H         1 RES1    0.0000
     20 H7         0.2177    3.0667    5.2461 H         1 RES1    0.0000
     21 C8        -0.1526    6.2951    0.8183 C.ar      1 RES1    0.0000
     22 C9         0.5487    6.5400   -0.3526 C.ar      1 RES1    0.0000
     23 H8         1.3434    6.0593   -0.5519 H         1 RES1    0.0000
     24 C10        0.0615    7.5089   -1.2335 C.ar      1 RES1    0.0000
     25 H9         0.5251    7.6795   -2.0446 H         1 RES1    0.0000
     26 C11       -1.0867    8.2222   -0.9379 C.ar      1 RES1    0.0000
     27 H10       -1.4007    8.8902   -1.5362 H         1 RES1    0.0000
     28 C12       -1.7771    7.9601    0.2322 C.ar      1 RES1    0.0000
     29 H11       -2.5697    8.4441    0.4309 H         1 RES1    0.0000
     30 C13       -1.3176    6.9935    1.1172 C.ar      1 RES1    0.0000
     31 H12       -1.7945    6.8117    1.9187 H         1 RES1    0.0000
     32 C14        3.0609    1.9441    3.2287 C.ar      1 RES1    0.0000
     33 C15        3.9839    2.9685    3.0370 C.ar      1 RES1    0.0000
     34 H13        3.7120    3.7705    2.6077 H         1 RES1    0.0000
     35 C16        5.3013    2.8305    3.4678 C.ar      1 RES1    0.0000
     36 H14        5.9228    3.5347    3.3242 H         1 RES1    0.0000
     37 C17        5.7068    1.6680    4.1048 C.ar      1 RES1    0.0000
     38 H15        6.6057    1.5716    4.3957 H         1 RES1    0.0000
     39 C18        4.7987    0.6539    4.3131 C.ar      1 RES1    0.0000
     40 H16        5.0712   -0.1386    4.7604 H         1 RES1    0.0000
     41 C19        3.4821    0.7813    3.8727 C.ar      1 RES1    0.0000
     42 H17        2.8671    0.0705    4.0117 H         1 RES1    0.0000
@<TRIPOS>BOND
     1    1    7 1
     2    2    6 2
     3    3    6 2
     4    4    5 1
     5    5   16 2
     6    6   11 1
     7    7    4 1
     8    8    7 2
     9    9    8 1
    10   10    9 1
    11   11    9 1
    12   12   11 1
    13   13    1 1
    14   14   13 1
    15   15   13 1
    16   16    8 1
    17   17   16 1
    18   18   17 1
    19   19   17 1
    20   20   17 1
    21   21    4 1
    22   22   21 ar
    23   23   22 1
    24   24   22 ar
    25   25   24 1
    26   26   24 ar
    27   27   26 1
    28   28   26 ar
    29   29   28 1
    30   30   21 ar
    31   31   30 1
    32   32    9 1
    33   33   32 ar
    34   34   33 1
    35   35   33 ar
    36   36   35 1
    37   37   35 ar
    38   38   37 1
    39   39   37 ar
    40   40   39 1
    41   41   32 ar
    42   42   41 1
    43   11   13 1
    44   28   30 ar
    45   39   41 ar
@<TRIPOS>SUBSTRUCTURE
     1 RES1 1

@<TRIPOS>CRYSIN
   8.3080   12.1550   16.1370  90.0000  90.0000  90.0000  19 1

