# MOL2 file generated by ConQuest
# Please check atom types

@<TRIPOS>MOLECULE
XAJHEX
    15    15     1
SMALL
NO_CHARGES
****
Generated from CSD

@<TRIPOS>ATOM
      1 N1         1.4290    7.2884   13.8419 N.3       1 RES1    0.0000
      2 N2         1.4851    8.6422   13.8975 N.2       1 RES1    0.0000
      3 N3         2.4336    8.9977   13.1169 N.2       1 RES1    0.0000
      4 N4         2.9822    7.8797   12.5613 N.pl3     1 RES1    0.0000
      5 H1         3.6536    7.8804   11.9923 H         1 RES1    0.0000
      6 C1         2.3562    6.7777   13.0027 C.2       1 RES1    0.0000
      7 O1         0.4617    6.5922   14.4877 O.3       1 RES1    0.0000
      8 C2         0.9395    6.1624   15.8056 C.3       1 RES1    0.0000
      9 H2         0.2287    5.6689   16.2662 H         1 RES1    0.0000
     10 H3         1.1872    6.9488   16.3355 H         1 RES1    0.0000
     11 H4         1.7215    5.5818   15.6963 H         1 RES1    0.0000
     12 N5         2.4520    5.4496   12.8418 N.2       1 RES1    0.0000
     13 N6         3.4143    5.0877   11.9773 N.pl3     1 RES1    0.0000
     14 O2         4.1349    5.8983   11.3862 O.2       1 RES1    0.0000
     15 O3         3.5390    3.8492   11.8119 O.2       1 RES1    0.0000
@<TRIPOS>BOND
     1    1    2 1
     2    2    3 2
     3    3    4 1
     4    4    5 1
     5    6    1 1
     6    7    1 1
     7    8    7 1
     8    9    8 1
     9   10    8 1
    10   11    8 1
    11   12    6 2
    12   13   12 1
    13   14   13 2
    14   15   13 2
    15    4    6 1
@<TRIPOS>SUBSTRUCTURE
     1 RES1 1

@<TRIPOS>CRYSIN
   4.5191    8.9754   15.1790  90.0000  96.7040  90.0000 231 1

