# MOL2 file generated by ConQuest
# Please check atom types

@<TRIPOS>MOLECULE
XAJJIE
    58    59     1
SMALL
USER_CHARGES
****
Generated from CSD

@<TRIPOS>ATOM
      1 O1         4.1136    2.3545   12.0437 O.3       1 RES1    0.0000
      2 O2        -3.1781   -5.3524   11.1436 O.3       1 RES1    0.0000
      3 O3        -5.1949   -4.8222   12.6741 O.3       1 RES1    0.0000
      4 O4        -2.2844    0.2537   14.1139 O.3       1 RES1    0.0000
      5 H1        -2.6141    0.9763   14.3875 H         1 RES1    0.0000
      6 O5         2.1010    2.8184   13.5769 O.3       1 RES1    0.0000
      7 O6         1.4641   -2.6965   10.5607 O.2       1 RES1    0.0000
      8 O7        -4.0922   -0.5941   15.1313 O.2       1 RES1    0.0000
      9 N1        -0.7851   -1.4368   12.7381 N.2       1 RES1    0.0000
     10 O8        -0.9325   -0.9184   10.5225 O.2       1 RES1   -1.0000
     11 C1        -3.0837   -1.8833   13.4395 C.ar      1 RES1    0.0000
     12 N2        -0.3749   -0.9067   11.6583 N.pl3     1 RES1    1.0000
     13 C2         3.0653    0.3917   11.0523 C.ar      1 RES1    0.0000
     14 H2         3.8248    0.2100   10.5109 H         1 RES1    0.0000
     15 C3        -2.0019   -3.3437   11.8281 C.ar      1 RES1    0.0000
     16 H3        -1.2640   -3.5348   11.2599 H         1 RES1    0.0000
     17 C4         1.9764    1.7304   12.7670 C.ar      1 RES1    0.0000
     18 C5        -3.0793   -4.1991   11.8668 C.ar      1 RES1    0.0000
     19 C6        -3.1046   -0.6498   14.2538 C.2       1 RES1    0.0000
     20 C7         0.8638   -0.1417   11.7884 C.ar      1 RES1    0.0000
     21 C8         0.8651    0.9109   12.6991 C.ar      1 RES1    0.0000
     22 H4         0.1166    1.0636   13.2640 H         1 RES1    0.0000
     23 C9        -4.1847   -2.7512   13.4554 C.ar      1 RES1    0.0000
     24 H5        -4.9376   -2.5420   13.9962 H         1 RES1    0.0000
     25 C10        0.9839    3.1205   14.4219 C.3       1 RES1    0.0000
     26 H6         0.1888    3.2713   13.8708 H         1 RES1    0.0000
     27 H7         1.1780    3.9281   14.9424 H         1 RES1    0.0000
     28 H8         0.8224    2.3702   15.0311 H         1 RES1    0.0000
     29 C11       -1.9902   -2.1896   12.6255 C.ar      1 RES1    0.0000
     30 C12       -4.1928   -3.9070   12.6964 C.ar      1 RES1    0.0000
     31 C13        3.0878    1.4706   11.9273 C.ar      1 RES1    0.0000
     32 C14       -6.3699   -4.5126   13.4312 C.3       1 RES1    0.0000
     33 H9        -6.1330   -4.4169   14.3768 H         1 RES1    0.0000
     34 H10       -7.0235   -5.2359   13.3297 H         1 RES1    0.0000
     35 H11       -6.7571   -3.6739   13.1050 H         1 RES1    0.0000
     36 C15        5.1596    2.2714   11.0841 C.3       1 RES1    0.0000
     37 H12        5.6033    1.4012   11.1590 H         1 RES1    0.0000
     38 H13        5.8110    2.9849   11.2477 H         1 RES1    0.0000
     39 H14        4.7858    2.3708   10.1838 H         1 RES1    0.0000
     40 C16        1.9300   -0.4355   10.9592 C.ar      1 RES1    0.0000
     41 C17        2.2413   -1.5848    8.5915 C.3       1 RES1    0.0000
     42 C18        1.8585   -1.6538   10.0786 C.2       1 RES1    0.0000
     43 C19       -2.0645   -5.6799   10.3053 C.3       1 RES1    0.0000
     44 H15       -1.9405   -4.9746    9.6365 H         1 RES1    0.0000
     45 H16       -2.2358   -6.5322    9.8536 H         1 RES1    0.0000
     46 H17       -1.2551   -5.7564   10.8518 H         1 RES1    0.0000
     47 C20        2.1355   -0.1565    8.0330 C.3       1 RES1    0.0000
     48 H18        2.1916   -0.1836    7.0547 H         1 RES1    0.0000
     49 H19        2.8682    0.3885    8.3876 H         1 RES1    0.0000
     50 H20        1.2774    0.2358    8.2990 H         1 RES1    0.0000
     51 C21        3.6771   -2.1260    8.4547 C.3       1 RES1    0.0000
     52 H21        3.9529   -2.0869    7.5148 H         1 RES1    0.0000
     53 H22        3.7057   -3.0559    8.7652 H         1 RES1    0.0000
     54 H23        4.2848   -1.5819    8.9975 H         1 RES1    0.0000
     55 C22        1.2756   -2.4931    7.8248 C.3       1 RES1    0.0000
     56 H24        0.3590   -2.1654    7.9367 H         1 RES1    0.0000
     57 H25        1.3403   -3.4069    8.1736 H         1 RES1    0.0000
     58 H26        1.5095   -2.4902    6.8727 H         1 RES1    0.0000
@<TRIPOS>BOND
     1    1   31 1
     2    2   18 1
     3    3   30 1
     4    4    5 1
     5    6   17 1
     6    7   42 2
     7    8   19 2
     8    9   12 2
     9   10   12 1
    10   11   19 1
    11   12   20 1
    12   13   14 1
    13   15   16 1
    14   17   21 ar
    15   18   15 ar
    16   19    4 1
    17   20   21 ar
    18   21   22 1
    19   23   11 ar
    20   24   23 1
    21   25    6 1
    22   26   25 1
    23   27   25 1
    24   28   25 1
    25   29    9 1
    26   30   18 ar
    27   31   13 ar
    28   32    3 1
    29   33   32 1
    30   34   32 1
    31   35   32 1
    32   36    1 1
    33   37   36 1
    34   38   36 1
    35   39   36 1
    36   40   13 ar
    37   41   42 1
    38   42   40 1
    39   43    2 1
    40   44   43 1
    41   45   43 1
    42   46   43 1
    43   47   41 1
    44   48   47 1
    45   49   47 1
    46   50   47 1
    47   51   41 1
    48   52   51 1
    49   53   51 1
    50   54   51 1
    51   55   41 1
    52   56   55 1
    53   57   55 1
    54   58   55 1
    55   11   29 ar
    56   15   29 ar
    57   17   31 ar
    58   20   40 ar
    59   23   30 ar
@<TRIPOS>SUBSTRUCTURE
     1 RES1 1

@<TRIPOS>CRYSIN
   7.4230   10.4660   15.3260  85.9280  87.9800  69.5770   2 1

