# MOL2 file generated by ConQuest
# Please check atom types

@<TRIPOS>MOLECULE
XAJKAW
    41    43     1
SMALL
NO_CHARGES
****
Generated from CSD

@<TRIPOS>ATOM
      1 O1         5.9045   10.9484   -0.3281 O.3       1 RES1    0.0000
      2 O2         4.1992   11.8834   -3.1098 O.2       1 RES1    0.0000
      3 O3         1.3116   14.5093    2.1507 O.3       1 RES1    0.0000
      4 O4         1.7068   14.6360   -0.0548 O.2       1 RES1    0.0000
      5 O5         2.5665   10.0709    1.0195 O.3       1 RES1    0.0000
      6 O6         3.5929    8.7617    2.5351 O.2       1 RES1    0.0000
      7 O7        -1.9873    4.6461    2.0812 O.2       1 RES1    0.0000
      8 O8        -3.0982    6.3080    1.2914 O.2       1 RES1    0.0000
      9 N1         2.5559   12.9500    1.2401 N.am      1 RES1    0.0000
     10 N2        -2.0685    5.7936    1.7081 N.pl3     1 RES1    0.0000
     11 C1         4.7600   10.1776    0.0576 C.3       1 RES1    0.0000
     12 C2         4.9415   10.5476   -1.3441 C.3       1 RES1    0.0000
     13 C3         4.1685   11.6860   -1.9006 C.2       1 RES1    0.0000
     14 C4         3.4375   12.5382   -0.9879 C.2       1 RES1    0.0000
     15 C5         3.2584   12.2001    0.3085 C.2       1 RES1    0.0000
     16 C6         3.7517   10.9062    0.8973 C.3       1 RES1    0.0000
     17 C7         1.8340   14.0953    1.0033 C.2       1 RES1    0.0000
     18 C8         0.4306   15.6568    2.0987 C.3       1 RES1    0.0000
     19 C9         0.2782   16.0606    3.5686 C.2       1 RES1    0.0000
     20 C10       -0.5368   16.3266    4.2186 C.2       1 RES1    0.0000
     21 C11        2.6372    9.0182    1.8620 C.2       1 RES1    0.0000
     22 C12        1.3877    8.2059    1.8191 C.ar      1 RES1    0.0000
     23 C13        1.4277    6.9110    2.3306 C.ar      1 RES1    0.0000
     24 C14        0.3100    6.1046    2.2891 C.ar      1 RES1    0.0000
     25 C15       -0.8450    6.6288    1.7502 C.ar      1 RES1    0.0000
     26 C16       -0.9285    7.9114    1.2493 C.ar      1 RES1    0.0000
     27 C17        0.2121    8.6948    1.2732 C.ar      1 RES1    0.0000
     28 H1         2.5735   12.6428    2.1388 H         1 RES1    0.0000
     29 H2         4.9255    9.2714    0.2867 H         1 RES1    0.0000
     30 H3         5.2132    9.8694   -1.9519 H         1 RES1    0.0000
     31 H4         3.0769   13.3562   -1.3083 H         1 RES1    0.0000
     32 H5         4.1154   11.0654    1.7601 H         1 RES1    0.0000
     33 H6         0.7968   16.3632    1.5795 H         1 RES1    0.0000
     34 H7        -0.4180   15.4134    1.7467 H         1 RES1    0.0000
     35 H8         1.1016   16.0620    4.0401 H         1 RES1    0.0000
     36 H9        -0.4421   16.5419    5.1390 H         1 RES1    0.0000
     37 H10       -1.3961   16.3477    3.8124 H         1 RES1    0.0000
     38 H11        2.2328    6.5824    2.7149 H         1 RES1    0.0000
     39 H12        0.3307    5.2105    2.6081 H         1 RES1    0.0000
     40 H13       -1.7515    8.2414    0.9099 H         1 RES1    0.0000
     41 H14        0.1955    9.5683    0.9008 H         1 RES1    0.0000
@<TRIPOS>BOND
     1    1   11 1
     2    2   13 2
     3    3   17 1
     4    4   17 2
     5    5   16 1
     6    6   21 2
     7    7   10 2
     8    8   10 2
     9    9   15 1
    10   10   25 1
    11   11   12 1
    12   12    1 1
    13   13   12 1
    14   14   13 1
    15   15   14 2
    16   16   11 1
    17   17    9 1
    18   18    3 1
    19   19   18 1
    20   20   19 2
    21   21    5 1
    22   22   21 1
    23   23   22 ar
    24   24   23 ar
    25   25   24 ar
    26   26   25 ar
    27   27   22 ar
    28   28    9 1
    29   29   11 1
    30   30   12 1
    31   31   14 1
    32   32   16 1
    33   33   18 1
    34   34   18 1
    35   35   19 1
    36   36   20 1
    37   37   20 1
    38   38   23 1
    39   39   24 1
    40   40   26 1
    41   41   27 1
    42   15   16 1
    43   26   27 ar
@<TRIPOS>SUBSTRUCTURE
     1 RES1 1

@<TRIPOS>CRYSIN
  17.0650   14.0710    7.1425  90.0000 100.3520  90.0000  14 2

