# MOL2 file generated by ConQuest
# Please check atom types

@<TRIPOS>MOLECULE
XAJMUR
    84    89     1
SMALL
NO_CHARGES
****
Generated from CSD

@<TRIPOS>ATOM
      1 C1         2.4193    1.2919   12.8687 C.3       1 RES1    0.0000
      2 C2         1.2148    1.9554   12.2567 C.2       1 RES1    0.0000
      3 H1         1.3523    2.5132   11.4990 H         1 RES1    0.0000
      4 C3        -0.0206    1.8128   12.7043 C.2       1 RES1    0.0000
      5 H2        -0.7268    2.1939   12.1964 H         1 RES1    0.0000
      6 C4        -0.3676    1.0944   13.9523 C.3       1 RES1    0.0000
      7 H3        -0.8142    1.7228   14.5738 H         1 RES1    0.0000
      8 H4        -1.0088    0.3705   13.7395 H         1 RES1    0.0000
      9 C5         0.8105    0.5110   14.6246 C.2       1 RES1    0.0000
     10 H5         0.6683    0.0377   15.4357 H         1 RES1    0.0000
     11 C6         2.0414    0.6015   14.1754 C.2       1 RES1    0.0000
     12 H6         2.7372    0.2162   14.6943 H         1 RES1    0.0000
     13 C7         3.6607    2.1754   13.1744 C.2       1 RES1    0.0000
     14 O1         4.7610    1.6498   13.2246 O.2       1 RES1    0.0000
     15 N1         3.5350    3.5204   13.3856 N.am      1 RES1    0.0000
     16 C8         2.2975    4.2313   13.5492 C.ar      1 RES1    0.0000
     17 C9         1.9228    5.2103   12.6241 C.ar      1 RES1    0.0000
     18 C10        0.7214    5.8910   12.8268 C.ar      1 RES1    0.0000
     19 H7         0.4488    6.5509   12.1997 H         1 RES1    0.0000
     20 C11       -0.0815    5.6240   13.9241 C.ar      1 RES1    0.0000
     21 H8        -0.9069    6.0815   14.0360 H         1 RES1    0.0000
     22 C12        0.3259    4.6897   14.8539 C.ar      1 RES1    0.0000
     23 H9        -0.2146    4.5131   15.6150 H         1 RES1    0.0000
     24 C13        1.5169    4.0102   14.6828 C.ar      1 RES1    0.0000
     25 H10        1.8060    3.3897   15.3412 H         1 RES1    0.0000
     26 C14        2.7787    5.5794   11.4526 C.2       1 RES1    0.0000
     27 N2         2.9815    6.8409   11.3607 N.2       1 RES1    0.0000
     28 O2         3.7707    7.1354   10.2202 O.3       1 RES1    0.0000
     29 C15        4.1185    8.5515   10.2210 C.3       1 RES1    0.0000
     30 C16        2.8472    9.3932   10.1387 C.ar      1 RES1    0.0000
     31 C17        2.7477   10.6764   10.6616 C.ar      1 RES1    0.0000
     32 H11        3.4550   11.0245   11.1927 H         1 RES1    0.0000
     33 C18        1.6211   11.4597   10.4167 C.ar      1 RES1    0.0000
     34 H12        1.5580   12.3304   10.7902 H         1 RES1    0.0000
     35 C19        0.5904   10.9649    9.6272 C.ar      1 RES1    0.0000
     36 H13       -0.1686   11.5052    9.4410 H         1 RES1    0.0000
     37 C20        0.6744    9.6887    9.1146 C.ar      1 RES1    0.0000
     38 H14       -0.0321    9.3465    8.5807 H         1 RES1    0.0000
     39 C21        1.7805    8.9087    9.3735 C.ar      1 RES1    0.0000
     40 H15        1.8190    8.0250    9.0255 H         1 RES1    0.0000
     41 C22        4.8880    8.7316    8.9007 C.ar      1 RES1    0.0000
     42 C23        5.3259    7.6474    8.1531 C.ar      1 RES1    0.0000
     43 H16        5.1563    6.7651    8.4617 H         1 RES1    0.0000
     44 C24        6.0106    7.8400    6.9571 C.ar      1 RES1    0.0000
     45 H17        6.2996    7.0882    6.4526 H         1 RES1    0.0000
     46 C25        6.2728    9.1120    6.5003 C.ar      1 RES1    0.0000
     47 H18        6.7334    9.2404    5.6786 H         1 RES1    0.0000
     48 C26        5.8594   10.2075    7.2478 C.ar      1 RES1    0.0000
     49 H19        6.0513   11.0887    6.9480 H         1 RES1    0.0000
     50 C27        5.1656   10.0131    8.4325 C.ar      1 RES1    0.0000
     51 H20        4.8759   10.7666    8.9326 H         1 RES1    0.0000
     52 C28        5.0072    8.8190   11.4382 C.ar      1 RES1    0.0000
     53 C29        4.4464    9.0099   12.7059 C.ar      1 RES1    0.0000
     54 H21        3.5022    9.0414   12.8009 H         1 RES1    0.0000
     55 C30        5.2507    9.1525   13.8206 C.ar      1 RES1    0.0000
     56 H22        4.8545    9.2777   14.6748 H         1 RES1    0.0000
     57 C31        6.6228    9.1147   13.7028 C.ar      1 RES1    0.0000
     58 H23        7.1712    9.2090   14.4727 H         1 RES1    0.0000
     59 C32        7.1982    8.9381   12.4550 C.ar      1 RES1    0.0000
     60 H24        8.1431    8.9155   12.3659 H         1 RES1    0.0000
     61 C33        6.3911    8.7933   11.3351 C.ar      1 RES1    0.0000
     62 H25        6.7929    8.6749   10.4822 H         1 RES1    0.0000
     63 C34        2.9103    0.2290   11.8591 C.3       1 RES1    0.0000
     64 H26        2.1991   -0.4267   11.7027 H         1 RES1    0.0000
     65 H27        3.7002   -0.2247   12.2208 H         1 RES1    0.0000
     66 H28        3.1435    0.6660   11.0134 H         1 RES1    0.0000
     67 C35        4.7719    4.2973   13.6402 C.3       1 RES1    0.0000
     68 H29        4.7039    5.1682   13.1741 H         1 RES1    0.0000
     69 H30        5.5425    3.8094   13.2555 H         1 RES1    0.0000
     70 C36        5.0342    4.5467   15.0962 C.ar      1 RES1    0.0000
     71 C37        5.3903    3.5223   15.9404 C.ar      1 RES1    0.0000
     72 H31        5.4417    2.6262   15.6296 H         1 RES1    0.0000
     73 C38        5.6844    3.8549   17.3210 C.ar      1 RES1    0.0000
     74 H32        5.9355    3.1921   17.9532 H         1 RES1    0.0000
     75 C39        5.5782    5.2451   17.6844 C.ar      1 RES1    0.0000
     76 H33        5.7886    5.5007   18.5740 H         1 RES1    0.0000
     77 C40        5.2128    6.1498   16.8599 C.ar      1 RES1    0.0000
     78 H34        5.1291    7.0497   17.1532 H         1 RES1    0.0000
     79 C41        4.9471    5.8375   15.5889 C.ar      1 RES1    0.0000
     80 H35        4.6862    6.5333   14.9974 H         1 RES1    0.0000
     81 C42        3.2816    4.5726   10.4676 C.3       1 RES1    0.0000
     82 H36        2.8170    4.6913    9.6121 H         1 RES1    0.0000
     83 H37        3.1116    3.6693   10.8081 H         1 RES1    0.0000
     84 H38        4.2448    4.6973   10.3356 H         1 RES1    0.0000
@<TRIPOS>BOND
     1    1    2 1
     2    2    3 1
     3    4    2 2
     4    5    4 1
     5    6    4 1
     6    7    6 1
     7    8    6 1
     8    9    6 1
     9   10    9 1
    10   11    1 1
    11   12   11 1
    12   13    1 1
    13   14   13 2
    14   15   13 1
    15   16   15 1
    16   17   16 ar
    17   18   17 ar
    18   19   18 1
    19   20   18 ar
    20   21   20 1
    21   22   20 ar
    22   23   22 1
    23   24   16 ar
    24   25   24 1
    25   26   17 1
    26   27   26 2
    27   28   27 1
    28   29   28 1
    29   30   29 1
    30   31   30 ar
    31   32   31 1
    32   33   31 ar
    33   34   33 1
    34   35   33 ar
    35   36   35 1
    36   37   35 ar
    37   38   37 1
    38   39   30 ar
    39   40   39 1
    40   41   29 1
    41   42   41 ar
    42   43   42 1
    43   44   42 ar
    44   45   44 1
    45   46   44 ar
    46   47   46 1
    47   48   46 ar
    48   49   48 1
    49   50   41 ar
    50   51   50 1
    51   52   29 1
    52   53   52 ar
    53   54   53 1
    54   55   53 ar
    55   56   55 1
    56   57   55 ar
    57   58   57 1
    58   59   57 ar
    59   60   59 1
    60   61   52 ar
    61   62   61 1
    62   63    1 1
    63   64   63 1
    64   65   63 1
    65   66   63 1
    66   67   15 1
    67   68   67 1
    68   69   67 1
    69   70   67 1
    70   71   70 ar
    71   72   71 1
    72   73   71 ar
    73   74   73 1
    74   75   73 ar
    75   76   75 1
    76   77   75 ar
    77   78   77 1
    78   79   70 ar
    79   80   79 1
    80   81   26 1
    81   82   81 1
    82   83   81 1
    83   84   81 1
    84    9   11 2
    85   22   24 ar
    86   37   39 ar
    87   48   50 ar
    88   59   61 ar
    89   77   79 ar
@<TRIPOS>SUBSTRUCTURE
     1 RES1 1

@<TRIPOS>CRYSIN
   8.4178   12.7810   16.4160  84.8410  83.9970  72.8190   2 1

