# MOL2 file generated by ConQuest
# Please check atom types

@<TRIPOS>MOLECULE
XAJSAE
    20    21     1
SMALL
NO_CHARGES
****
Generated from CSD

@<TRIPOS>ATOM
      1 O1         0.5006    3.5180    3.7857 O.2       1 RES1    0.0000
      2 O2         1.4350   -0.2315    6.2550 O.2       1 RES1    0.0000
      3 O3         1.5199    0.2787    1.6778 O.2       1 RES1    0.0000
      4 O4        -0.2207    0.5584    2.9585 O.2       1 RES1    0.0000
      5 N1         1.1975    1.5652    4.8078 N.am      1 RES1    0.0000
      6 N2         1.8692    1.0189    3.7530 N.pl3     1 RES1    0.0000
      7 H1         2.4492    1.5589    3.3949 H         1 RES1    0.0000
      8 N3         0.9619    0.6003    2.7069 N.pl3     1 RES1    0.0000
      9 C1         0.4444    2.7696    4.7238 C.2       1 RES1    0.0000
     10 C2        -0.3183    2.8121    5.9871 C.ar      1 RES1    0.0000
     11 C3        -1.2072    3.7664    6.4518 C.ar      1 RES1    0.0000
     12 H2        -1.4124    4.5407    5.9410 H         1 RES1    0.0000
     13 C4        -1.7861    3.5468    7.6960 C.ar      1 RES1    0.0000
     14 H3        -2.3985    4.1857    8.0437 H         1 RES1    0.0000
     15 C5        -1.4887    2.4094    8.4454 C.ar      1 RES1    0.0000
     16 H4        -1.8972    2.2901    9.2942 H         1 RES1    0.0000
     17 C6        -0.5974    1.4384    7.9680 C.ar      1 RES1    0.0000
     18 H5        -0.3988    0.6573    8.4715 H         1 RES1    0.0000
     19 C7        -0.0241    1.6677    6.7360 C.ar      1 RES1    0.0000
     20 C8         0.9399    0.8385    5.9767 C.2       1 RES1    0.0000
@<TRIPOS>BOND
     1    1    9 2
     2    2   20 2
     3    3    8 2
     4    4    8 2
     5    5    6 1
     6    6    7 1
     7    8    6 1
     8    9    5 1
     9   10    9 1
    10   11   10 ar
    11   12   11 1
    12   13   11 ar
    13   14   13 1
    14   15   13 ar
    15   16   15 1
    16   17   15 ar
    17   18   17 1
    18   19   10 ar
    19   20    5 1
    20   17   19 ar
    21   19   20 1
@<TRIPOS>SUBSTRUCTURE
     1 RES1 1

@<TRIPOS>CRYSIN
  17.3341    5.7354   18.6716  90.0000 111.3370  90.0000  15 1

