# MOL2 file generated by ConQuest
# Please check atom types

@<TRIPOS>MOLECULE
XAKLAZ
    64    68     2
SMALL
NO_CHARGES
****
Generated from CSD

@<TRIPOS>ATOM
      1 O1         5.5037    5.0739    2.3909 O.2       1 RES1    0.0000
      2 O2         5.5513    7.2296    2.5447 O.2       1 RES1    0.0000
      3 N1         6.0040    6.8692    6.5189 N.2       1 RES1    0.0000
      4 N2         5.9151    5.5126    6.5551 N.3       1 RES1    0.0000
      5 N3         5.5623    6.1029    3.0589 N.pl3     1 RES1    0.0000
      6 C1         5.8480    7.1830    5.2551 C.2       1 RES1    0.0000
      7 H1         5.8581    8.0710    4.9163 H         1 RES1    0.0000
      8 C2         5.6655    6.0398    4.4725 C.2       1 RES1    0.0000
      9 C3         5.7073    4.9378    5.3466 C.2       1 RES1    0.0000
     10 C4         5.6189    3.4725    5.2595 C.2       1 RES1    0.0000
     11 C5         6.1873    2.7720    6.4692 C.3       1 RES1    0.0000
     12 H2         7.1749    2.8409    6.4631 H         1 RES1    0.0000
     13 H3         5.9437    1.8131    6.4454 H         1 RES1    0.0000
     14 C6         5.6336    3.4131    7.7374 C.3       1 RES1    0.0000
     15 H4         4.6441    3.3790    7.7206 H         1 RES1    0.0000
     16 H5         5.9449    2.9051    8.5279 H         1 RES1    0.0000
     17 C7         6.0870    4.8465    7.8469 C.3       1 RES1    0.0000
     18 H6         5.5551    5.3145    8.5383 H         1 RES1    0.0000
     19 H7         7.0396    4.8768    8.1161 H         1 RES1    0.0000
     20 C8         4.9697    2.8553    4.2635 C.2       1 RES1    0.0000
     21 H8         4.5677    3.4176    3.6116 H         1 RES1    0.0000
     22 C9         4.8082    1.4044    4.0635 C.ar      1 RES1    0.0000
     23 C10        3.5895    0.9267    3.5844 C.ar      1 RES1    0.0000
     24 H9         2.8936    1.5444    3.3932 H         1 RES1    0.0000
     25 C11        3.3679   -0.4215    3.3817 C.ar      1 RES1    0.0000
     26 H10        2.5226   -0.7219    3.0699 H         1 RES1    0.0000
     27 C12        4.3626   -1.3225    3.6289 C.ar      1 RES1    0.0000
     28 H11        4.2109   -2.2496    3.4891 H         1 RES1    0.0000
     29 C13        5.5870   -0.8839    4.0812 C.ar      1 RES1    0.0000
     30 H12        6.2768   -1.5137    4.2522 H         1 RES1    0.0000
     31 C14        5.8271    0.4782    4.2919 C.ar      1 RES1    0.0000
     32 H13        6.6803    0.7710    4.5887 H         1 RES1    0.0000
     33 O3         2.2721    4.4037    5.6158 O.2       2 RES2    0.0000
     34 O4         2.5961    5.8180    7.1946 O.2       2 RES2    0.0000
     35 N4         2.4326    8.8098    4.5326 N.2       2 RES2    0.0000
     36 N5         2.2833    8.0229    3.4311 N.3       2 RES2    0.0000
     37 N6         2.3997    5.5564    6.0113 N.pl3     2 RES2    0.0000
     38 C15        2.4636    7.9664    5.5411 C.2       2 RES2    0.0000
     39 H14        2.5584    8.2213    6.4513 H         2 RES2    0.0000
     40 C16        2.3411    6.6523    5.1017 C.2       2 RES2    0.0000
     41 C17        2.2299    6.6991    3.6993 C.2       2 RES2    0.0000
     42 C18        2.1703    5.7513    2.5749 C.2       2 RES2    0.0000
     43 C19        2.4938    6.3585    1.2250 C.3       2 RES2    0.0000
     44 H15        2.1932    5.7485    0.5062 H         2 RES2    0.0000
     45 H16        3.4734    6.4734    1.1394 H         2 RES2    0.0000
     46 C20        1.8080    7.7046    1.0699 C.3       2 RES2    0.0000
     47 H17        1.9955    8.0716    0.1697 H         2 RES2    0.0000
     48 H18        0.8287    7.5907    1.1586 H         2 RES2    0.0000
     49 C21        2.3028    8.6610    2.1202 C.3       2 RES2    0.0000
     50 H19        3.2262    8.9446    1.9025 H         2 RES2    0.0000
     51 H20        1.7276    9.4672    2.1342 H         2 RES2    0.0000
     52 C22        1.7832    4.4832    2.7381 C.2       2 RES2    0.0000
     53 H21        1.4633    4.2481    3.6013 H         2 RES2    0.0000
     54 C23        1.7962    3.4115    1.7355 C.ar      2 RES2    0.0000
     55 C24        2.8451    3.2275    0.8364 C.ar      2 RES2    0.0000
     56 H22        3.5515    3.8617    0.8029 H         2 RES2    0.0000
     57 C25        2.8679    2.1354   -0.0037 C.ar      2 RES2    0.0000
     58 H23        3.5915    2.0231   -0.6081 H         2 RES2    0.0000
     59 C26        1.8553    1.2073    0.0235 C.ar      2 RES2    0.0000
     60 H24        1.8714    0.4614   -0.5653 H         2 RES2    0.0000
     61 C27        0.8134    1.3710    0.9174 C.ar      2 RES2    0.0000
     62 H25        0.1130    0.7298    0.9475 H         2 RES2    0.0000
     63 C28        0.7847    2.4547    1.7636 C.ar      2 RES2    0.0000
     64 H26        0.0648    2.5516    2.3762 H         2 RES2    0.0000
@<TRIPOS>BOND
     1    1    5 2
     2    2    5 2
     3    3    4 1
     4    4    9 1
     5    5    8 1
     6    6    3 2
     7    7    6 1
     8    8    6 1
     9    9    8 2
    10   10    9 1
    11   11   10 1
    12   12   11 1
    13   13   11 1
    14   14   11 1
    15   15   14 1
    16   16   14 1
    17   17    4 1
    18   18   17 1
    19   19   17 1
    20   20   10 2
    21   21   20 1
    22   22   20 1
    23   23   22 ar
    24   24   23 1
    25   25   23 ar
    26   26   25 1
    27   27   25 ar
    28   28   27 1
    29   29   27 ar
    30   30   29 1
    31   31   22 ar
    32   32   31 1
    33   33   37 2
    34   34   37 2
    35   35   36 1
    36   36   41 1
    37   37   40 1
    38   38   35 2
    39   39   38 1
    40   40   38 1
    41   41   40 2
    42   42   41 1
    43   43   42 1
    44   44   43 1
    45   45   43 1
    46   46   43 1
    47   47   46 1
    48   48   46 1
    49   49   36 1
    50   50   49 1
    51   51   49 1
    52   52   42 2
    53   53   52 1
    54   54   52 1
    55   55   54 ar
    56   56   55 1
    57   57   55 ar
    58   58   57 1
    59   59   57 ar
    60   60   59 1
    61   61   59 ar
    62   62   61 1
    63   63   54 ar
    64   64   63 1
    65   14   17 1
    66   29   31 ar
    67   46   49 1
    68   61   63 ar
@<TRIPOS>SUBSTRUCTURE
     1 RES1 1
     2 RES2 33

@<TRIPOS>CRYSIN
   6.8771   12.2722   15.4408  73.3380  84.5950  83.9060   2 1

