# MOL2 file generated by ConQuest
# Please check atom types

@<TRIPOS>MOLECULE
XAKLOL
    55    58     1
SMALL
NO_CHARGES
****
Generated from CSD

@<TRIPOS>ATOM
      1 O1         2.9919    0.7367    2.7503 O.2       1 RES1    0.0000
      2 O2         1.6829    1.3015    1.1086 O.2       1 RES1    0.0000
      3 N1         5.7809    3.9987   -4.5442 N.3       1 RES1    0.0000
      4 N2         7.2683    2.3325   -1.5946 N.3       1 RES1    0.0000
      5 N3         2.8099    1.1695    1.6069 N.pl3     1 RES1    0.0000
      6 C1         6.2670    3.3592   -5.7618 C.3       1 RES1    0.0000
      7 H1         6.4719    2.4399   -5.5806 H         1 RES1    0.0000
      8 H2         7.0598    3.8097   -6.0647 H         1 RES1    0.0000
      9 H3         5.5914    3.4095   -6.4417 H         1 RES1    0.0000
     10 C2         5.4786    5.3940   -4.8255 C.3       1 RES1    0.0000
     11 H4         4.8404    5.4449   -5.5406 H         1 RES1    0.0000
     12 H5         6.2837    5.8516   -5.0806 H         1 RES1    0.0000
     13 H6         5.1120    5.8066   -4.0404 H         1 RES1    0.0000
     14 C3         6.7548    3.9281   -3.4550 C.3       1 RES1    0.0000
     15 H7         6.4099    4.4133   -2.6893 H         1 RES1    0.0000
     16 H8         7.5770    4.3577   -3.7354 H         1 RES1    0.0000
     17 C4         7.0611    2.4770   -3.0358 C.3       1 RES1    0.0000
     18 H9         6.3242    1.9070   -3.3074 H         1 RES1    0.0000
     19 H10        7.8565    2.1745   -3.5014 H         1 RES1    0.0000
     20 C5         6.1874    2.0772   -0.7903 C.ar      1 RES1    0.0000
     21 C6         6.3396    1.6014    0.5319 C.ar      1 RES1    0.0000
     22 H11        7.1932    1.4747    0.8781 H         1 RES1    0.0000
     23 C7         5.2401    1.3221    1.3145 C.ar      1 RES1    0.0000
     24 H12        5.3533    1.0017    2.1802 H         1 RES1    0.0000
     25 C8         3.9622    1.5207    0.8056 C.ar      1 RES1    0.0000
     26 C9         3.7769    2.0104   -0.4807 C.ar      1 RES1    0.0000
     27 H13        2.9177    2.1553   -0.8051 H         1 RES1    0.0000
     28 C10        4.8679    2.2794   -1.2714 C.ar      1 RES1    0.0000
     29 H14        4.7393    2.5983   -2.1352 H         1 RES1    0.0000
     30 C11        8.6295    2.1463   -1.0551 C.3       1 RES1    0.0000
     31 H15        8.7951    1.1986   -0.9381 H         1 RES1    0.0000
     32 H16        8.6828    2.5662   -0.1820 H         1 RES1    0.0000
     33 C12        9.7051    2.7267   -1.9440 C.ar      1 RES1    0.0000
     34 C13        9.9200    4.1241   -1.9332 C.ar      1 RES1    0.0000
     35 C14        9.1231    5.0325   -1.1638 C.ar      1 RES1    0.0000
     36 H17        8.4473    4.6980   -0.6211 H         1 RES1    0.0000
     37 C15        9.3382    6.3790   -1.2121 C.ar      1 RES1    0.0000
     38 H18        8.8088    6.9453   -0.6991 H         1 RES1    0.0000
     39 C16       10.3577    6.9311   -2.0332 C.ar      1 RES1    0.0000
     40 H19       10.4817    7.8528   -2.0692 H         1 RES1    0.0000
     41 C17       11.1480    6.1093   -2.7633 C.ar      1 RES1    0.0000
     42 H20       11.8191    6.4744   -3.2934 H         1 RES1    0.0000
     43 C18       10.9707    4.6920   -2.7346 C.ar      1 RES1    0.0000
     44 C19       11.7729    3.8461   -3.4997 C.ar      1 RES1    0.0000
     45 H21       12.4691    4.2100   -3.9974 H         1 RES1    0.0000
     46 C20       11.5607    2.4733   -3.5390 C.ar      1 RES1    0.0000
     47 C21       12.3794    1.6288   -4.3529 C.ar      1 RES1    0.0000
     48 H22       13.0714    2.0033   -4.8485 H         1 RES1    0.0000
     49 C22       12.1651    0.2951   -4.4131 C.ar      1 RES1    0.0000
     50 H23       12.7092   -0.2419   -4.9425 H         1 RES1    0.0000
     51 C23       11.1083   -0.2829   -3.6669 C.ar      1 RES1    0.0000
     52 H24       10.9616   -1.2007   -3.7204 H         1 RES1    0.0000
     53 C24       10.3015    0.4754   -2.8724 C.ar      1 RES1    0.0000
     54 H25        9.6134    0.0685   -2.3963 H         1 RES1    0.0000
     55 C25       10.4967    1.8929   -2.7591 C.ar      1 RES1    0.0000
@<TRIPOS>BOND
     1    1    5 2
     2    2    5 2
     3    3    6 1
     4    4   17 1
     5    5   25 1
     6    6    7 1
     7    8    6 1
     8    9    6 1
     9   10    3 1
    10   11   10 1
    11   12   10 1
    12   13   10 1
    13   14    3 1
    14   15   14 1
    15   16   14 1
    16   17   14 1
    17   18   17 1
    18   19   17 1
    19   20    4 1
    20   21   20 ar
    21   22   21 1
    22   23   21 ar
    23   24   23 1
    24   25   23 ar
    25   26   25 ar
    26   27   26 1
    27   28   20 ar
    28   29   28 1
    29   30    4 1
    30   31   30 1
    31   32   30 1
    32   33   30 1
    33   34   33 ar
    34   35   34 ar
    35   36   35 1
    36   37   35 ar
    37   38   37 1
    38   39   37 ar
    39   40   39 1
    40   41   39 ar
    41   42   41 1
    42   43   34 ar
    43   44   43 ar
    44   45   44 1
    45   46   44 ar
    46   47   46 ar
    47   48   47 1
    48   49   47 ar
    49   50   49 1
    50   51   49 ar
    51   52   51 1
    52   53   51 ar
    53   54   53 1
    54   55   33 ar
    55   26   28 ar
    56   41   43 ar
    57   46   55 ar
    58   53   55 ar
@<TRIPOS>SUBSTRUCTURE
     1 RES1 1

@<TRIPOS>CRYSIN
   9.3950   21.4030   10.1200  90.0000  98.7920  90.0000  14 1

