# MOL2 file generated by ConQuest
# Please check atom types

@<TRIPOS>MOLECULE
XAKLIF
    57    60     1
SMALL
NO_CHARGES
****
Generated from CSD

@<TRIPOS>ATOM
      1 O1        10.8627    9.1824    7.3185 O.2       1 RES1    0.0000
      2 O2        11.2731   10.3861    5.5909 O.2       1 RES1    0.0000
      3 O3        11.2515    6.4042    1.0814 O.2       1 RES1    0.0000
      4 O4        10.8480    8.5139    1.2036 O.2       1 RES1    0.0000
      5 N1        10.8755    1.6118    3.2334 N.3       1 RES1    0.0000
      6 N2         9.4443    5.0452    2.8828 N.3       1 RES1    0.0000
      7 N3        10.9806    9.3195    6.1150 N.pl3     1 RES1    0.0000
      8 N4        10.8677    7.3977    1.6875 N.pl3     1 RES1    0.0000
      9 C1        12.2375    1.1230    3.1246 C.3       1 RES1    0.0000
     10 H1        12.8125    1.6528    3.6825 H         1 RES1    0.0000
     11 H2        12.5294    1.1878    2.2127 H         1 RES1    0.0000
     12 H3        12.2732    0.2067    3.4088 H         1 RES1    0.0000
     13 C2        10.0116    0.8128    2.3997 C.3       1 RES1    0.0000
     14 H4        10.0793   -0.1090    2.6586 H         1 RES1    0.0000
     15 H5        10.2763    0.9073    1.4815 H         1 RES1    0.0000
     16 H6         9.1042    1.1082    2.5022 H         1 RES1    0.0000
     17 C3        10.8111    3.0089    2.8921 C.3       1 RES1    0.0000
     18 H7        10.9455    3.1093    1.9369 H         1 RES1    0.0000
     19 H8        11.5290    3.4792    3.3444 H         1 RES1    0.0000
     20 C4         9.4906    3.6351    3.2746 C.3       1 RES1    0.0000
     21 H9         8.7685    3.1552    2.8403 H         1 RES1    0.0000
     22 H10        9.3653    3.5628    4.2341 H         1 RES1    0.0000
     23 C5        10.0428    6.0050    3.6244 C.ar      1 RES1    0.0000
     24 C6        10.1722    5.8717    5.0224 C.ar      1 RES1    0.0000
     25 H11       10.0475    5.0367    5.4133 H         1 RES1    0.0000
     26 C7        10.4777    6.9387    5.8149 C.ar      1 RES1    0.0000
     27 H12       10.5193    6.8312    6.7384 H         1 RES1    0.0000
     28 C8        10.7265    8.1762    5.2612 C.ar      1 RES1    0.0000
     29 C9        10.7635    8.3296    3.9044 C.ar      1 RES1    0.0000
     30 H13       10.9692    9.1569    3.5314 H         1 RES1    0.0000
     31 C10       10.4937    7.2471    3.0929 C.ar      1 RES1    0.0000
     32 C11        8.7332    5.3607    1.6336 C.3       1 RES1    0.0000
     33 H14        9.2003    4.9491    0.8897 H         1 RES1    0.0000
     34 H15        8.7417    6.3208    1.4973 H         1 RES1    0.0000
     35 C12        7.3036    4.8732    1.6526 C.ar      1 RES1    0.0000
     36 C13        6.9075    3.7511    0.9119 C.ar      1 RES1    0.0000
     37 C14        7.7980    2.9436    0.1374 C.ar      1 RES1    0.0000
     38 H16        8.7011    3.1656    0.1099 H         1 RES1    0.0000
     39 C15        7.3649    1.8692   -0.5537 C.ar      1 RES1    0.0000
     40 H17        7.9770    1.3578   -1.0313 H         1 RES1    0.0000
     41 C16        6.0137    1.5066   -0.5664 C.ar      1 RES1    0.0000
     42 H18        5.7317    0.7748   -1.0672 H         1 RES1    0.0000
     43 C17        5.1213    2.2201    0.1458 C.ar      1 RES1    0.0000
     44 H19        4.2266    1.9676    0.1448 H         1 RES1    0.0000
     45 C18        5.5292    3.3577    0.9035 C.ar      1 RES1    0.0000
     46 C19        4.6148    4.0882    1.6410 C.ar      1 RES1    0.0000
     47 H20        3.7185    3.8402    1.6231 H         1 RES1    0.0000
     48 C20        4.9983    5.1851    2.4113 C.ar      1 RES1    0.0000
     49 C21        4.0618    5.8958    3.1912 C.ar      1 RES1    0.0000
     50 H21        3.1719    5.6286    3.1922 H         1 RES1    0.0000
     51 C22        4.4352    6.9539    3.9340 C.ar      1 RES1    0.0000
     52 H22        3.8018    7.4030    4.4465 H         1 RES1    0.0000
     53 C23        5.7732    7.3880    3.9435 C.ar      1 RES1    0.0000
     54 H23        6.0192    8.1243    4.4549 H         1 RES1    0.0000
     55 C24        6.6990    6.7337    3.2091 C.ar      1 RES1    0.0000
     56 H24        7.5798    7.0336    3.2207 H         1 RES1    0.0000
     57 C25        6.3648    5.5986    2.4166 C.ar      1 RES1    0.0000
@<TRIPOS>BOND
     1    1    7 2
     2    2    7 2
     3    3    8 2
     4    4    8 2
     5    5    9 1
     6    6   20 1
     7    7   28 1
     8    8   31 1
     9    9   10 1
    10   11    9 1
    11   12    9 1
    12   13    5 1
    13   14   13 1
    14   15   13 1
    15   16   13 1
    16   17    5 1
    17   18   17 1
    18   19   17 1
    19   20   17 1
    20   21   20 1
    21   22   20 1
    22   23    6 1
    23   24   23 ar
    24   25   24 1
    25   26   24 ar
    26   27   26 1
    27   28   26 ar
    28   29   28 ar
    29   30   29 1
    30   31   23 ar
    31   32    6 1
    32   33   32 1
    33   34   32 1
    34   35   32 1
    35   36   35 ar
    36   37   36 ar
    37   38   37 1
    38   39   37 ar
    39   40   39 1
    40   41   39 ar
    41   42   41 1
    42   43   41 ar
    43   44   43 1
    44   45   36 ar
    45   46   45 ar
    46   47   46 1
    47   48   46 ar
    48   49   48 ar
    49   50   49 1
    50   51   49 ar
    51   52   51 1
    52   53   51 ar
    53   54   53 1
    54   55   53 ar
    55   56   55 1
    56   57   35 ar
    57   29   31 ar
    58   43   45 ar
    59   48   57 ar
    60   55   57 ar
@<TRIPOS>SUBSTRUCTURE
     1 RES1 1

@<TRIPOS>CRYSIN
   9.8590   10.8310   11.3140  88.6350  69.4520  75.3140   2 1

