# MOL2 file generated by ConQuest
# Please check atom types

@<TRIPOS>MOLECULE
XAKMEC
    51    54     1
SMALL
NO_CHARGES
****
Generated from CSD

@<TRIPOS>ATOM
      1 O1         3.8540    7.3365    7.5199 O.2       1 RES1    0.0000
      2 O2         3.1971    6.6226    5.5913 O.2       1 RES1    0.0000
      3 O3        -0.9940    7.7626    3.7656 O.2       1 RES1    0.0000
      4 O4        -2.5139    8.6802    5.0082 O.2       1 RES1    0.0000
      5 N1         2.1019    8.2946    9.2195 N.pl3     1 RES1    0.0000
      6 H1         2.8931    7.9736    9.1149 H         1 RES1    0.0000
      7 N2         4.1939    9.1605   10.8071 N.3       1 RES1    0.0000
      8 H2         4.7659    8.6812   10.3797 H         1 RES1    0.0000
      9 N3         2.9835    7.2100    6.6459 N.pl3     1 RES1    0.0000
     10 N4        -1.3802    8.2186    4.8402 N.pl3     1 RES1    0.0000
     11 C1         1.7631    8.8073   10.5380 C.3       1 RES1    0.0000
     12 H3         1.0030    8.3252   10.8995 H         1 RES1    0.0000
     13 H4         1.5319    9.7476   10.4826 H         1 RES1    0.0000
     14 C2         2.9838    8.6174   11.4378 C.3       1 RES1    0.0000
     15 H5         2.8325    9.0643   12.2848 H         1 RES1    0.0000
     16 H6         3.1092    7.6720   11.6154 H         1 RES1    0.0000
     17 C3         4.3184   10.6087   10.9892 C.3       1 RES1    0.0000
     18 H7         4.4455   10.7996   11.9312 H         1 RES1    0.0000
     19 H8         3.4943   11.0355   10.7077 H         1 RES1    0.0000
     20 C4         5.4624   11.1923   10.2125 C.ar      1 RES1    0.0000
     21 C5         5.2910   11.4822    8.8422 C.ar      1 RES1    0.0000
     22 C6         4.0946   11.1773    8.1368 C.ar      1 RES1    0.0000
     23 H9         3.3874   10.7711    8.5845 H         1 RES1    0.0000
     24 C7         3.9724   11.4744    6.8166 C.ar      1 RES1    0.0000
     25 H10        3.1858   11.2614    6.3689 H         1 RES1    0.0000
     26 C8         5.0327   12.1048    6.1112 C.ar      1 RES1    0.0000
     27 H11        4.9249   12.3163    5.2123 H         1 RES1    0.0000
     28 C9         6.1788   12.3974    6.7251 C.ar      1 RES1    0.0000
     29 H12        6.8657   12.7995    6.2440 H         1 RES1    0.0000
     30 C10        6.3711   12.1026    8.1104 C.ar      1 RES1    0.0000
     31 C11        7.5627   12.4065    8.7648 C.ar      1 RES1    0.0000
     32 H13        8.2486   12.8166    8.2890 H         1 RES1    0.0000
     33 C12        7.7531   12.1142   10.1070 C.ar      1 RES1    0.0000
     34 C13        8.9683   12.4491   10.7948 C.ar      1 RES1    0.0000
     35 H14        9.6476   12.8810   10.3278 H         1 RES1    0.0000
     36 C14        9.1528   12.1568   12.0948 C.ar      1 RES1    0.0000
     37 H15        9.9498   12.3864   12.5152 H         1 RES1    0.0000
     38 C15        8.1348   11.5002   12.8187 C.ar      1 RES1    0.0000
     39 H16        8.2760   11.2785   13.7114 H         1 RES1    0.0000
     40 C16        6.9469   11.1875   12.2267 C.ar      1 RES1    0.0000
     41 H17        6.2831   10.7753   12.7316 H         1 RES1    0.0000
     42 C17        6.6959   11.4791   10.8441 C.ar      1 RES1    0.0000
     43 C18        1.2916    8.2781    8.1561 C.ar      1 RES1    0.0000
     44 C19        1.6734    7.7823    6.8834 C.ar      1 RES1    0.0000
     45 C20        0.7979    7.7607    5.8033 C.ar      1 RES1    0.0000
     46 H18        1.0695    7.4189    4.9827 H         1 RES1    0.0000
     47 C21       -0.4697    8.2493    5.9678 C.ar      1 RES1    0.0000
     48 C22       -0.9073    8.7479    7.2009 C.ar      1 RES1    0.0000
     49 H19       -1.7759    9.0671    7.2968 H         1 RES1    0.0000
     50 C23       -0.0462    8.7612    8.2591 C.ar      1 RES1    0.0000
     51 H20       -0.3414    9.0957    9.0744 H         1 RES1    0.0000
@<TRIPOS>BOND
     1    1    9 2
     2    2    9 2
     3    3   10 2
     4    4   10 2
     5    5    6 1
     6    7    8 1
     7    9   44 1
     8   10   47 1
     9   11    5 1
    10   12   11 1
    11   13   11 1
    12   14    7 1
    13   15   14 1
    14   16   14 1
    15   17    7 1
    16   18   17 1
    17   19   17 1
    18   20   17 1
    19   21   20 ar
    20   22   21 ar
    21   23   22 1
    22   24   22 ar
    23   25   24 1
    24   26   24 ar
    25   27   26 1
    26   28   26 ar
    27   29   28 1
    28   30   21 ar
    29   31   30 ar
    30   32   31 1
    31   33   31 ar
    32   34   33 ar
    33   35   34 1
    34   36   34 ar
    35   37   36 1
    36   38   36 ar
    37   39   38 1
    38   40   38 ar
    39   41   40 1
    40   42   20 ar
    41   43    5 1
    42   44   43 ar
    43   45   44 ar
    44   46   45 1
    45   47   45 ar
    46   48   47 ar
    47   49   48 1
    48   50   43 ar
    49   51   50 1
    50   11   14 1
    51   28   30 ar
    52   33   42 ar
    53   40   42 ar
    54   48   50 ar
@<TRIPOS>SUBSTRUCTURE
     1 RES1 1

@<TRIPOS>CRYSIN
   7.9210   14.2947    8.7995  90.0000  91.7100  90.0000   4 1

