# MOL2 file generated by ConQuest
# Please check atom types

@<TRIPOS>MOLECULE
XAKMAY
    32    32     1
SMALL
NO_CHARGES
****
Generated from CSD

@<TRIPOS>ATOM
      1 O1         4.5741    1.1455    6.1652 O.2       1 RES1    0.0000
      2 O2         4.8555    2.4391    7.8392 O.2       1 RES1    0.0000
      3 O3         8.4637    5.3685    8.1781 O.2       1 RES1    0.0000
      4 O4         9.8686    5.5671    6.5893 O.2       1 RES1    0.0000
      5 N1         4.4033    2.3620    1.4091 N.3       1 RES1    0.0000
      6 N2         5.9761    1.4896    3.9622 N.pl3     1 RES1    0.0000
      7 H1         5.3150    1.0672    4.3145 H         1 RES1    0.0000
      8 N3         8.8561    5.0940    7.0690 N.pl3     1 RES1    0.0000
      9 N4         5.1779    2.0609    6.7321 N.pl3     1 RES1    0.0000
     10 C1         4.0067    3.6550    0.8678 C.3       1 RES1    0.0000
     11 H2         3.0586    3.6617    0.7199 H         1 RES1    0.0000
     12 H3         4.4620    3.8072    0.0370 H         1 RES1    0.0000
     13 H4         4.2382    4.3472    1.4912 H         1 RES1    0.0000
     14 C2         4.0348    1.3020    0.4878 C.3       1 RES1    0.0000
     15 H5         3.0855    1.3192    0.3430 H         1 RES1    0.0000
     16 H6         4.2856    0.4533    0.8596 H         1 RES1    0.0000
     17 H7         4.4881    1.4319   -0.3482 H         1 RES1    0.0000
     18 C3         5.8230    2.3393    1.6340 C.3       1 RES1    0.0000
     19 H8         6.0939    3.1933    2.0037 H         1 RES1    0.0000
     20 H9         6.2720    2.2323    0.7805 H         1 RES1    0.0000
     21 C4         6.2822    1.2403    2.5645 C.3       1 RES1    0.0000
     22 H10        5.8629    0.4084    2.2964 H         1 RES1    0.0000
     23 H11        7.2415    1.1305    2.4700 H         1 RES1    0.0000
     24 C5         6.6688    2.3446    4.7376 C.ar      1 RES1    0.0000
     25 C6         7.8206    2.9650    4.2549 C.ar      1 RES1    0.0000
     26 H12        8.1152    2.7600    3.3974 H         1 RES1    0.0000
     27 C7         8.5268    3.8588    4.9934 C.ar      1 RES1    0.0000
     28 H13        9.2807    4.2706    4.6380 H         1 RES1    0.0000
     29 C8         8.1088    4.1512    6.2864 C.ar      1 RES1    0.0000
     30 C9         7.0183    3.5809    6.8143 C.ar      1 RES1    0.0000
     31 H14        6.7448    3.8037    7.6749 H         1 RES1    0.0000
     32 C10        6.2900    2.6456    6.0635 C.ar      1 RES1    0.0000
@<TRIPOS>BOND
     1    1    9 2
     2    2    9 2
     3    3    8 2
     4    4    8 2
     5    5   10 1
     6    6    7 1
     7    8   29 1
     8    9   32 1
     9   10   11 1
    10   12   10 1
    11   13   10 1
    12   14    5 1
    13   15   14 1
    14   16   14 1
    15   17   14 1
    16   18    5 1
    17   19   18 1
    18   20   18 1
    19   21    6 1
    20   22   21 1
    21   23   21 1
    22   24    6 1
    23   25   24 ar
    24   26   25 1
    25   27   25 ar
    26   28   27 1
    27   29   27 ar
    28   30   29 ar
    29   31   30 1
    30   32   24 ar
    31   18   21 1
    32   30   32 ar
@<TRIPOS>SUBSTRUCTURE
     1 RES1 1

@<TRIPOS>CRYSIN
   5.4860   10.5560   10.6300  83.3810  75.6530  79.6210   2 1

