# MOL2 file generated by ConQuest
# Please check atom types

@<TRIPOS>MOLECULE
XAKVOX
    54    57     1
SMALL
NO_CHARGES
****
Generated from CSD

@<TRIPOS>ATOM
      1 C1         3.3175    7.9725    3.5155 C.2       1 RES1    0.0000
      2 C2         4.5454    8.0424    2.7116 C.2       1 RES1    0.0000
      3 C3         5.8427    8.4439    3.2844 C.ar      1 RES1    0.0000
      4 C4         6.1540    8.1273    4.5994 C.ar      1 RES1    0.0000
      5 H1         5.5270    7.6857    5.1263 H         1 RES1    0.0000
      6 C5         7.3785    8.4582    5.1333 C.ar      1 RES1    0.0000
      7 H2         7.5773    8.2223    6.0109 H         1 RES1    0.0000
      8 C6         8.3023    9.1286    4.3892 C.ar      1 RES1    0.0000
      9 H3         9.1269    9.3538    4.7548 H         1 RES1    0.0000
     10 C7         8.0013    9.4664    3.0961 C.ar      1 RES1    0.0000
     11 H4         8.6256    9.9315    2.5881 H         1 RES1    0.0000
     12 C8         6.7831    9.1266    2.5353 C.ar      1 RES1    0.0000
     13 H5         6.5969    9.3578    1.6537 H         1 RES1    0.0000
     14 C9         4.2383    7.6757    1.4575 C.2       1 RES1    0.0000
     15 C10        5.1494    7.4086    0.3158 C.ar      1 RES1    0.0000
     16 C11        6.0131    6.3317    0.3805 C.ar      1 RES1    0.0000
     17 H6         6.0237    5.7964    1.1416 H         1 RES1    0.0000
     18 C12        6.8556    6.0415   -0.6645 C.ar      1 RES1    0.0000
     19 H7         7.4291    5.3115   -0.6087 H         1 RES1    0.0000
     20 C13        6.8527    6.8246   -1.7881 C.ar      1 RES1    0.0000
     21 H8         7.4243    6.6298   -2.4954 H         1 RES1    0.0000
     22 C14        6.0027    7.9004   -1.8658 C.ar      1 RES1    0.0000
     23 H9         6.0024    8.4356   -2.6259 H         1 RES1    0.0000
     24 C15        5.1516    8.1897   -0.8248 C.ar      1 RES1    0.0000
     25 H10        4.5743    8.9153   -0.8886 H         1 RES1    0.0000
     26 C16        2.7443    7.4347    1.3478 C.3       1 RES1    0.0000
     27 C17        2.0956    8.5112    0.4662 C.ar      1 RES1    0.0000
     28 C18        2.0417    9.8130    0.9334 C.ar      1 RES1    0.0000
     29 H11        2.3428   10.0003    1.7931 H         1 RES1    0.0000
     30 C19        1.5540   10.8370    0.1534 C.ar      1 RES1    0.0000
     31 H12        1.5250   11.7081    0.4792 H         1 RES1    0.0000
     32 C20        1.1158   10.5542   -1.0978 C.ar      1 RES1    0.0000
     33 C21        1.1234    9.2769   -1.5909 C.ar      1 RES1    0.0000
     34 H13        0.7985    9.0981   -2.4436 H         1 RES1    0.0000
     35 C22        1.6218    8.2531   -0.8019 C.ar      1 RES1    0.0000
     36 H14        1.6366    7.3837   -1.1307 H         1 RES1    0.0000
     37 C23        2.3727    6.0160    0.9085 C.3       1 RES1    0.0000
     38 H15        1.4058    5.9395    0.9195 H         1 RES1    0.0000
     39 H16        2.6607    5.8985   -0.0100 H         1 RES1    0.0000
     40 C24        2.9400    4.8942    1.7234 C.2       1 RES1    0.0000
     41 C25        3.0016    2.5094    1.8210 C.3       1 RES1    0.0000
     42 H17        2.4789    2.3093    2.6130 H         1 RES1    0.0000
     43 H18        3.9326    2.5889    2.0790 H         1 RES1    0.0000
     44 C26        2.8392    1.4349    0.8129 C.3       1 RES1    0.0000
     45 H19        1.9374    1.4415    0.4802 H         1 RES1    0.0000
     46 H20        3.0211    0.5843    1.2203 H         1 RES1    0.0000
     47 H21        3.4501    1.5806    0.0877 H         1 RES1    0.0000
     48 N1         0.6520   11.6525   -1.9645 N.pl3     1 RES1    0.0000
     49 O1         3.1329    8.1736    4.6827 O.2       1 RES1    0.0000
     50 O2         2.2688    7.6335    2.6984 O.3       1 RES1    0.0000
     51 O3         3.6581    4.9734    2.6568 O.2       1 RES1    0.0000
     52 O4         2.5408    3.7440    1.2133 O.3       1 RES1    0.0000
     53 O5         0.3386   11.3838   -3.1001 O.2       1 RES1    0.0000
     54 O6         0.6171   12.7803   -1.4943 O.2       1 RES1    0.0000
@<TRIPOS>BOND
     1    1    2 1
     2    2    3 1
     3    3    4 ar
     4    4    5 1
     5    6    4 ar
     6    7    6 1
     7    8    6 ar
     8    9    8 1
     9   10    8 ar
    10   11   10 1
    11   12    3 ar
    12   13   12 1
    13   14    2 2
    14   15   14 1
    15   16   15 ar
    16   17   16 1
    17   18   16 ar
    18   19   18 1
    19   20   18 ar
    20   21   20 1
    21   22   20 ar
    22   23   22 1
    23   24   15 ar
    24   25   24 1
    25   26   14 1
    26   27   26 1
    27   28   27 ar
    28   29   28 1
    29   30   28 ar
    30   31   30 1
    31   32   30 ar
    32   33   32 ar
    33   34   33 1
    34   35   27 ar
    35   36   35 1
    36   37   26 1
    37   38   37 1
    38   39   37 1
    39   40   37 1
    40   41   42 1
    41   43   41 1
    42   44   41 1
    43   45   44 1
    44   46   44 1
    45   47   44 1
    46   48   32 1
    47   49    1 2
    48   50    1 1
    49   51   40 2
    50   52   40 1
    51   53   48 2
    52   54   48 2
    53   10   12 ar
    54   22   24 ar
    55   26   50 1
    56   33   35 ar
    57   41   52 1
@<TRIPOS>SUBSTRUCTURE
     1 RES1 1

@<TRIPOS>CRYSIN
  16.6420   13.2490   10.4030  90.0000 106.7470  90.0000  14 1

