# MOL2 file generated by ConQuest
# Please check atom types

@<TRIPOS>MOLECULE
XAKWOV
    57    60     1
SMALL
NO_CHARGES
****
Generated from CSD

@<TRIPOS>ATOM
      1 O1        -1.4521    6.0732   10.3140 O.3       1 RES1    0.0000
      2 C1        -2.5416    5.7590   11.2497 C.3       1 RES1    0.0000
      3 C2        -3.6222    6.2571   10.1751 C.3       1 RES1    0.0000
      4 C3        -2.3886    6.3621    9.2408 C.3       1 RES1    0.0000
      5 H1        -2.4322    5.8234    8.4474 H         1 RES1    0.0000
      6 C4        -2.0733    7.6272    8.4775 C.3       1 RES1    0.0000
      7 H2        -2.8514    7.8379    7.9561 H         1 RES1    0.0000
      8 O2        -1.7666    8.6682    9.4482 O.3       1 RES1    0.0000
      9 C5        -2.1725    9.9056    9.1484 C.2       1 RES1    0.0000
     10 O3        -2.7495   10.2117    8.1349 O.2       1 RES1    0.0000
     11 C6        -1.8324   10.8768   10.2387 C.ar      1 RES1    0.0000
     12 C7        -1.3645   10.4476   11.4756 C.ar      1 RES1    0.0000
     13 H3        -1.2404    9.5092   11.6359 H         1 RES1    0.0000
     14 C8        -1.0953   11.3744   12.4682 C.ar      1 RES1    0.0000
     15 H4        -0.7978   11.0965   13.3377 H         1 RES1    0.0000
     16 C9        -1.2764   12.7071   12.1854 C.ar      1 RES1    0.0000
     17 C10       -1.7395   13.1533   10.9672 C.ar      1 RES1    0.0000
     18 H5        -1.8558   14.0927   10.8076 H         1 RES1    0.0000
     19 C11       -2.0254   12.2222    9.9985 C.ar      1 RES1    0.0000
     20 H6        -2.3649   12.5044    9.1461 H         1 RES1    0.0000
     21 N1        -0.9676   13.7017   13.2279 N.pl3     1 RES1    0.0000
     22 O4        -0.6980   13.3011   14.3535 O.2       1 RES1    0.0000
     23 O5        -1.0042   14.8815   12.9364 O.2       1 RES1    0.0000
     24 C12       -2.5587    4.2642   11.5496 C.ar      1 RES1    0.0000
     25 C13       -1.5264    3.4469   11.1277 C.ar      1 RES1    0.0000
     26 H7        -0.8044    3.8305   10.6243 H         1 RES1    0.0000
     27 C14       -1.5221    2.0929   11.4247 C.ar      1 RES1    0.0000
     28 H8        -0.8012    1.5369   11.1200 H         1 RES1    0.0000
     29 C15       -2.5472    1.5376   12.1417 C.ar      1 RES1    0.0000
     30 H9        -2.5321    0.6037   12.3636 H         1 RES1    0.0000
     31 C16       -3.5931    2.3404   12.5662 C.ar      1 RES1    0.0000
     32 H10       -4.3293    1.9522   13.0446 H         1 RES1    0.0000
     33 C17       -3.5984    3.6869   12.2731 C.ar      1 RES1    0.0000
     34 H11       -4.3175    4.2421   12.5830 H         1 RES1    0.0000
     35 C18       -2.3690    6.5564   12.5189 C.ar      1 RES1    0.0000
     36 C19       -1.1177    7.0357   12.8847 C.ar      1 RES1    0.0000
     37 H12       -0.3710    6.8716   12.3039 H         1 RES1    0.0000
     38 C20       -0.9341    7.7477   14.0606 C.ar      1 RES1    0.0000
     39 H13       -0.0584    8.0638   14.2946 H         1 RES1    0.0000
     40 C21       -1.9956    8.0076   14.8887 C.ar      1 RES1    0.0000
     41 H14       -1.8654    8.4999   15.7024 H         1 RES1    0.0000
     42 C22       -3.2420    7.5443   14.5596 C.ar      1 RES1    0.0000
     43 H15       -3.9883    7.7331   15.1332 H         1 RES1    0.0000
     44 C23       -3.4394    6.8109   13.3828 C.ar      1 RES1    0.0000
     45 H16       -4.3126    6.4785   13.1620 H         1 RES1    0.0000
     46 C24       -4.6306    5.2273    9.6987 C.3       1 RES1    0.0000
     47 H17       -4.1764    4.4015    9.5161 H         1 RES1    0.0000
     48 H18       -5.0548    5.5432    8.8975 H         1 RES1    0.0000
     49 H19       -5.2944    5.0842   10.3773 H         1 RES1    0.0000
     50 C25       -4.3344    7.5747   10.4874 C.3       1 RES1    0.0000
     51 H20       -3.6888    8.2171   10.7911 H         1 RES1    0.0000
     52 H21       -4.9970    7.4403   11.1687 H         1 RES1    0.0000
     53 H22       -4.7574    7.8993    9.6891 H         1 RES1    0.0000
     54 C26       -0.9118    7.4955    7.5208 C.3       1 RES1    0.0000
     55 H23       -1.0999    6.8181    6.8671 H         1 RES1    0.0000
     56 H24       -0.1241    7.2544    8.0138 H         1 RES1    0.0000
     57 H25       -0.7682    8.3355    7.0789 H         1 RES1    0.0000
@<TRIPOS>BOND
     1    1    2 1
     2    2    3 1
     3    3    4 1
     4    4    1 1
     5    5    4 1
     6    6    4 1
     7    7    6 1
     8    8    6 1
     9    9    8 1
    10   10    9 2
    11   11    9 1
    12   12   11 ar
    13   13   12 1
    14   14   12 ar
    15   15   14 1
    16   16   14 ar
    17   17   16 ar
    18   18   17 1
    19   19   11 ar
    20   20   19 1
    21   21   16 1
    22   22   21 2
    23   23   21 2
    24   24    2 1
    25   25   24 ar
    26   26   25 1
    27   27   25 ar
    28   28   27 1
    29   29   27 ar
    30   30   29 1
    31   31   29 ar
    32   32   31 1
    33   33   24 ar
    34   34   33 1
    35   35    2 1
    36   36   35 ar
    37   37   36 1
    38   38   36 ar
    39   39   38 1
    40   40   38 ar
    41   41   40 1
    42   42   40 ar
    43   43   42 1
    44   44   35 ar
    45   45   44 1
    46   46    3 1
    47   47   46 1
    48   48   46 1
    49   49   46 1
    50   50    3 1
    51   51   50 1
    52   52   50 1
    53   53   50 1
    54   54    6 1
    55   55   54 1
    56   56   54 1
    57   57   54 1
    58   17   19 ar
    59   31   33 ar
    60   42   44 ar
@<TRIPOS>SUBSTRUCTURE
     1 RES1 1

@<TRIPOS>CRYSIN
  10.2770   18.9060   12.5300  90.0000 111.9100  90.0000 231 1

