# MOL2 file generated by ConQuest
# Please check atom types

@<TRIPOS>MOLECULE
XAKZOB
    34    36     1
SMALL
NO_CHARGES
****
Generated from CSD

@<TRIPOS>ATOM
      1 O1         0.8562    3.5152   13.6962 O.3       1 RES1    0.0000
      2 O2         2.9301    2.6225   12.4307 O.2       1 RES1    0.0000
      3 O3         3.9785    4.0205   11.1666 O.2       1 RES1    0.0000
      4 N1         3.0965    3.7540   11.9830 N.pl3     1 RES1    0.0000
      5 C1         2.2545    4.8184   12.4059 C.2       1 RES1    0.0000
      6 H1         2.4591    5.6629   12.0744 H         1 RES1    0.0000
      7 C2         1.2072    4.7418   13.2206 C.2       1 RES1    0.0000
      8 C3        -0.2881    3.2913   14.4191 C.2       1 RES1    0.0000
      9 C4        -1.1067    4.2876   14.7440 C.2       1 RES1    0.0000
     10 H2        -1.8817    4.1173   15.2289 H         1 RES1    0.0000
     11 C5        -0.7827    5.6459   14.3358 C.ar      1 RES1    0.0000
     12 C6         0.3646    5.8800   13.6043 C.ar      1 RES1    0.0000
     13 C7         0.7338    7.1957   13.2565 C.ar      1 RES1    0.0000
     14 H3         1.5265    7.3632   12.8010 H         1 RES1    0.0000
     15 C8        -0.1105    8.2318   13.6092 C.ar      1 RES1    0.0000
     16 H4         0.1111    9.1046   13.3741 H         1 RES1    0.0000
     17 C9        -1.2666    7.9947   14.2999 C.ar      1 RES1    0.0000
     18 H5        -1.8205    8.7086   14.5219 H         1 RES1    0.0000
     19 C10       -1.6288    6.7089   14.6771 C.ar      1 RES1    0.0000
     20 H6        -2.4168    6.5556   15.1473 H         1 RES1    0.0000
     21 C11       -0.4469    1.8465   14.7277 C.ar      1 RES1    0.0000
     22 C12       -1.6035    1.3753   15.3089 C.ar      1 RES1    0.0000
     23 H7        -2.2821    1.9728   15.5277 H         1 RES1    0.0000
     24 C13       -1.7711    0.0213   15.5767 C.ar      1 RES1    0.0000
     25 H8        -2.5544   -0.2753   15.9800 H         1 RES1    0.0000
     26 C14       -0.7844   -0.8856   15.2453 C.ar      1 RES1    0.0000
     27 C15        0.3622   -0.4229   14.6460 C.ar      1 RES1    0.0000
     28 H9         1.0308   -1.0276   14.4191 H         1 RES1    0.0000
     29 C16        0.5510    0.9367   14.3668 C.ar      1 RES1    0.0000
     30 H10        1.3283    1.2305   13.9488 H         1 RES1    0.0000
     31 C17       -0.9691   -2.3617   15.5522 C.3       1 RES1    0.0000
     32 H11       -0.7415   -2.5291   16.4715 H         1 RES1    0.0000
     33 H12       -0.3981   -2.8825   14.9824 H         1 RES1    0.0000
     34 H13       -1.8840   -2.6086   15.4004 H         1 RES1    0.0000
@<TRIPOS>BOND
     1    1    7 1
     2    2    4 2
     3    3    4 2
     4    4    5 1
     5    5    6 1
     6    7    5 2
     7    8    1 1
     8    9    8 2
     9   10    9 1
    10   11    9 1
    11   12    7 1
    12   13   12 ar
    13   14   13 1
    14   15   13 ar
    15   16   15 1
    16   17   15 ar
    17   18   17 1
    18   19   11 ar
    19   20   19 1
    20   21    8 1
    21   22   21 ar
    22   23   22 1
    23   24   22 ar
    24   25   24 1
    25   26   24 ar
    26   27   26 ar
    27   28   27 1
    28   29   21 ar
    29   30   29 1
    30   31   26 1
    31   32   31 1
    32   33   31 1
    33   34   31 1
    34   11   12 ar
    35   17   19 ar
    36   27   29 ar
@<TRIPOS>SUBSTRUCTURE
     1 RES1 1

@<TRIPOS>CRYSIN
   5.8802   14.1927   16.3278  90.0000  90.0000  90.0000  19 1

