# MOL2 file generated by ConQuest
# Please check atom types

@<TRIPOS>MOLECULE
XAMBIY
    40    42     1
SMALL
NO_CHARGES
****
Generated from CSD

@<TRIPOS>ATOM
      1 O1         3.7186    1.7057   11.8543 O.3       1 RES1    0.0000
      2 C1         3.3249    2.2058   13.1102 C.2       1 RES1    0.0000
      3 N1         3.0579    3.5751   13.0866 N.am      1 RES1    0.0000
      4 C2         2.4905    4.2706   11.9274 C.3       1 RES1    0.0000
      5 C3         2.2450    5.6399   12.5403 C.3       1 RES1    0.0000
      6 O2         3.2128    5.7217   13.6253 O.3       1 RES1    0.0000
      7 C4         3.6242    4.4758   13.9655 C.2       1 RES1    0.0000
      8 O3         4.3418    4.2624   14.9054 O.2       1 RES1    0.0000
      9 C5         3.1800    1.3878   14.1390 C.2       1 RES1    0.0000
     10 C6         2.4821    1.7380   15.3971 C.ar      1 RES1    0.0000
     11 C7         3.0731    1.4417   16.6268 C.ar      1 RES1    0.0000
     12 C8         2.3781    1.7295   17.7859 C.ar      1 RES1    0.0000
     13 N2         3.0321    1.4651   19.0721 N.pl3     1 RES1    0.0000
     14 O4         2.3612    1.5415   20.1047 O.2       1 RES1    0.0000
     15 O5         4.2295    1.1873   19.0732 O.2       1 RES1    0.0000
     16 C9         1.1116    2.2802   17.7825 C.ar      1 RES1    0.0000
     17 C10        0.5337    2.5785   16.5573 C.ar      1 RES1    0.0000
     18 C11        1.2105    2.3185   15.3766 C.ar      1 RES1    0.0000
     19 C12        4.9703    2.0556   11.4212 C.2       1 RES1    0.0000
     20 O6         5.7755    2.5779   12.1406 O.2       1 RES1    0.0000
     21 C13        5.1626    1.7011    9.9890 C.ar      1 RES1    0.0000
     22 C14        6.4041    1.9325    9.4067 C.ar      1 RES1    0.0000
     23 C15        6.6122    1.6363    8.0702 C.ar      1 RES1    0.0000
     24 C16        5.5932    1.0857    7.3154 C.ar      1 RES1    0.0000
     25 C17        4.3554    0.8405    7.8944 C.ar      1 RES1    0.0000
     26 C18        4.1373    1.1604    9.2224 C.ar      1 RES1    0.0000
     27 H1         3.1024    4.2788   11.1502 H         1 RES1    0.0000
     28 H2         1.6261    3.8376   11.6965 H         1 RES1    0.0000
     29 H3         1.3371    5.6982   12.9247 H         1 RES1    0.0000
     30 H4         2.3953    6.3545   11.8616 H         1 RES1    0.0000
     31 H5         3.5610    0.5034   14.0724 H         1 RES1    0.0000
     32 H6         3.9514    1.0582   16.6526 H         1 RES1    0.0000
     33 H7         0.6463    2.4493   18.6099 H         1 RES1    0.0000
     34 H8        -0.3583    2.9797   16.5288 H         1 RES1    0.0000
     35 H9         0.8076    2.5074   14.5302 H         1 RES1    0.0000
     36 H10        7.1028    2.3261    9.9515 H         1 RES1    0.0000
     37 H11        7.4301    1.8106    7.6758 H         1 RES1    0.0000
     38 H12        5.7324    0.8687    6.3965 H         1 RES1    0.0000
     39 H13        3.6624    0.4357    7.3634 H         1 RES1    0.0000
     40 H14        3.2967    1.0068    9.6076 H         1 RES1    0.0000
@<TRIPOS>BOND
     1    1    2 1
     2    2    3 1
     3    3    4 1
     4    4    5 1
     5    5    6 1
     6    6    7 1
     7    7    3 1
     8    8    7 2
     9    9    2 2
    10   10    9 1
    11   11   10 ar
    12   12   11 ar
    13   13   12 1
    14   14   13 2
    15   15   13 2
    16   16   12 ar
    17   17   16 ar
    18   18   10 ar
    19   19    1 1
    20   20   19 2
    21   21   19 1
    22   22   21 ar
    23   23   22 ar
    24   24   23 ar
    25   25   24 ar
    26   26   21 ar
    27   27    4 1
    28   28    4 1
    29   29    5 1
    30   30    5 1
    31   31    9 1
    32   32   11 1
    33   33   16 1
    34   34   17 1
    35   35   18 1
    36   36   22 1
    37   37   23 1
    38   38   24 1
    39   39   25 1
    40   40   26 1
    41   17   18 ar
    42   25   26 ar
@<TRIPOS>SUBSTRUCTURE
     1 RES1 1

@<TRIPOS>CRYSIN
   6.0115   13.5318   19.6570  90.0000  91.3690  90.0000 231 1

