# MOL2 file generated by ConQuest
# Please check atom types

@<TRIPOS>MOLECULE
XAMLOO
   150   129     4
SMALL
NO_CHARGES
****
Generated from CSD

@<TRIPOS>ATOM
      1 C1         7.9829    0.7838   10.9766 C.3       1 RES1    0.0000
      2 H1         7.9975    0.6053    9.9928 H         1 RES1    0.0000
      3 O1         9.3093    0.6396   11.4987 O.3       1 RES1    0.0000
      4 C2         9.3733   -0.6193   12.1437 C.3       1 RES1    0.0000
      5 H2        10.1823   -1.1272   11.8445 H         1 RES1    0.0000
      6 C3         9.3895   -0.4246   13.6450 C.3       1 RES1    0.0000
      7 H3         8.6695    0.2201   13.8970 H         1 RES1    0.0000
      8 C4         9.1707   -1.7358   14.3997 C.3       1 RES1    0.0000
      9 H4         9.8182   -2.4100   14.0479 H         1 RES1    0.0000
     10 C5         7.7480   -2.2154   14.0614 C.3       1 RES1    0.0000
     11 H5         7.5895   -3.0849   14.5290 H         1 RES1    0.0000
     12 C6         7.6268   -2.4488   12.5615 C.3       1 RES1    0.0000
     13 H6         8.2036   -3.2373   12.3472 H         1 RES1    0.0000
     14 C7         8.1047   -1.3162   11.6814 C.3       1 RES1    0.0000
     15 H7         8.2481   -1.6663   10.7556 H         1 RES1    0.0000
     16 O2         7.2013   -0.2114   11.6182 O.3       1 RES1    0.0000
     17 C8         7.4312    2.1537   11.2179 C.3       1 RES1    0.0000
     18 H8         7.3569    2.3044   12.2030 H         1 RES1    0.0000
     19 C9         6.0579    2.2604   10.5993 C.3       1 RES1    0.0000
     20 H9         6.0870    1.9234    9.6788 H         1 RES1    0.0000
     21 H10        5.7731    3.1971   10.5952 H         1 RES1    0.0000
     22 H11        5.4220    1.7284   11.1222 H         1 RES1    0.0000
     23 C10        8.3751    3.1972   10.6276 C.3       1 RES1    0.0000
     24 H12        9.2674    3.0912   11.0184 H         1 RES1    0.0000
     25 H13        8.0355    4.0948   10.8270 H         1 RES1    0.0000
     26 H14        8.4284    3.0776    9.6559 H         1 RES1    0.0000
     27 N1        10.7211    0.1647   14.0083 N.pl3     1 RES1    0.0000
     28 O3        10.7663    1.3127   14.4284 O.2       1 RES1    0.0000
     29 O4        11.7078   -0.5458   13.8547 O.2       1 RES1    0.0000
     30 C11        9.3872   -1.6046   15.8551 C.2       1 RES1    0.0000
     31 O5         9.9380   -2.7211   16.4387 O.3       1 RES1    0.0000
     32 C12        9.9869   -2.4495   17.7701 C.2       1 RES1    0.0000
     33 H15       10.2725   -3.0580   18.4413 H         1 RES1    0.0000
     34 C13        9.5688   -1.1929   17.9925 C.2       1 RES1    0.0000
     35 H16        9.5444   -0.7592   18.8375 H         1 RES1    0.0000
     36 C14        9.1560   -0.5984   16.7176 C.2       1 RES1    0.0000
     37 H17        8.8150    0.2714   16.5451 H         1 RES1    0.0000
     38 O6         6.7908   -1.2817   14.5196 O.3       1 RES1    0.0000
     39 H18        6.5227   -1.6260   15.2285 H         1 RES1    0.0000
     40 O7         6.3075   -2.7969   12.1724 O.3       1 RES1    0.0000
     41 H19        6.1939   -3.6097   12.5736 H         1 RES1    0.0000
     42 C15        6.9241   10.1456    4.3704 C.3       2 RES2    0.0000
     43 H20        6.6611    9.2082    4.1413 H         2 RES2    0.0000
     44 O8         6.4015   10.4833    5.6787 O.3       2 RES2    0.0000
     45 C16        5.2522   11.2863    5.4930 C.3       2 RES2    0.0000
     46 H21        4.4897   10.9390    6.0388 H         2 RES2    0.0000
     47 C17        5.5774   12.7271    5.8790 C.3       2 RES2    0.0000
     48 H22        6.4874   12.9552    5.5321 H         2 RES2    0.0000
     49 C18        4.5740   13.7222    5.3071 C.3       2 RES2    0.0000
     50 H23        3.6553   13.4254    5.5671 H         2 RES2    0.0000
     51 C19        4.7009   13.6163    3.7680 C.3       2 RES2    0.0000
     52 H24        4.1201   14.3133    3.3503 H         2 RES2    0.0000
     53 C20        4.2023   12.2506    3.3395 C.3       2 RES2    0.0000
     54 H25        3.2379   12.1739    3.5942 H         2 RES2    0.0000
     55 C21        4.9587   11.1337    4.0040 C.3       2 RES2    0.0000
     56 H26        4.4807   10.2692    3.8475 H         2 RES2    0.0000
     57 O9         6.2849   11.0422    3.4799 O.3       2 RES2    0.0000
     58 C22        8.4059   10.2745    4.2896 C.3       2 RES2    0.0000
     59 H27        8.6488   11.2206    4.4567 H         2 RES2    0.0000
     60 H28        9.1059   10.3263    5.2289 Du        4 SUP4    0.0000
     61 C23        8.8755    9.9042    2.8921 C.3       2 RES2    0.0000
     62 H29        8.5428   10.5650    2.2492 H         2 RES2    0.0000
     63 H30        8.5312    9.0168    2.6562 H         2 RES2    0.0000
     64 H31        9.8558    9.8900    2.8692 H         2 RES2    0.0000
     65 C24        9.0873    9.4356    5.2990 C.3       2 RES2    0.0000
     66 H32       10.0564    9.5588    5.2262 H         2 RES2    0.0000
     67 H33        8.8648    8.4938    5.1440 H         2 RES2    0.0000
     68 H34        8.7908    9.6979    6.1952 H         2 RES2    0.0000
     69 C25        8.9016   11.4663    4.8408 Du        4 SUP4    0.0000
     70 H35        8.3774   12.2232    4.5065 Du        4 SUP4    0.0000
     71 H36        9.8396   11.5800    4.5834 Du        4 SUP4    0.0000
     72 H37        8.8344   11.4266    5.8178 Du        4 SUP4    0.0000
     73 N2         5.6077   12.7793    7.3824 N.pl3     2 RES2    0.0000
     74 O10        4.5550   12.6658    7.9755 O.2       2 RES2    0.0000
     75 O11        6.6849   12.8945    7.9282 O.2       2 RES2    0.0000
     76 C26        4.7627   15.1221    5.7733 C.2       2 RES2    0.0000
     77 O12        3.9217   15.5521    6.7746 O.3       2 RES2    0.0000
     78 C27        4.2266   16.8698    6.9957 C.2       2 RES2    0.0000
     79 H38        3.8526   17.4008    7.6897 H         2 RES2    0.0000
     80 C28        5.0965   17.2931    6.1264 C.2       2 RES2    0.0000
     81 H39        5.4377   18.1771    6.0496 H         2 RES2    0.0000
     82 C29        5.4363   16.1882    5.3232 C.2       2 RES2    0.0000
     83 H40        6.0389   16.1970    4.5888 H         2 RES2    0.0000
     84 O13        3.7753   15.3962    6.6844 Du        4 SUP4    0.0000
     85 C30        3.9812   16.7008    7.0482 Du        4 SUP4    0.0000
     86 H41        3.3599   17.2392    7.5347 Du        4 SUP4    0.0000
     87 C31        5.2042   17.0941    6.6278 Du        4 SUP4    0.0000
     88 H42        5.6037   17.9450    6.7517 Du        4 SUP4    0.0000
     89 C32        5.7751   15.9411    5.9404 Du        4 SUP4    0.0000
     90 H43        6.6781   15.8120    5.6736 Du        4 SUP4    0.0000
     91 O14        6.0566   13.8390    3.3512 O.3       2 RES2    0.0000
     92 H44        6.4937   13.0023    3.2613 H         2 RES2    0.0000
     93 O15        4.3101   12.0625    1.9403 O.3       2 RES2    0.0000
     94 H45        3.6357   12.4692    1.5768 H         2 RES2    0.0000
     95 C33        3.0497    3.5209    3.2492 C.3       3 RES3    0.0000
     96 H46        2.0659    3.4069    3.1063 H         3 RES3    0.0000
     97 O16        3.3935    4.9247    3.1931 O.3       3 RES3    0.0000
     98 C34        4.1224    5.1323    1.9810 C.3       3 RES3    0.0000
     99 H47        3.8017    5.9580    1.5161 H         3 RES3    0.0000
    100 C35        5.6098    5.2305    2.2735 C.3       3 RES3    0.0000
    101 H48        5.8780    4.4807    2.8759 H         3 RES3    0.0000
    102 C36        6.4339    5.1653    0.9838 C.3       3 RES3    0.0000
    103 H49        6.0492    5.8264    0.3396 H         3 RES3    0.0000
    104 C37        6.2240    3.7586    0.3976 C.3       3 RES3    0.0000
    105 H50        6.7546    3.6820   -0.4461 H         3 RES3    0.0000
    106 C38        4.7620    3.5593    0.0690 C.3       3 RES3    0.0000
    107 H51        4.5510    4.1498   -0.7089 H         3 RES3    0.0000
    108 C39        3.7904    3.9008    1.1671 C.3       3 RES3    0.0000
    109 H52        2.8744    3.9987    0.7776 H         3 RES3    0.0000
    110 O17        3.7631    2.9059    2.1951 O.3       3 RES3    0.0000
    111 C40        3.4510    2.9092    4.5685 C.3       3 RES3    0.0000
    112 H53        4.4316    3.0438    4.7100 H         3 RES3    0.0000
    113 C41        2.6791    3.5931    5.7033 C.3       3 RES3    0.0000
    114 H54        2.9748    4.5245    5.7841 H         3 RES3    0.0000
    115 H55        2.8505    3.1226    6.5455 H         3 RES3    0.0000
    116 H56        1.7198    3.5713    5.5065 H         3 RES3    0.0000
    117 C42        3.1501    1.4170    4.5322 C.3       3 RES3    0.0000
    118 H57        2.1992    1.2799    4.3367 H         3 RES3    0.0000
    119 H58        3.3654    1.0194    5.4014 H         3 RES3    0.0000
    120 H59        3.6913    0.9921    3.8354 H         3 RES3    0.0000
    121 N3         5.8620    6.5420    2.9662 N.pl3     3 RES3    0.0000
    122 O18        5.6279    7.5677    2.3467 O.2       3 RES3    0.0000
    123 O19        6.3920    6.5249    4.0766 O.2       3 RES3    0.0000
    124 C43        7.8661    5.5038    1.1859 C.2       3 RES3    0.0000
    125 O20        8.2988    6.6776    0.6267 O.3       3 RES3    0.0000
    126 C44        9.6446    6.7683    0.8895 C.2       3 RES3    0.0000
    127 H60       10.1978    7.4896    0.6105 H         3 RES3    0.0000
    128 C45       10.0689    5.7295    1.5754 C.2       3 RES3    0.0000
    129 H61       10.9532    5.5723    1.8867 H         3 RES3    0.0000
    130 C46        8.9398    4.8951    1.7533 C.2       3 RES3    0.0000
    131 H62        8.9337    4.0541    2.1940 H         3 RES3    0.0000
    132 O21        6.6741    2.7635    1.3082 O.3       3 RES3    0.0000
    133 H63        7.3921    2.4215    0.9838 H         3 RES3    0.0000
    134 O22        4.4846    2.2230   -0.3287 O.3       3 RES3    0.0000
    135 H64        5.0685    1.9674   -0.8221 H         3 RES3    0.0000
    136 C47       10.4377   -1.9197   17.8901 Du        4 SUP4    0.0000
    137 C48        9.5809    6.7707    0.9434 Du        4 SUP4    0.0000
    138 C49        9.4492   -1.0296   18.1192 Du        4 SUP4    0.0000
    139 C50        9.8235    5.9437    1.9743 Du        4 SUP4    0.0000
    140 C51        8.7405   -0.9174   16.8416 Du        4 SUP4    0.0000
    141 C52        8.6302    5.1535    2.2007 Du        4 SUP4    0.0000
    142 H65       11.0507   -2.2597   18.5316 Du        4 SUP4    0.0000
    143 H66       10.1772    7.4476    0.6240 Du        4 SUP4    0.0000
    144 H67        9.2467   -0.5755   18.9305 Du        4 SUP4    0.0000
    145 H68       10.6315    5.8852    2.4702 Du        4 SUP4    0.0000
    146 H69        7.9348   -0.4302   16.7149 Du        4 SUP4    0.0000
    147 H70        8.4454    4.5403    2.9015 Du        4 SUP4    0.0000
    148 O23        5.7086    6.5307    4.2195 Du        4 SUP4    0.0000
    149 O24       10.3917   -2.2416   16.5532 Du        4 SUP4    0.0000
    150 O25        8.3637    6.4859    0.4205 Du        4 SUP4    0.0000
@<TRIPOS>BOND
     1    1    2 1
     2    3    1 1
     3    4    3 1
     4    5    4 1
     5    6    4 1
     6    7    6 1
     7    8    6 1
     8    9    8 1
     9   10    8 1
    10   11   10 1
    11   12   10 1
    12   13   12 1
    13   14    4 1
    14   15   14 1
    15   16    1 1
    16   17    1 1
    17   18   17 1
    18   19   17 1
    19   20   19 1
    20   21   19 1
    21   22   19 1
    22   23   17 1
    23   24   23 1
    24   25   23 1
    25   26   23 1
    26   27    6 1
    27   28   27 2
    28   29   27 2
    29   30    8 1
    30   31   30 1
    31   32   31 1
    32   33   32 1
    33   34   32 2
    34   35   34 1
    35   36   30 2
    36   37   36 1
    37   38   10 1
    38   39   38 1
    39   40   12 1
    40   41   40 1
    41   42   43 1
    42   44   42 1
    43   45   44 1
    44   46   45 1
    45   47   45 1
    46   48   47 1
    47   49   47 1
    48   50   49 1
    49   51   49 1
    50   52   51 1
    51   53   51 1
    52   54   53 1
    53   55   45 1
    54   56   55 1
    55   57   42 1
    56   58   42 1
    57   59   58 1
    58   61   58 1
    59   62   61 1
    60   63   61 1
    61   64   61 1
    62   65   58 1
    63   66   65 1
    64   67   65 1
    65   68   65 1
    66   73   47 1
    67   74   73 2
    68   75   73 2
    69   76   49 1
    70   77   76 1
    71   78   77 1
    72   79   78 1
    73   80   78 2
    74   81   80 1
    75   82   76 2
    76   83   82 1
    77   91   51 1
    78   92   91 1
    79   93   53 1
    80   94   93 1
    81   95   96 1
    82   97   95 1
    83   98   97 1
    84   99   98 1
    85  100   98 1
    86  101  100 1
    87  102  100 1
    88  103  102 1
    89  104  102 1
    90  105  104 1
    91  106  104 1
    92  107  106 1
    93  108   98 1
    94  109  108 1
    95  110   95 1
    96  111   95 1
    97  112  111 1
    98  113  111 1
    99  114  113 1
   100  115  113 1
   101  116  113 1
   102  117  111 1
   103  118  117 1
   104  119  117 1
   105  120  117 1
   106  121  100 1
   107  122  121 2
   108  123  121 2
   109  124  102 1
   110  125  124 1
   111  126  125 1
   112  127  126 1
   113  128  126 2
   114  129  128 1
   115  130  124 2
   116  131  130 1
   117  132  104 1
   118  133  132 1
   119  134  106 1
   120  135  134 1
   121   12   14 1
   122   14   16 1
   123   34   36 1
   124   53   55 1
   125   55   57 1
   126   80   82 1
   127  106  108 1
   128  108  110 1
   129  128  130 1
@<TRIPOS>SUBSTRUCTURE
     1 RES1 1
     2 RES2 42
     3 RES3 95
     4 SUP4 60

@<TRIPOS>CRYSIN
  13.0630   13.7070   13.9500  99.7130  99.5240  99.3930   2 1

