# MOL2 file generated by ConQuest
# Please check atom types

@<TRIPOS>MOLECULE
XANLAC
    28    30     1
SMALL
NO_CHARGES
****
Generated from CSD

@<TRIPOS>ATOM
      1 O1         6.6262    2.9576   -1.4784 O.2       1 RES1    0.0000
      2 O2         6.1099    0.8887   -1.2913 O.2       1 RES1    0.0000
      3 N1         5.9046    2.0683   -1.0772 N.pl3     1 RES1    0.0000
      4 N2         0.7041    4.6544    1.6155 N.ar      1 RES1    0.0000
      5 N3        -0.5411    2.8477    3.3766 N.ar      1 RES1    0.0000
      6 C1         4.7016    2.4282   -0.3155 C.ar      1 RES1    0.0000
      7 C2         4.2293    3.7045   -0.3779 C.ar      1 RES1    0.0000
      8 H1         4.6716    4.3496   -0.8811 H         1 RES1    0.0000
      9 C3         3.0848    4.0199    0.3169 C.ar      1 RES1    0.0000
     10 H2         2.7484    4.8855    0.2725 H         1 RES1    0.0000
     11 C4         2.4256    3.0698    1.0821 C.ar      1 RES1    0.0000
     12 C5         2.9433    1.7956    1.1311 C.ar      1 RES1    0.0000
     13 H3         2.5175    1.1481    1.6451 H         1 RES1    0.0000
     14 C6         4.0845    1.4656    0.4289 C.ar      1 RES1    0.0000
     15 H4         4.4266    0.6014    0.4627 H         1 RES1    0.0000
     16 C7         1.1888    3.4496    1.8197 C.ar      1 RES1    0.0000
     17 C8         0.5456    2.5602    2.7114 C.ar      1 RES1    0.0000
     18 H5         0.9199    1.7181    2.8322 H         1 RES1    0.0000
     19 C9        -0.4266    4.9941    2.2944 C.ar      1 RES1    0.0000
     20 C10       -0.9969    6.2628    2.0931 C.ar      1 RES1    0.0000
     21 H6        -0.5954    6.8664    1.5101 H         1 RES1    0.0000
     22 C11       -2.1378    6.6084    2.7513 C.ar      1 RES1    0.0000
     23 H7        -2.5090    7.4502    2.6158 H         1 RES1    0.0000
     24 C12       -2.7571    5.7143    3.6270 C.ar      1 RES1    0.0000
     25 H8        -3.5369    5.9646    4.0666 H         1 RES1    0.0000
     26 C13       -2.2328    4.4853    3.8426 C.ar      1 RES1    0.0000
     27 H9        -2.6490    3.9001    4.4341 H         1 RES1    0.0000
     28 C14       -1.0566    4.0907    3.1714 C.ar      1 RES1    0.0000
@<TRIPOS>BOND
     1    1    3 2
     2    2    3 2
     3    3    6 1
     4    4   16 ar
     5    5   17 ar
     6    6    7 ar
     7    7    8 1
     8    9    7 ar
     9   10    9 1
    10   11    9 ar
    11   12   11 ar
    12   13   12 1
    13   14    6 ar
    14   15   14 1
    15   16   11 1
    16   17   16 ar
    17   18   17 1
    18   19    4 ar
    19   20   19 ar
    20   21   20 1
    21   22   20 ar
    22   23   22 1
    23   24   22 ar
    24   25   24 1
    25   26   24 ar
    26   27   26 1
    27   28    5 ar
    28   12   14 ar
    29   19   28 ar
    30   26   28 ar
@<TRIPOS>SUBSTRUCTURE
     1 RES1 1

@<TRIPOS>CRYSIN
   6.3758   12.4522   14.7628  90.0000  79.7020  90.0000  14 1

