# MOL2 file generated by ConQuest
# Please check atom types

@<TRIPOS>MOLECULE
XANXAN
    51    52     1
SMALL
NO_CHARGES
****
Generated from CSD

@<TRIPOS>ATOM
      1 C1         3.4722    4.1220   20.3104 C.ar      1 RES1    0.0000
      2 C2         4.6191    3.7755   19.6716 C.ar      1 RES1    0.0000
      3 C3         5.1489    4.5323   18.5941 C.ar      1 RES1    0.0000
      4 C4         6.3764    4.2429   17.9426 C.ar      1 RES1    0.0000
      5 C5         6.8568    5.0245   16.9296 C.ar      1 RES1    0.0000
      6 H1         7.6794    4.8293   16.5418 H         1 RES1    0.0000
      7 C6         6.1209    6.1078   16.4782 C.ar      1 RES1    0.0000
      8 C7         4.9142    6.4201   17.0446 C.ar      1 RES1    0.0000
      9 C8         4.4126    5.6785   18.1339 C.ar      1 RES1    0.0000
     10 C9         3.2275    6.0345   18.8560 C.ar      1 RES1    0.0000
     11 C10        2.7967    5.2796   19.9082 C.ar      1 RES1    0.0000
     12 H2         2.0332    5.5414   20.3715 H         1 RES1    0.0000
     13 C11        2.9911    3.2862   21.4675 C.3       1 RES1    0.0000
     14 H3         3.2539    2.3580   21.2962 H         1 RES1    0.0000
     15 C12        3.7130    3.7460   22.7165 C.3       1 RES1    0.0000
     16 H4         4.6643    3.7907   22.5313 H         1 RES1    0.0000
     17 H5         3.4140    4.6409   22.9389 H         1 RES1    0.0000
     18 C13        1.4747    3.3214   21.5983 C.3       1 RES1    0.0000
     19 H6         1.2296    3.9888   22.2575 H         1 RES1    0.0000
     20 H7         1.0904    3.5889   20.7487 H         1 RES1    0.0000
     21 C14        5.0158    1.4670   19.3963 C.3       1 RES1    0.0000
     22 H8         5.6378    0.7816   19.6506 H         1 RES1    0.0000
     23 H9         5.1093    1.6536   18.4582 H         1 RES1    0.0000
     24 H10        4.1209    1.1709   19.5776 H         1 RES1    0.0000
     25 C15        8.1567    2.6903   17.5924 C.3       1 RES1    0.0000
     26 H11        8.4838    1.8601   17.9471 H         1 RES1    0.0000
     27 H12        8.8559    3.3471   17.6186 H         1 RES1    0.0000
     28 H13        7.8735    2.5608   16.6847 H         1 RES1    0.0000
     29 C16        7.8280    6.6847   14.9296 C.3       1 RES1    0.0000
     30 H14        8.0234    7.3492   14.2634 H         1 RES1    0.0000
     31 H15        7.8625    5.8127   14.5311 H         1 RES1    0.0000
     32 H16        8.4765    6.7390   15.6353 H         1 RES1    0.0000
     33 C17        4.5008    8.7200   16.8931 C.3       1 RES1    0.0000
     34 H17        3.8970    9.3531   16.4992 H         1 RES1    0.0000
     35 H18        5.4007    8.9333   16.6361 H         1 RES1    0.0000
     36 H19        4.4250    8.7581   17.8498 H         1 RES1    0.0000
     37 C18        1.4987    7.6186   19.2174 C.3       1 RES1    0.0000
     38 H20        1.1428    8.4154   18.8202 H         1 RES1    0.0000
     39 H21        1.8017    7.8138   20.1069 H         1 RES1    0.0000
     40 H22        0.8150    6.9456   19.2521 H         1 RES1    0.0000
     41 N1         3.4955    2.8569   23.8952 N.pl3     1 RES1    0.0000
     42 N2         0.9016    2.0134   21.9980 N.pl3     1 RES1    0.0000
     43 O1         3.8459    3.2795   24.9766 O.2       1 RES1    0.0000
     44 O2         3.0182    1.7535   23.7358 O.2       1 RES1    0.0000
     45 O3         0.0814    1.9953   22.8969 O.2       1 RES1    0.0000
     46 O4         1.2345    1.0177   21.3762 O.2       1 RES1    0.0000
     47 O5         5.2845    2.6541   20.1464 O.3       1 RES1    0.0000
     48 O6         7.0551    3.1386   18.3727 O.3       1 RES1    0.0000
     49 O7         6.5276    6.9132   15.4610 O.3       1 RES1    0.0000
     50 O8         4.1759    7.4101   16.4435 O.3       1 RES1    0.0000
     51 O9         2.5892    7.1455   18.4387 O.3       1 RES1    0.0000
@<TRIPOS>BOND
     1    1    2 ar
     2    2    3 ar
     3    3    4 ar
     4    4    5 ar
     5    5    6 1
     6    7    5 ar
     7    8    7 ar
     8    9    3 ar
     9   10    9 ar
    10   11    1 ar
    11   12   11 1
    12   13    1 1
    13   14   13 1
    14   15   13 1
    15   16   15 1
    16   17   15 1
    17   18   13 1
    18   19   18 1
    19   20   18 1
    20   21   22 1
    21   23   21 1
    22   24   21 1
    23   25   26 1
    24   27   25 1
    25   28   25 1
    26   29   30 1
    27   31   29 1
    28   32   29 1
    29   33   34 1
    30   35   33 1
    31   36   33 1
    32   37   38 1
    33   39   37 1
    34   40   37 1
    35   41   15 1
    36   42   18 1
    37   43   41 2
    38   44   41 2
    39   45   42 2
    40   46   42 2
    41   47    2 1
    42   48    4 1
    43   49    7 1
    44   50    8 1
    45   51   10 1
    46    8    9 ar
    47   10   11 ar
    48   21   47 1
    49   25   48 1
    50   29   49 1
    51   33   50 1
    52   37   51 1
@<TRIPOS>SUBSTRUCTURE
     1 RES1 1

@<TRIPOS>CRYSIN
   6.4729    9.5197   30.4270  90.0000  91.3250  90.0000 231 1

