# MOL2 file generated by ConQuest
# Please check atom types

@<TRIPOS>MOLECULE
XAPFIF
    41    44     1
SMALL
NO_CHARGES
****
Generated from CSD

@<TRIPOS>ATOM
      1 O1         1.2999    5.1692    2.6718 O.3       1 RES1    0.0000
      2 O2        -1.0215    5.7375    4.4956 O.2       1 RES1    0.0000
      3 N1         2.6231    4.9758    3.1761 N.2       1 RES1    0.0000
      4 N2        -0.0435    3.2555    2.2419 N.am      1 RES1    0.0000
      5 O3        -2.0471    2.7665    1.1800 O.2       1 RES1    0.0000
      6 O4        -1.4832   -0.5347    2.1790 O.2       1 RES1    0.0000
      7 N3        -1.8635    4.4310    2.7862 N.am      1 RES1    0.0000
      8 C1         1.1943    3.6094    4.4234 C.3       1 RES1    0.0000
      9 H1         0.8602    3.9527    5.2909 H         1 RES1    0.0000
     10 H2         1.1606    2.6203    4.4282 H         1 RES1    0.0000
     11 N4        -0.8725    0.4508    2.5719 N.pl3     1 RES1    0.0000
     12 O5        -1.1912    1.1005    3.5696 O.2       1 RES1    0.0000
     13 C2        -0.8959    4.9100    3.6291 C.2       1 RES1    0.0000
     14 C3         0.3403    0.8441    1.8419 C.ar      1 RES1    0.0000
     15 C4         2.3100    0.1109    0.7046 C.ar      1 RES1    0.0000
     16 H3         2.8494   -0.5881    0.3531 H         1 RES1    0.0000
     17 C5         5.0587    4.0702    4.3799 C.ar      1 RES1    0.0000
     18 H4         5.1391    4.6345    3.6201 H         1 RES1    0.0000
     19 C6         1.0964   -0.1858    1.3011 C.ar      1 RES1    0.0000
     20 H5         0.7859   -1.0826    1.3401 H         1 RES1    0.0000
     21 C7         0.4122    4.1896    3.2531 C.3       1 RES1    0.0000
     22 C8         2.5815    4.1148    4.1266 C.2       1 RES1    0.0000
     23 C9         1.9446    2.4602    1.1027 C.ar      1 RES1    0.0000
     24 H6         2.2264    3.3613    0.9970 H         1 RES1    0.0000
     25 C10        0.7365    2.1823    1.7414 C.ar      1 RES1    0.0000
     26 C11        6.0834    2.8035    6.1482 C.ar      1 RES1    0.0000
     27 H7         6.8642    2.4856    6.5838 H         1 RES1    0.0000
     28 C12       -1.3872    3.4023    1.9692 C.2       1 RES1    0.0000
     29 C13        3.7901    3.6892    4.8372 C.ar      1 RES1    0.0000
     30 C14        3.6813    2.8841    5.9737 C.ar      1 RES1    0.0000
     31 H8         2.8257    2.6359    6.3029 H         1 RES1    0.0000
     32 C15        6.1963    3.6270    5.0331 C.ar      1 RES1    0.0000
     33 H9         7.0555    3.8853    4.7191 H         1 RES1    0.0000
     34 C16        2.7390    1.4266    0.6176 C.ar      1 RES1    0.0000
     35 H10        3.5815    1.6231    0.2238 H         1 RES1    0.0000
     36 C17        4.8326    2.4476    6.6216 C.ar      1 RES1    0.0000
     37 H11        4.7596    1.9008    7.3944 H         1 RES1    0.0000
     38 C18       -3.2550    4.8588    2.7937 C.3       1 RES1    0.0000
     39 H12       -3.6717    4.6295    1.9369 H         1 RES1    0.0000
     40 H13       -3.2985    5.8288    2.9289 H         1 RES1    0.0000
     41 H14       -3.7317    4.4061    3.5207 H         1 RES1    0.0000
@<TRIPOS>BOND
     1    1    3 1
     2    2   13 2
     3    3   22 2
     4    4   21 1
     5    5   28 2
     6    6   11 2
     7    7   13 1
     8    8    9 1
     9   10    8 1
    10   11   12 2
    11   13   21 1
    12   14   11 1
    13   15   16 1
    14   17   18 1
    15   19   14 ar
    16   20   19 1
    17   21    1 1
    18   22    8 1
    19   23   24 1
    20   25    4 1
    21   26   27 1
    22   28    4 1
    23   29   17 ar
    24   30   29 ar
    25   31   30 1
    26   32   17 ar
    27   33   32 1
    28   34   15 ar
    29   35   34 1
    30   36   26 ar
    31   37   36 1
    32   38    7 1
    33   39   38 1
    34   40   38 1
    35   41   38 1
    36    7   28 1
    37    8   21 1
    38   14   25 ar
    39   15   19 ar
    40   22   29 1
    41   23   25 ar
    42   23   34 ar
    43   26   32 ar
    44   30   36 ar
@<TRIPOS>SUBSTRUCTURE
     1 RES1 1

@<TRIPOS>CRYSIN
  15.8125    8.2142   24.8634  90.0000  90.0000  90.0000  61 1

