# MOL2 file generated by ConQuest
# Please check atom types

@<TRIPOS>MOLECULE
XAPKEG
    25    25     1
SMALL
NO_CHARGES
****
Generated from CSD

@<TRIPOS>ATOM
      1 C1        -0.5731    2.5946    4.9017 C.2       1 RES1    0.0000
      2 C2        -1.6400    1.6002    4.5737 C.2       1 RES1    0.0000
      3 C3        -2.8615   -0.2925    5.2591 C.3       1 RES1    0.0000
      4 H1        -3.7083    0.1417    5.1288 H         1 RES1    0.0000
      5 H2        -2.9204   -0.8890    6.0076 H         1 RES1    0.0000
      6 H3        -2.6325   -0.7885    4.4707 H         1 RES1    0.0000
      7 O1        -1.8434    0.7027    5.5149 O.3       1 RES1    0.0000
      8 O2        -2.2470    1.6347    3.5435 O.2       1 RES1    0.0000
      9 N1         0.1360    2.3392    5.9375 N.2       1 RES1    0.0000
     10 O3         1.0935    3.3171    6.1702 O.3       1 RES1    0.0000
     11 C4         1.7947    3.0043    7.3806 C.3       1 RES1    0.0000
     12 H4         1.1820    3.0226    8.1193 H         1 RES1    0.0000
     13 H5         2.4895    3.6513    7.5242 H         1 RES1    0.0000
     14 H6         2.1836    2.1284    7.3084 H         1 RES1    0.0000
     15 C5         0.6622    3.9394    3.2000 C.ar      1 RES1    0.0000
     16 H7         1.3486    3.3138    3.2260 H         1 RES1    0.0000
     17 C6        -0.4438    3.7830    4.0053 C.ar      1 RES1    0.0000
     18 C7        -1.4569    4.7163    3.9605 C.ar      1 RES1    0.0000
     19 H8        -2.2113    4.6073    4.4931 H         1 RES1    0.0000
     20 C8        -0.2584    5.9684    2.3184 C.ar      1 RES1    0.0000
     21 H9        -0.1969    6.7022    1.7507 H         1 RES1    0.0000
     22 C9        -1.3568    5.8163    3.1265 C.ar      1 RES1    0.0000
     23 H10       -2.0348    6.4523    3.1131 H         1 RES1    0.0000
     24 C10        0.7517    5.0353    2.3478 C.ar      1 RES1    0.0000
     25 H11        1.4946    5.1355    1.7977 H         1 RES1    0.0000
@<TRIPOS>BOND
     1    1    2 1
     2    2    7 1
     3    3    4 1
     4    5    3 1
     5    6    3 1
     6    7    3 1
     7    8    2 2
     8    9    1 2
     9   10    9 1
    10   11   10 1
    11   12   11 1
    12   13   11 1
    13   14   11 1
    14   15   16 1
    15   17    1 1
    16   18   17 ar
    17   19   18 1
    18   20   21 1
    19   22   18 ar
    20   23   22 1
    21   24   15 ar
    22   25   24 1
    23   15   17 ar
    24   20   22 ar
    25   20   24 ar
@<TRIPOS>SUBSTRUCTURE
     1 RES1 1

@<TRIPOS>CRYSIN
   5.6386   25.7679    7.2748  90.0000 105.5530  90.0000 231 1

