# MOL2 file generated by ConQuest
# Please check atom types

@<TRIPOS>MOLECULE
XAPKOQ
   110   110     5
SMALL
NO_CHARGES
****
Generated from CSD

@<TRIPOS>ATOM
      1 O1         5.5227   11.1128    4.4186 O.3       1 RES1    0.0000
      2 H1         5.7668   11.2721    3.6513 H         1 RES1    0.0000
      3 N1         4.5216   10.5504    6.7044 N.2       1 RES1    0.0000
      4 O2         3.5054   11.2306    3.4818 O.2       1 RES1    0.0000
      5 C1         2.1634   10.6232    5.9362 C.ar      1 RES1    0.0000
      6 C2         4.2256   11.0398    4.4540 C.2       1 RES1    0.0000
      7 C3         3.6346   10.7123    5.7895 C.2       1 RES1    0.0000
      8 O3         3.9554   10.2795    7.9409 O.3       1 RES1    0.0000
      9 C4         1.5823    9.4761    6.4604 C.ar      1 RES1    0.0000
     10 H2         2.1164    8.7603    6.7166 H         1 RES1    0.0000
     11 C5         1.3488   11.6682    5.5474 C.ar      1 RES1    0.0000
     12 H3         1.7221   12.4349    5.1765 H         1 RES1    0.0000
     13 C6        -0.5884   10.4444    6.2392 C.ar      1 RES1    0.0000
     14 H4        -1.5099   10.3887    6.3520 H         1 RES1    0.0000
     15 C7         0.2119    9.3987    6.5997 C.ar      1 RES1    0.0000
     16 H5        -0.1717    8.6249    6.9430 H         1 RES1    0.0000
     17 C8        -0.0250   11.5768    5.7098 C.ar      1 RES1    0.0000
     18 H6        -0.5673   12.2884    5.4579 H         1 RES1    0.0000
     19 C9         4.9985   10.2239    8.9084 C.3       1 RES1    0.0000
     20 H7         5.6300    9.5441    8.6596 H         1 RES1    0.0000
     21 H8         4.6264   10.0148    9.7685 H         1 RES1    0.0000
     22 H9         5.4426   11.0741    8.9494 H         1 RES1    0.0000
     23 N2         8.3732    3.0459    1.1745 N.2       2 RES2    0.0000
     24 O4         9.3481    3.6013   -1.1335 O.3       2 RES2    0.0000
     25 H10        9.5790    3.8464   -1.8814 H         2 RES2    0.0000
     26 O5         7.3128    3.8283   -2.0083 O.2       2 RES2    0.0000
     27 O6         7.8348    2.7871    2.4259 O.3       2 RES2    0.0000
     28 C10        7.4795    3.3120    0.2977 C.2       2 RES2    0.0000
     29 C11        8.0523    3.6055   -1.0579 C.2       2 RES2    0.0000
     30 C12        6.0045    3.3778    0.4819 C.ar      2 RES2    0.0000
     31 C13        8.9024    2.6586    3.3681 C.3       2 RES2    0.0000
     32 H11        9.5152    1.9854    3.0669 H         2 RES2    0.0000
     33 H12        8.5460    2.4077    4.2224 H         2 RES2    0.0000
     34 H13        9.3616    3.4969    3.4482 H         2 RES2    0.0000
     35 C14        5.2859    2.2566    0.8625 C.ar      2 RES2    0.0000
     36 H14        5.7261    1.4518    1.0107 H         2 RES2    0.0000
     37 C15        3.9143    2.3334    1.0221 C.ar      2 RES2    0.0000
     38 H15        3.4364    1.5753    1.2721 H         2 RES2    0.0000
     39 C16        5.3298    4.5593    0.2701 C.ar      2 RES2    0.0000
     40 H16        5.7973    5.3175    0.0017 H         2 RES2    0.0000
     41 C17        3.2554    3.5082    0.8165 C.ar      2 RES2    0.0000
     42 H17        2.3323    3.5524    0.9224 H         2 RES2    0.0000
     43 C18        3.9622    4.6229    0.4539 C.ar      2 RES2    0.0000
     44 H18        3.5174    5.4319    0.3297 H         2 RES2    0.0000
     45 O7         7.4447   -0.2598    0.8212 O.2       3 RES3    0.0000
     46 N3         8.5742   -0.9738    4.0111 N.2       3 RES3    0.0000
     47 O8         9.5073   -0.4286    1.6523 O.3       3 RES3    0.0000
     48 H19        9.7195   -0.1574    0.9091 H         3 RES3    0.0000
     49 C19        6.2044   -0.6466    3.3445 C.ar      3 RES3    0.0000
     50 O9         8.0251   -1.2337    5.2606 O.3       3 RES3    0.0000
     51 C20        7.6700   -0.7230    3.1269 C.2       3 RES3    0.0000
     52 C21        8.2036   -0.4536    1.7514 C.2       3 RES3    0.0000
     53 C22        5.6781    0.2685    4.2427 C.ar      3 RES3    0.0000
     54 H20        6.2498    0.8316    4.7136 H         3 RES3    0.0000
     55 C23        9.0762   -1.4523    6.2131 C.3       3 RES3    0.0000
     56 H21        9.5932   -2.2171    5.9490 H         3 RES3    0.0000
     57 H22        8.6949   -1.6069    7.0796 H         3 RES3    0.0000
     58 H23        9.6431   -0.6794    6.2471 H         3 RES3    0.0000
     59 C24        4.3174    0.3549    4.4465 C.ar      3 RES3    0.0000
     60 H24        3.9746    0.9718    5.0516 H         3 RES3    0.0000
     61 C25        5.3405   -1.4672    2.6422 C.ar      3 RES3    0.0000
     62 H25        5.6761   -2.0800    2.0280 H         3 RES3    0.0000
     63 C26        3.4692   -0.4725    3.7531 C.ar      3 RES3    0.0000
     64 H26        2.5509   -0.4193    3.8944 H         3 RES3    0.0000
     65 C27        3.9703   -1.3731    2.8565 C.ar      3 RES3    0.0000
     66 H27        3.3908   -1.9270    2.3859 H         3 RES3    0.0000
     67 O10       -2.1745    2.6117    9.3671 O.2       4 RES4    0.0000
     68 O11       -2.7391    3.9433    5.0240 O.3       4 RES4    0.0000
     69 N4        -3.2795    3.5405    6.2346 N.2       4 RES4    0.0000
     70 C28       -0.9029    3.3744    6.9385 C.ar      4 RES4    0.0000
     71 C29       -2.9163    2.8353    8.4334 C.2       4 RES4    0.0000
     72 C30       -2.3729    3.2804    7.1094 C.2       4 RES4    0.0000
     73 C31        1.0630    4.6653    6.4525 C.ar      4 RES4    0.0000
     74 H28        1.4549    5.4762    6.2221 H         4 RES4    0.0000
     75 O12       -4.2132    2.7187    8.4910 O.3       4 RES4    0.0000
     76 H29       -4.4302    2.4497    9.2341 H         4 RES4    0.0000
     77 C32       -0.1000    2.2639    7.1523 C.ar      4 RES4    0.0000
     78 H30       -0.4834    1.4528    7.3959 H         4 RES4    0.0000
     79 C33       -0.3076    4.5814    6.5861 C.ar      4 RES4    0.0000
     80 H31       -0.8340    5.3330    6.4402 H         4 RES4    0.0000
     81 C34       -3.7972    4.1184    4.0759 C.3       4 RES4    0.0000
     82 H32       -4.2076    3.2690    3.8944 H         4 RES4    0.0000
     83 H33       -3.4404    4.4828    3.2617 H         4 RES4    0.0000
     84 H34       -4.4528    4.7196    4.4356 H         4 RES4    0.0000
     85 C35        1.2693    2.3614    7.0030 C.ar      4 RES4    0.0000
     86 H35        1.8023    1.6108    7.1378 H         4 RES4    0.0000
     87 C36        1.8539    3.5617    6.6565 C.ar      4 RES4    0.0000
     88 H36        2.7775    3.6223    6.5618 H         4 RES4    0.0000
     89 N5        -3.3851    8.0851    2.5373 N.2       5 RES5    0.0000
     90 O13       -4.3542    7.5547    4.8648 O.3       5 RES5    0.0000
     91 H37       -4.5828    7.3767    5.6310 H         5 RES5    0.0000
     92 O14       -2.3180    7.3347    5.7324 O.2       5 RES5    0.0000
     93 C37       -3.0508    7.5548    4.7887 C.2       5 RES5    0.0000
     94 O15       -2.8263    8.3250    1.2964 O.3       5 RES5    0.0000
     95 C38       -2.4939    7.8374    3.4306 C.2       5 RES5    0.0000
     96 C39       -1.0219    7.7999    3.2449 C.ar      5 RES5    0.0000
     97 C40       -0.3322    8.9605    2.9369 C.ar      5 RES5    0.0000
     98 H38       -0.7913    9.7626    2.8338 H         5 RES5    0.0000
     99 C41       -3.8683    8.5085    0.3395 C.3       5 RES5    0.0000
    100 H39       -4.3170    7.6739    0.1915 H         5 RES5    0.0000
    101 H40       -3.4924    8.8204   -0.4862 H         5 RES5    0.0000
    102 H41       -4.4955    9.1557    0.6693 H         5 RES5    0.0000
    103 C42       -0.3251    6.6226    3.3938 C.ar      5 RES5    0.0000
    104 H42       -0.7773    5.8417    3.6147 H         5 RES5    0.0000
    105 C43        1.0370    8.9255    2.7832 C.ar      5 RES5    0.0000
    106 H43        1.4980    9.7068    2.5824 H         5 RES5    0.0000
    107 C44        1.0442    6.5992    3.2148 C.ar      5 RES5    0.0000
    108 H44        1.5077    5.7969    3.2917 H         5 RES5    0.0000
    109 C45        1.7244    7.7528    2.9241 C.ar      5 RES5    0.0000
    110 H45        2.6493    7.7372    2.8238 H         5 RES5    0.0000
@<TRIPOS>BOND
     1    1    2 1
     2    3    7 2
     3    4    6 2
     4    5    7 1
     5    6    1 1
     6    7    6 1
     7    8    3 1
     8    9    5 ar
     9   10    9 1
    10   11    5 ar
    11   12   11 1
    12   13   14 1
    13   15    9 ar
    14   16   15 1
    15   17   11 ar
    16   18   17 1
    17   19    8 1
    18   20   19 1
    19   21   19 1
    20   22   19 1
    21   23   27 1
    22   24   25 1
    23   26   29 2
    24   27   31 1
    25   28   23 2
    26   29   24 1
    27   30   28 1
    28   31   32 1
    29   33   31 1
    30   34   31 1
    31   35   30 ar
    32   36   35 1
    33   37   35 ar
    34   38   37 1
    35   39   30 ar
    36   40   39 1
    37   41   37 ar
    38   42   41 1
    39   43   39 ar
    40   44   43 1
    41   45   52 2
    42   46   50 1
    43   47   48 1
    44   49   51 1
    45   50   55 1
    46   51   46 2
    47   52   47 1
    48   53   49 ar
    49   54   53 1
    50   55   56 1
    51   57   55 1
    52   58   55 1
    53   59   53 ar
    54   60   59 1
    55   61   49 ar
    56   62   61 1
    57   63   59 ar
    58   64   63 1
    59   65   61 ar
    60   66   65 1
    61   67   71 2
    62   68   69 1
    63   69   72 2
    64   70   72 1
    65   71   72 1
    66   73   74 1
    67   75   71 1
    68   76   75 1
    69   77   70 ar
    70   78   77 1
    71   79   70 ar
    72   80   79 1
    73   81   68 1
    74   82   81 1
    75   83   81 1
    76   84   81 1
    77   85   77 ar
    78   86   85 1
    79   87   73 ar
    80   88   87 1
    81   89   94 1
    82   90   91 1
    83   92   93 2
    84   93   90 1
    85   94   99 1
    86   95   89 2
    87   96   95 1
    88   97   96 ar
    89   98   97 1
    90   99  100 1
    91  101   99 1
    92  102   99 1
    93  103   96 ar
    94  104  103 1
    95  105   97 ar
    96  106  105 1
    97  107  103 ar
    98  108  107 1
    99  109  105 ar
   100  110  109 1
   101   13   15 ar
   102   13   17 ar
   103   28   29 1
   104   41   43 ar
   105   51   52 1
   106   63   65 ar
   107   73   79 ar
   108   85   87 ar
   109   93   95 1
   110  107  109 ar
@<TRIPOS>SUBSTRUCTURE
     1 RES1 1
     2 RES2 23
     3 RES3 45
     4 RES4 67
     5 RES5 89

@<TRIPOS>CRYSIN
   8.8229   16.0103   18.0884 106.6190 100.9160 103.9730   2 1

