# MOL2 file generated by ConQuest
# Please check atom types

@<TRIPOS>MOLECULE
XAPKIK
    22    22     1
SMALL
NO_CHARGES
****
Generated from CSD

@<TRIPOS>ATOM
      1 O1        -0.0051    5.5853   13.8956 O.3       1 RES1    0.0000
      2 H1        -0.0047    5.1479   14.5885 H         1 RES1    0.0000
      3 O2         1.4376    6.8355   15.0489 O.2       1 RES1    0.0000
      4 O3        -0.9103    8.5328   14.0296 O.3       1 RES1    0.0000
      5 N1        -0.0628    8.5860   12.9166 N.2       1 RES1    0.0000
      6 C1         0.7545    7.5993   12.9127 C.2       1 RES1    0.0000
      7 C2         0.7277    6.5976   14.0380 C.2       1 RES1    0.0000
      8 C3        -1.8193    9.6208   13.9675 C.3       1 RES1    0.0000
      9 H2        -1.3507   10.4396   14.1453 H         1 RES1    0.0000
     10 H3        -2.5105    9.4974   14.6226 H         1 RES1    0.0000
     11 H4        -2.2108    9.6605   13.0917 H         1 RES1    0.0000
     12 C4         1.7107    7.4457   11.8042 C.ar      1 RES1    0.0000
     13 C5         2.7778    6.5674   11.9042 C.ar      1 RES1    0.0000
     14 H5         2.8847    6.0558   12.6733 H         1 RES1    0.0000
     15 C6         3.6868    6.4464   10.8655 C.ar      1 RES1    0.0000
     16 H6         4.4048    5.8605   10.9425 H         1 RES1    0.0000
     17 C7         2.4743    8.0604    9.6123 C.ar      1 RES1    0.0000
     18 H7         2.3725    8.5648    8.8383 H         1 RES1    0.0000
     19 C8         1.5631    8.1956   10.6384 C.ar      1 RES1    0.0000
     20 H8         0.8507    8.7880   10.5536 H         1 RES1    0.0000
     21 C9         3.5290    7.1901    9.7211 C.ar      1 RES1    0.0000
     22 H9         4.1361    7.1032    9.0212 H         1 RES1    0.0000
@<TRIPOS>BOND
     1    1    2 1
     2    3    7 2
     3    4    5 1
     4    5    6 2
     5    6    7 1
     6    7    1 1
     7    8    4 1
     8    9    8 1
     9   10    8 1
    10   11    8 1
    11   12    6 1
    12   13   12 ar
    13   14   13 1
    14   15   13 ar
    15   16   15 1
    16   17   18 1
    17   19   12 ar
    18   20   19 1
    19   21   15 ar
    20   22   21 1
    21   17   19 ar
    22   17   21 ar
@<TRIPOS>SUBSTRUCTURE
     1 RES1 1

@<TRIPOS>CRYSIN
   5.5752   10.7315   15.6446  90.0000  97.9310  90.0000 231 1

