# MOL2 file generated by ConQuest
# Please check atom types

@<TRIPOS>MOLECULE
XAPPOW
    87    92     1
SMALL
NO_CHARGES
****
Generated from CSD

@<TRIPOS>ATOM
      1 O1         2.1381   -0.0440    2.1288 O.3       1 RES1    0.0000
      2 O2         3.9812   -0.0141    3.4227 O.2       1 RES1    0.0000
      3 O3         2.9333    8.3402    1.0202 O.3       1 RES1    0.0000
      4 O4        -2.8593   10.3133    1.9931 O.2       1 RES1    0.0000
      5 H1         3.4991    9.0245    1.1188 H         1 RES1    0.0000
      6 O5        -1.2297    8.7793    1.9724 O.3       1 RES1    0.0000
      7 N1         1.9068    8.7547    1.8857 N.2       1 RES1    0.0000
      8 C1         2.0913    3.6765    1.6035 C.3       1 RES1    0.0000
      9 H2         2.4430    4.1920    0.8610 H         1 RES1    0.0000
     10 H3         2.5429    3.9703    2.4103 H         1 RES1    0.0000
     11 C2         2.3956    2.1987    1.3726 C.3       1 RES1    0.0000
     12 H4         2.0209    1.9232    0.5219 H         1 RES1    0.0000
     13 H5         3.3560    2.0715    1.3328 H         1 RES1    0.0000
     14 C3         1.8218    1.3383    2.4753 C.3       1 RES1    0.0000
     15 H6         2.2651    1.5640    3.3189 H         1 RES1    0.0000
     16 C4         0.2963    1.4655    2.6609 C.3       1 RES1    0.0000
     17 C5        -0.0062    2.9911    2.8197 C.3       1 RES1    0.0000
     18 H7         0.4499    3.2456    3.6480 H         1 RES1    0.0000
     19 C6        -1.4827    3.3120    3.0803 C.3       1 RES1    0.0000
     20 H8        -1.8535    2.6571    3.6931 H         1 RES1    0.0000
     21 H9        -1.9778    3.2594    2.2476 H         1 RES1    0.0000
     22 C7        -1.6348    4.7167    3.6780 C.3       1 RES1    0.0000
     23 H10       -1.2349    4.7240    4.5616 H         1 RES1    0.0000
     24 H11       -2.5798    4.9105    3.7820 H         1 RES1    0.0000
     25 C8        -0.9884    5.8376    2.8306 C.3       1 RES1    0.0000
     26 C9         0.4247    5.3990    2.3443 C.3       1 RES1    0.0000
     27 H12        0.9769    5.3905    3.1537 H         1 RES1    0.0000
     28 C10        0.5724    3.9590    1.7421 C.3       1 RES1    0.0000
     29 C11        1.0535    6.4810    1.4512 C.3       1 RES1    0.0000
     30 H13        1.9783    6.2467    1.2778 H         1 RES1    0.0000
     31 H14        0.5877    6.4943    0.6007 H         1 RES1    0.0000
     32 C12        1.0062    7.8547    2.0529 C.2       1 RES1    0.0000
     33 C13       -0.1613    8.2970    2.9147 C.3       1 RES1    0.0000
     34 C14       -0.7746    7.1360    3.7463 C.3       1 RES1    0.0000
     35 C15       -2.1141    7.6356    4.3546 C.3       1 RES1    0.0000
     36 H15       -2.8017    7.5951    3.6718 H         1 RES1    0.0000
     37 H16       -2.3746    7.0371    5.0710 H         1 RES1    0.0000
     38 C16       -2.0479    9.0745    4.9085 C.3       1 RES1    0.0000
     39 H17       -1.5639    9.0688    5.7493 H         1 RES1    0.0000
     40 H18       -2.9488    9.3868    5.0872 H         1 RES1    0.0000
     41 C17       -1.3557   10.0571    3.9320 C.3       1 RES1    0.0000
     42 C18        0.0892    9.6258    3.6669 C.3       1 RES1    0.0000
     43 H19        0.4233   10.2475    2.9873 H         1 RES1    0.0000
     44 C19        1.0079    9.8161    4.8720 C.3       1 RES1    0.0000
     45 H20        1.9108    9.5458    4.6417 H         1 RES1    0.0000
     46 H21        0.7036    9.2615    5.6079 H         1 RES1    0.0000
     47 C20        1.0002   11.3050    5.3001 C.3       1 RES1    0.0000
     48 C21       -0.4548   11.7588    5.5428 C.3       1 RES1    0.0000
     49 H22       -0.7981   11.2902    6.3199 H         1 RES1    0.0000
     50 H23       -0.4514   12.7059    5.7505 H         1 RES1    0.0000
     51 C22       -1.4164   11.5195    4.3644 C.3       1 RES1    0.0000
     52 H24       -2.3219   11.7442    4.6305 H         1 RES1    0.0000
     53 H25       -1.1696   12.0913    3.6205 H         1 RES1    0.0000
     54 C23       -0.0732    0.7347    3.9689 C.3       1 RES1    0.0000
     55 H26       -1.0289    0.6864    4.0498 H         1 RES1    0.0000
     56 H27        0.2874    1.2169    4.7168 H         1 RES1    0.0000
     57 H28        0.2924   -0.1529    3.9534 H         1 RES1    0.0000
     58 C24       -0.4672    0.7893    1.5133 C.3       1 RES1    0.0000
     59 H29       -0.1231    1.1007    0.6733 H         1 RES1    0.0000
     60 H30       -1.3997    1.0075    1.5769 H         1 RES1    0.0000
     61 H31       -0.3565   -0.1621    1.5719 H         1 RES1    0.0000
     62 C25       -0.0660    3.8059    0.3390 C.3       1 RES1    0.0000
     63 H32        0.0359    4.6261   -0.1502 H         1 RES1    0.0000
     64 H33       -1.0001    3.6034    0.4330 H         1 RES1    0.0000
     65 H34        0.3703    3.0943   -0.1352 H         1 RES1    0.0000
     66 C26       -1.9468    6.0869    1.6401 C.3       1 RES1    0.0000
     67 H35       -2.1931    5.2468    1.2465 H         1 RES1    0.0000
     68 H36       -1.5068    6.6319    0.9837 H         1 RES1    0.0000
     69 H37       -2.7349    6.5371    1.9523 H         1 RES1    0.0000
     70 C27        0.2082    6.8261    4.9124 C.3       1 RES1    0.0000
     71 H38        1.0994    7.0722    4.6542 H         1 RES1    0.0000
     72 H39        0.1816    5.8874    5.1123 H         1 RES1    0.0000
     73 H40       -0.0501    7.3260    5.6905 H         1 RES1    0.0000
     74 C28       -1.9255    9.7805    2.5573 C.2       1 RES1    0.0000
     75 C29        1.7662   11.4171    6.6251 C.3       1 RES1    0.0000
     76 H41        2.6667   11.1083    6.5014 H         1 RES1    0.0000
     77 H42        1.3317   10.8805    7.2923 H         1 RES1    0.0000
     78 H43        1.7790   12.3328    6.9106 H         1 RES1    0.0000
     79 C30        1.6947   12.1914    4.2618 C.3       1 RES1    0.0000
     80 H44        1.8278   13.0682    4.6280 H         1 RES1    0.0000
     81 H45        1.1475   12.2518    3.4753 H         1 RES1    0.0000
     82 H46        2.5447   11.8085    4.0310 H         1 RES1    0.0000
     83 C31        3.3246   -0.5230    2.5534 C.2       1 RES1    0.0000
     84 C32        3.7244   -1.7324    1.7618 C.3       1 RES1    0.0000
     85 H47        4.1702   -1.4554    0.9586 H         1 RES1    0.0000
     86 H48        2.9417   -2.2397    1.5356 H         1 RES1    0.0000
     87 H49        4.3173   -2.2764    2.2864 H         1 RES1    0.0000
@<TRIPOS>BOND
     1    1   14 1
     2    2   83 2
     3    3    5 1
     4    4   74 2
     5    6   33 1
     6    7    3 1
     7    8    9 1
     8   10    8 1
     9   11    8 1
    10   12   11 1
    11   13   11 1
    12   14   11 1
    13   15   14 1
    14   16   14 1
    15   17   16 1
    16   18   17 1
    17   19   17 1
    18   20   19 1
    19   21   19 1
    20   22   19 1
    21   23   22 1
    22   24   22 1
    23   25   22 1
    24   26   25 1
    25   27   26 1
    26   28    8 1
    27   29   26 1
    28   30   29 1
    29   31   29 1
    30   32    7 2
    31   33   32 1
    32   34   25 1
    33   35   34 1
    34   36   35 1
    35   37   35 1
    36   38   35 1
    37   39   38 1
    38   40   38 1
    39   41   38 1
    40   42   33 1
    41   43   42 1
    42   44   42 1
    43   45   44 1
    44   46   44 1
    45   47   44 1
    46   48   47 1
    47   49   48 1
    48   50   48 1
    49   51   41 1
    50   52   51 1
    51   53   51 1
    52   54   16 1
    53   55   54 1
    54   56   54 1
    55   57   54 1
    56   58   16 1
    57   59   58 1
    58   60   58 1
    59   61   58 1
    60   62   28 1
    61   63   62 1
    62   64   62 1
    63   65   62 1
    64   66   25 1
    65   67   66 1
    66   68   66 1
    67   69   66 1
    68   70   34 1
    69   71   70 1
    70   72   70 1
    71   73   70 1
    72   74    6 1
    73   75   47 1
    74   76   75 1
    75   77   75 1
    76   78   75 1
    77   79   47 1
    78   80   79 1
    79   81   79 1
    80   82   79 1
    81   83    1 1
    82   84   83 1
    83   85   84 1
    84   86   84 1
    85   87   84 1
    86   17   28 1
    87   26   28 1
    88   29   32 1
    89   33   34 1
    90   41   42 1
    91   41   74 1
    92   48   51 1
@<TRIPOS>SUBSTRUCTURE
     1 RES1 1

@<TRIPOS>CRYSIN
   7.4690   15.2880   12.9430  90.0000 104.7800  90.0000   4 1

