# MOL2 file generated by ConQuest
# Please check atom types

@<TRIPOS>MOLECULE
XAPQUD
    27    27     1
SMALL
NO_CHARGES
****
Generated from CSD

@<TRIPOS>ATOM
      1 O1         2.3534    2.3995   14.6863 O.3       1 RES1    0.0000
      2 H1         1.7675    2.9916   14.3521 H         1 RES1    0.0000
      3 O2         0.4624    5.0553   12.5503 O.3       1 RES1    0.0000
      4 H2        -0.2573    5.0990   13.1645 H         1 RES1    0.0000
      5 O3         4.0845    2.9898   10.3196 O.3       1 RES1    0.0000
      6 H3         4.8361    2.7370    9.8592 H         1 RES1    0.0000
      7 O4         6.1384   -0.1112   13.2839 O.3       1 RES1    0.0000
      8 H4         5.9765   -0.4108   14.0562 H         1 RES1    0.0000
      9 O5         7.2261    1.1823    8.8153 O.3       1 RES1    0.0000
     10 H5         7.2555    1.8440    8.1853 H         1 RES1    0.0000
     11 N1         5.0602   -0.3688   15.6523 N.2       1 RES1    0.0000
     12 O6         4.7497   -0.9435   16.9122 O.3       1 RES1    0.0000
     13 H6         5.4695   -1.4779   17.0373 H         1 RES1    0.0000
     14 N2         6.2322    1.6802    9.6744 N.2       1 RES1    0.0000
     15 N3         1.2724    3.9917   12.9740 N.2       1 RES1    0.0000
     16 C1         5.1651    0.8059   13.0336 C.ar      1 RES1    0.0000
     17 C2         3.2365    2.0892   13.7137 C.ar      1 RES1    0.0000
     18 C3         3.1829    2.7040   12.4546 C.ar      1 RES1    0.0000
     19 C4         4.1587    2.3539   11.5019 C.ar      1 RES1    0.0000
     20 C5         4.1740    0.4862   15.3157 C.2       1 RES1    0.0000
     21 H7         3.4732    0.6979   15.9227 H         1 RES1    0.0000
     22 C6         6.1475    1.0162   10.7578 C.2       1 RES1    0.0000
     23 H8         6.7272    0.2795   10.9130 H         1 RES1    0.0000
     24 C7         2.1919    3.7176   12.1381 C.2       1 RES1    0.0000
     25 H9         2.2300    4.1761   11.3062 H         1 RES1    0.0000
     26 C8         4.2200    1.1399   14.0230 C.ar      1 RES1    0.0000
     27 C9         5.1506    1.3967   11.7623 C.ar      1 RES1    0.0000
@<TRIPOS>BOND
     1    1    2 1
     2    3    4 1
     3    5    6 1
     4    7    8 1
     5    9   10 1
     6   11   12 1
     7   12   13 1
     8   14    9 1
     9   15    3 1
    10   16    7 1
    11   17    1 1
    12   18   17 ar
    13   19    5 1
    14   20   11 2
    15   21   20 1
    16   22   14 2
    17   23   22 1
    18   24   15 2
    19   25   24 1
    20   26   16 ar
    21   27   16 ar
    22   17   26 ar
    23   18   19 ar
    24   18   24 1
    25   19   27 ar
    26   20   26 1
    27   22   27 1
@<TRIPOS>SUBSTRUCTURE
     1 RES1 1

@<TRIPOS>CRYSIN
  10.6300    4.4650   20.9610  90.0000 104.8000  90.0000  14 1

