# MOL2 file generated by ConQuest
# Please check atom types

@<TRIPOS>MOLECULE
XAQVIV
    37    37     1
SMALL
NO_CHARGES
****
Generated from CSD

@<TRIPOS>ATOM
      1 O1         1.0324   12.5863    1.8732 O.3       1 RES1    0.0000
      2 O2         2.1891   12.9655    3.7356 O.2       1 RES1    0.0000
      3 O3         1.2418   16.8921    2.9789 O.3       1 RES1    0.0000
      4 N1         1.6456   15.6205    3.3547 N.2       1 RES1    0.0000
      5 C1         1.2032   11.1293    1.9689 C.3       1 RES1    0.0000
      6 C2         1.3606   10.6053    0.5654 C.3       1 RES1    0.0000
      7 C3         1.3958    9.0784    0.6292 C.3       1 RES1    0.0000
      8 C4         0.1917    8.5093    1.3330 C.3       1 RES1    0.0000
      9 C5         0.0544    9.0547    2.7373 C.3       1 RES1    0.0000
     10 C6         0.0062   10.5567    2.6828 C.3       1 RES1    0.0000
     11 C7         1.5565   13.3607    2.7901 C.2       1 RES1    0.0000
     12 C8         1.2205   14.7622    2.5435 C.2       1 RES1    0.0000
     13 C9         2.5253   11.2490   -0.2030 C.3       1 RES1    0.0000
     14 C10        3.8890   10.9587    0.4060 C.3       1 RES1    0.0000
     15 C11        2.5106   10.8548   -1.6702 C.3       1 RES1    0.0000
     16 C12       -1.1567    8.4743    3.4520 C.3       1 RES1    0.0000
     17 H1         1.9954   10.9994    2.4579 H         1 RES1    0.0000
     18 H2         0.5681   10.8413    0.0587 H         1 RES1    0.0000
     19 H3         2.2623    8.8876    1.1073 H         1 RES1    0.0000
     20 H4         1.4657    8.6617   -0.2684 H         1 RES1    0.0000
     21 H5        -0.5894    8.7972    0.7802 H         1 RES1    0.0000
     22 H6         0.2914    7.5663    1.4177 H         1 RES1    0.0000
     23 H7         0.8519    8.8424    3.2045 H         1 RES1    0.0000
     24 H8        -0.8455   10.8865    2.1895 H         1 RES1    0.0000
     25 H9        -0.0990   10.9090    3.5401 H         1 RES1    0.0000
     26 H10        0.7898   15.0084    1.6778 H         1 RES1    0.0000
     27 H11        2.3795   12.2755   -0.1342 H         1 RES1    0.0000
     28 H12        4.6192   11.3946   -0.1678 H         1 RES1    0.0000
     29 H13        3.9471   11.2478    1.3925 H         1 RES1    0.0000
     30 H14        3.9787    9.9040    0.3104 H         1 RES1    0.0000
     31 H15        1.7005   10.9655   -2.1224 H         1 RES1    0.0000
     32 H16        3.1900   11.3156   -2.1643 H         1 RES1    0.0000
     33 H17        2.7453    9.8023   -1.5939 H         1 RES1    0.0000
     34 H18       -2.0738    8.7295    2.9529 H         1 RES1    0.0000
     35 H19       -1.0596    7.4760    3.5569 H         1 RES1    0.0000
     36 H20       -1.1131    8.7069    4.4293 H         1 RES1    0.0000
     37 H21        1.5854   17.4703    3.5233 H         1 RES1    0.0000
@<TRIPOS>BOND
     1    1    5 1
     2    2   11 2
     3    3    4 1
     4    4   12 2
     5    5    6 1
     6    6    7 1
     7    7    8 1
     8    8    9 1
     9    9   10 1
    10   10    5 1
    11   11    1 1
    12   12   11 1
    13   13    6 1
    14   14   13 1
    15   15   13 1
    16   16    9 1
    17   17    5 1
    18   18    6 1
    19   19    7 1
    20   20    7 1
    21   21    8 1
    22   22    8 1
    23   23    9 1
    24   24   10 1
    25   25   10 1
    26   26   12 1
    27   27   13 1
    28   28   14 1
    29   29   14 1
    30   30   14 1
    31   31   15 1
    32   32   15 1
    33   33   15 1
    34   34   16 1
    35   35   16 1
    36   36   16 1
    37   37    3 1
@<TRIPOS>SUBSTRUCTURE
     1 RES1 1

@<TRIPOS>CRYSIN
   7.2380   11.2930    8.7830  90.0000 107.2300  90.0000   4 1

