# MOL2 file generated by ConQuest
# Please check atom types

@<TRIPOS>MOLECULE
XARBUN
    36    37     1
SMALL
NO_CHARGES
****
Generated from CSD

@<TRIPOS>ATOM
      1 N1         3.5927    8.7811    1.7924 N.pl3     1 RES1    0.0000
      2 N2         5.5797    8.7911    0.9323 N.pl3     1 RES1    0.0000
      3 O1         6.1140    1.7691    2.4341 O.2       1 RES1    0.0000
      4 O2         6.7594    8.4254    0.5895 O.2       1 RES1    0.0000
      5 O3         2.5030    8.3814    2.3283 O.2       1 RES1    0.0000
      6 C1         5.4855    2.5846    3.0421 C.2       1 RES1    0.0000
      7 C2         5.2594    3.9806    2.6265 C.ar      1 RES1    0.0000
      8 C3         4.4949    4.8109    3.4062 C.ar      1 RES1    0.0000
      9 C4         4.2543    6.1100    3.0174 C.ar      1 RES1    0.0000
     10 C5         4.8329    6.6128    1.8687 C.ar      1 RES1    0.0000
     11 C6         5.5987    5.7653    1.0827 C.ar      1 RES1    0.0000
     12 C7         5.8112    4.4814    1.4524 C.ar      1 RES1    0.0000
     13 C8         4.6617    8.0158    1.5169 C.2       1 RES1    0.0000
     14 C9         3.8500   10.2372    1.5492 C.3       1 RES1    0.0000
     15 C10        5.0891   10.1704    0.6362 C.3       1 RES1    0.0000
     16 C11        4.1199   10.8380    2.9274 C.3       1 RES1    0.0000
     17 C12        2.6120   10.8682    0.9611 C.3       1 RES1    0.0000
     18 C13        6.1824   11.1590    0.9508 C.3       1 RES1    0.0000
     19 C14        4.7671   10.1731   -0.8492 C.3       1 RES1    0.0000
     20 H1         5.1067    2.3138    3.8473 H         1 RES1    0.0000
     21 H2         4.1362    4.4941    4.2039 H         1 RES1    0.0000
     22 H3         3.6997    6.6525    3.5313 H         1 RES1    0.0000
     23 H4         5.9708    6.0838    0.2927 H         1 RES1    0.0000
     24 H5         6.3324    3.9286    0.9158 H         1 RES1    0.0000
     25 H6         4.9059   10.4342    3.3039 H         1 RES1    0.0000
     26 H7         3.3686   10.6707    3.5017 H         1 RES1    0.0000
     27 H8         4.2552   11.7840    2.8436 H         1 RES1    0.0000
     28 H9         2.4400   10.4905    0.0955 H         1 RES1    0.0000
     29 H10        2.7455   11.8147    0.8753 H         1 RES1    0.0000
     30 H11        1.8632   10.7015    1.5375 H         1 RES1    0.0000
     31 H12        6.3700   11.1400    1.8920 H         1 RES1    0.0000
     32 H13        5.8995   12.0401    0.6987 H         1 RES1    0.0000
     33 H14        6.9748   10.9244    0.4624 H         1 RES1    0.0000
     34 H15        4.0710    9.5358   -1.0271 H         1 RES1    0.0000
     35 H16        5.5532    9.9347   -1.3472 H         1 RES1    0.0000
     36 H17        4.4752   11.0482   -1.1123 H         1 RES1    0.0000
@<TRIPOS>BOND
     1    1    5 1
     2    2    4 1
     3    3    6 2
     4    6    7 1
     5    7    8 ar
     6    8    9 ar
     7    9   10 ar
     8   10   11 ar
     9   11   12 ar
    10   12    7 ar
    11   13    1 2
    12   14    1 1
    13   15    2 1
    14   16   14 1
    15   17   14 1
    16   18   15 1
    17   19   15 1
    18   20    6 1
    19   21    8 1
    20   22    9 1
    21   23   11 1
    22   24   12 1
    23   25   16 1
    24   26   16 1
    25   27   16 1
    26   28   17 1
    27   29   17 1
    28   30   17 1
    29   31   18 1
    30   32   18 1
    31   33   18 1
    32   34   19 1
    33   35   19 1
    34   36   19 1
    35    2   13 1
    36   10   13 1
    37   14   15 1
@<TRIPOS>SUBSTRUCTURE
     1 RES1 1

@<TRIPOS>CRYSIN
   7.8600   12.6600    7.3750 103.4000 105.3700  93.6100   2 1

