# MOL2 file generated by ConQuest
# Please check atom types

@<TRIPOS>MOLECULE
XARGOP
    52    49     2
SMALL
NO_CHARGES
****
Generated from CSD

@<TRIPOS>ATOM
      1 C1         7.0735    8.0633    4.0422 C.3       1 RES1    0.0000
      2 H1         7.1203    8.9821    3.7339 H         1 RES1    0.0000
      3 H2         7.7848    7.9196    4.6857 H         1 RES1    0.0000
      4 O1         5.8055    7.8140    4.6487 O.3       1 RES1    0.0000
      5 C2         5.1026    7.0694    3.7084 C.ar      1 RES1    0.0000
      6 C3         5.9475    6.6866    2.7004 C.ar      1 RES1    0.0000
      7 O2         7.2201    7.1709    2.9434 O.3       1 RES1    0.0000
      8 C4         3.7846    6.7136    3.7242 C.ar      1 RES1    0.0000
      9 H3         3.2220    6.9866    4.4126 H         1 RES1    0.0000
     10 C5         4.1771    5.5540    1.6664 C.ar      1 RES1    0.0000
     11 H4         3.8510    5.0380    0.9647 H         1 RES1    0.0000
     12 C6         5.5156    5.9176    1.6606 C.ar      1 RES1    0.0000
     13 H5         6.0905    5.6498    0.9804 H         1 RES1    0.0000
     14 C7         3.3092    5.9281    2.6744 C.ar      1 RES1    0.0000
     15 C8         1.8562    5.5148    2.5513 C.3       1 RES1    0.0000
     16 H6         1.4512    6.0347    1.8401 H         1 RES1    0.0000
     17 H7         1.8271    4.5831    2.2821 H         1 RES1    0.0000
     18 C9         1.0098    5.6743    3.7974 C.3       1 RES1    0.0000
     19 H8         1.4725    5.2713    4.5611 H         1 RES1    0.0000
     20 O3         0.7866    7.0932    4.0556 O.3       1 RES1    0.0000
     21 C10       -0.4082    5.0972    3.6932 C.3       1 RES1    0.0000
     22 H9        -0.6896    5.0007    2.7700 H         1 RES1    0.0000
     23 H10       -0.4812    4.2418    4.1447 H         1 RES1    0.0000
     24 N1        -0.5160    7.2452    4.5824 N.2       1 RES1    0.0000
     25 C11       -1.1848    6.1658    4.4009 C.2       1 RES1    0.0000
     26 C12       -2.5905    6.0824    4.8306 C.ar      1 RES1    0.0000
     27 C13       -3.1315    7.0391    5.6944 C.ar      1 RES1    0.0000
     28 H11       -2.5904    7.7255    6.0124 H         1 RES1    0.0000
     29 C14       -4.4486    6.9830    6.0818 C.ar      1 RES1    0.0000
     30 H12       -4.7794    7.6215    6.6714 H         1 RES1    0.0000
     31 C15       -5.3028    5.9783    5.6027 C.ar      1 RES1    0.0000
     32 C16       -4.7652    5.0280    4.7322 C.ar      1 RES1    0.0000
     33 H13       -5.3133    4.3559    4.3964 H         1 RES1    0.0000
     34 C17       -3.4346    5.0665    4.3600 C.ar      1 RES1    0.0000
     35 H14       -3.0959    4.4125    3.7921 H         1 RES1    0.0000
     36 C18       -6.7183    5.9005    6.0392 C.ar      1 RES1    0.0000
     37 C19       -7.1472    6.4416    7.2297 C.ar      1 RES1    0.0000
     38 H15       -6.5457    6.9005    7.7706 H         1 RES1    0.0000
     39 C20       -8.4509    6.3099    7.6249 C.ar      1 RES1    0.0000
     40 H16       -8.7409    6.6702    8.4321 H         1 RES1    0.0000
     41 C21       -9.3061    5.6482    6.8213 C.ar      1 RES1    0.0000
     42 H17      -10.1974    5.5380    7.0620 H         1 RES1    0.0000
     43 C22       -8.8309    5.1390    5.6380 C.ar      1 RES1    0.0000
     44 H18       -9.4283    4.6836    5.0902 H         1 RES1    0.0000
     45 N2        -7.5631    5.2567    5.2212 N.ar      1 RES1    0.0000
     46 C23        1.9586    5.0745    3.2051 Du        2 SUP2    0.0000
     47 H19        1.8621    4.2548    2.6945 Du        2 SUP2    0.0000
     48 H20        2.0635    4.8368    4.1413 Du        2 SUP2    0.0000
     49 C24        0.7704    5.9054    3.0367 Du        2 SUP2    0.0000
     50 H21        0.6016    6.1767    2.1102 Du        2 SUP2    0.0000
     51 H22       -0.9498    4.6566    3.0199 Du        2 SUP2    0.0000
     52 H23       -0.0743    4.4338    4.3172 Du        2 SUP2    0.0000
@<TRIPOS>BOND
     1    1    2 1
     2    3    1 1
     3    4    1 1
     4    5    4 1
     5    6    5 ar
     6    7    1 1
     7    8    5 ar
     8    9    8 1
     9   10   11 1
    10   12    6 ar
    11   13   12 1
    12   14    8 ar
    13   15   14 1
    14   16   15 1
    15   17   15 1
    16   18   15 1
    17   19   18 1
    18   20   18 1
    19   21   18 1
    20   22   21 1
    21   23   21 1
    22   24   20 1
    23   25   21 1
    24   26   25 1
    25   27   26 ar
    26   28   27 1
    27   29   27 ar
    28   30   29 1
    29   31   29 ar
    30   32   31 ar
    31   33   32 1
    32   34   26 ar
    33   35   34 1
    34   36   31 1
    35   37   36 ar
    36   38   37 1
    37   39   37 ar
    38   40   39 1
    39   41   39 ar
    40   42   41 1
    41   43   41 ar
    42   44   43 1
    43   45   36 ar
    44    6    7 1
    45   10   12 ar
    46   10   14 ar
    47   24   25 2
    48   32   34 ar
    49   43   45 ar
@<TRIPOS>SUBSTRUCTURE
     1 RES1 1
     2 SUP2 46

@<TRIPOS>CRYSIN
  17.5480    8.7190   12.2370  90.0000 108.3800  90.0000  14 1

