# MOL2 file generated by ConQuest
# Please check atom types

@<TRIPOS>MOLECULE
XARMUA01
    31    33     1
SMALL
NO_CHARGES
****
Generated from CSD

@<TRIPOS>ATOM
      1 O1         7.3134    2.7457    6.1093 O.2       1 RES1    0.0000
      2 O2         0.6984    2.5384    3.6085 O.2       1 RES1    0.0000
      3 O3         0.1097    2.5695    1.5205 O.2       1 RES1    0.0000
      4 N1         0.9585    2.5647    2.4073 N.pl3     1 RES1    0.0000
      5 C1         7.7922    2.6822    4.9825 C.2       1 RES1    0.0000
      6 C2         7.0129    2.6469    3.6962 C.2       1 RES1    0.0000
      7 C3         7.9944    2.5896    2.5445 C.3       1 RES1    0.0000
      8 H1         7.8501    1.7787    1.9944 H         1 RES1    0.0000
      9 H2         7.9120    3.3901    1.9678 H         1 RES1    0.0000
     10 C4        10.5976    2.4409    2.6450 C.ar      1 RES1    0.0000
     11 H3        10.6911    2.3843    1.7008 H         1 RES1    0.0000
     12 C5         9.3403    2.5495    3.2292 C.ar      1 RES1    0.0000
     13 C6        11.7139    2.4167    3.4709 C.ar      1 RES1    0.0000
     14 H4        12.5790    2.3559    3.0840 H         1 RES1    0.0000
     15 C7        11.5869    2.4803    4.8586 C.ar      1 RES1    0.0000
     16 H5        12.3655    2.4534    5.4033 H         1 RES1    0.0000
     17 C8        10.3376    2.5827    5.4529 C.ar      1 RES1    0.0000
     18 H6        10.2462    2.6310    6.3974 H         1 RES1    0.0000
     19 C9         9.2196    2.6117    4.6165 C.ar      1 RES1    0.0000
     20 C10        4.6963    2.6331    2.6439 C.ar      1 RES1    0.0000
     21 C11        3.3400    2.6601    2.9920 C.ar      1 RES1    0.0000
     22 H7         3.0826    2.7306    3.9030 H         1 RES1    0.0000
     23 C12        2.3780    2.5827    1.9993 C.ar      1 RES1    0.0000
     24 C13        2.6840    2.5080    0.6567 C.ar      1 RES1    0.0000
     25 H8         2.0017    2.4721   -0.0036 H         1 RES1    0.0000
     26 C14        4.0354    2.4880    0.3076 C.ar      1 RES1    0.0000
     27 H9         4.2810    2.4333   -0.6088 H         1 RES1    0.0000
     28 C15        5.0206    2.5467    1.2739 C.ar      1 RES1    0.0000
     29 H10        5.9329    2.5287    1.0111 H         1 RES1    0.0000
     30 C16        5.6738    2.6781    3.7312 C.2       1 RES1    0.0000
     31 H11        5.2997    2.7389    4.6024 H         1 RES1    0.0000
@<TRIPOS>BOND
     1    1    5 2
     2    2    4 2
     3    3    4 2
     4    4   23 1
     5    5    6 1
     6    6    7 1
     7    7    8 1
     8    9    7 1
     9   10   11 1
    10   12    7 1
    11   13   10 ar
    12   14   13 1
    13   15   13 ar
    14   16   15 1
    15   17   15 ar
    16   18   17 1
    17   19    5 1
    18   20   21 ar
    19   21   22 1
    20   23   21 ar
    21   24   23 ar
    22   25   24 1
    23   26   24 ar
    24   27   26 1
    25   28   20 ar
    26   29   28 1
    27   30    6 2
    28   31   30 1
    29   10   12 ar
    30   12   19 ar
    31   17   19 ar
    32   20   30 1
    33   26   28 ar
@<TRIPOS>SUBSTRUCTURE
     1 RES1 1

@<TRIPOS>CRYSIN
  14.5284    6.9129   12.6448  90.0000 107.1930  90.0000  14 1

