# MOL2 file generated by ConQuest
# Please check atom types

@<TRIPOS>MOLECULE
XARNIN
    30    32     1
SMALL
NO_CHARGES
****
Generated from CSD

@<TRIPOS>ATOM
      1 C1         2.8544    1.7962    2.6946 C.3       1 RES1    0.0000
      2 H1         2.2722    1.1345    2.2748 H         1 RES1    0.0000
      3 C2         3.1128    3.0260    1.9228 C.2       1 RES1    0.0000
      4 H2         2.6553    3.2082    1.1237 H         1 RES1    0.0000
      5 C3         4.0328    3.8036    2.4363 C.2       1 RES1    0.0000
      6 C4         4.6408    3.1701    3.6520 C.3       1 RES1    0.0000
      7 H3         5.3862    3.6588    3.9845 H         1 RES1    0.0000
      8 C5         3.5920    2.9124    4.7272 C.3       1 RES1    0.0000
      9 H4         3.2890    3.7853    5.0630 H         1 RES1    0.0000
     10 H5         4.0303    2.3695    5.4295 H         1 RES1    0.0000
     11 C6         2.4388    2.1149    4.1153 C.3       1 RES1    0.0000
     12 H6         2.2673    1.2968    4.5706 H         1 RES1    0.0000
     13 H7         1.5723    2.6166    4.1315 H         1 RES1    0.0000
     14 C7         4.5245    5.1188    1.9358 C.3       1 RES1    0.0000
     15 H8         5.4593    5.1805    1.6452 H         1 RES1    0.0000
     16 H9         4.3973    5.9101    2.5444 H         1 RES1    0.0000
     17 H10        4.1400    5.2522    1.1463 H         1 RES1    0.0000
     18 O1         4.1037    1.0117    2.8021 O.3       1 RES1    0.0000
     19 N1         5.2009    1.8404    3.2432 N.3       1 RES1    0.0000
     20 C8         6.2128    1.8877    2.2441 C.ar      1 RES1    0.0000
     21 C9         6.2195    1.0231    1.1721 C.ar      1 RES1    0.0000
     22 H11        5.4533    0.4407    1.0962 H         1 RES1    0.0000
     23 C10        7.2960    1.0483    0.2841 C.ar      1 RES1    0.0000
     24 H12        7.2283    0.4811   -0.3955 H         1 RES1    0.0000
     25 C11        8.3515    1.9060    0.4488 C.ar      1 RES1    0.0000
     26 H13        9.0539    1.9083   -0.1259 H         1 RES1    0.0000
     27 C12        8.3455    2.7477    1.5160 C.ar      1 RES1    0.0000
     28 H14        9.1433    3.3744    1.6403 H         1 RES1    0.0000
     29 C13        7.2907    2.7446    2.4088 C.ar      1 RES1    0.0000
     30 H15        7.3128    3.3431    3.1256 H         1 RES1    0.0000
@<TRIPOS>BOND
     1    1    2 1
     2    3    1 1
     3    4    3 1
     4    5    3 2
     5    6    5 1
     6    7    6 1
     7    8    6 1
     8    9    8 1
     9   10    8 1
    10   11    1 1
    11   12   11 1
    12   13   11 1
    13   14    5 1
    14   15   14 1
    15   16   14 1
    16   17   14 1
    17   18    1 1
    18   19    6 1
    19   20   19 1
    20   21   20 ar
    21   22   21 1
    22   23   21 ar
    23   24   23 1
    24   25   23 ar
    25   26   25 1
    26   27   25 ar
    27   28   27 1
    28   29   20 ar
    29   30   29 1
    30    8   11 1
    31   18   19 1
    32   27   29 ar
@<TRIPOS>SUBSTRUCTURE
     1 RES1 1

@<TRIPOS>CRYSIN
   8.9640    7.6240   16.3120  90.0000  98.2100  90.0000 231 1

