# MOL2 file generated by ConQuest
# Please check atom types

@<TRIPOS>MOLECULE
XARREN
    39    40     1
SMALL
NO_CHARGES
****
Generated from CSD

@<TRIPOS>ATOM
      1 O1        -1.0128   14.0208    5.7390 O.2       1 RES1    0.0000
      2 O2         0.6950   15.3413    5.2536 O.3       1 RES1    0.0000
      3 O3         7.1507   16.3806    3.3127 O.2       1 RES1    0.0000
      4 O4         6.7856   15.2976    1.4889 O.2       1 RES1    0.0000
      5 N1         6.4520   15.7011    2.5820 N.pl3     1 RES1    0.0000
      6 C1        -0.4550   15.0531    5.8774 C.2       1 RES1    0.0000
      7 C2        -0.9064   16.1762    6.7476 C.3       1 RES1    0.0000
      8 C3        -2.2156   15.8653    7.4010 C.2       1 RES1    0.0000
      9 C4        -3.1705   16.6932    7.6330 C.2       1 RES1    0.0000
     10 C5        -4.4421   16.3316    8.1714 C.1       1 RES1    0.0000
     11 C6        -5.5171   16.0015    8.5724 C.1       1 RES1    0.0000
     12 C7        -6.7873   15.5002    9.0324 C.ar      1 RES1    0.0000
     13 C8        -7.5932   16.2688    9.8608 C.ar      1 RES1    0.0000
     14 C9        -8.7950   15.7465   10.3259 C.ar      1 RES1    0.0000
     15 C10       -9.1825   14.4906    9.9769 C.ar      1 RES1    0.0000
     16 C11       -8.3936   13.7308    9.1383 C.ar      1 RES1    0.0000
     17 C12       -7.2000   14.2321    8.6762 C.ar      1 RES1    0.0000
     18 C13        1.2233   14.2985    4.4007 C.3       1 RES1    0.0000
     19 C14        2.5823   14.7125    3.9346 C.ar      1 RES1    0.0000
     20 C15        3.4572   15.3779    4.7549 C.ar      1 RES1    0.0000
     21 C16        4.7262   15.7133    4.3233 C.ar      1 RES1    0.0000
     22 C17        5.0955   15.3535    3.0522 C.ar      1 RES1    0.0000
     23 C18        4.2542   14.6897    2.2156 C.ar      1 RES1    0.0000
     24 C19        2.9946   14.3596    2.6624 C.ar      1 RES1    0.0000
     25 H1        -0.2135   16.3107    7.3745 H         1 RES1    0.0000
     26 H2        -0.9885   16.9482    6.2123 H         1 RES1    0.0000
     27 H3        -2.3660   14.9343    7.5262 H         1 RES1    0.0000
     28 H4        -3.0614   17.5666    7.2900 H         1 RES1    0.0000
     29 H5        -7.2492   17.1508   10.1367 H         1 RES1    0.0000
     30 H6        -9.3783   16.3544   10.9386 H         1 RES1    0.0000
     31 H7        -9.9246   14.1273   10.2557 H         1 RES1    0.0000
     32 H8        -8.6562   12.8732    8.8838 H         1 RES1    0.0000
     33 H9        -6.6025   13.7273    8.0493 H         1 RES1    0.0000
     34 H10        1.3171   13.4706    4.9615 H         1 RES1    0.0000
     35 H11        0.6146   14.0522    3.7463 H         1 RES1    0.0000
     36 H12        3.1857   15.6277    5.6250 H         1 RES1    0.0000
     37 H13        5.3447   16.1151    4.8963 H         1 RES1    0.0000
     38 H14        4.5894   14.4365    1.3729 H         1 RES1    0.0000
     39 H15        2.4001   13.9457    2.0406 H         1 RES1    0.0000
@<TRIPOS>BOND
     1    1    6 2
     2    2    6 1
     3    3    5 2
     4    4    5 2
     5    5   22 1
     6    6    7 1
     7    7    8 1
     8    8    9 2
     9    9   10 1
    10   10   11 3
    11   11   12 1
    12   12   13 ar
    13   13   14 ar
    14   14   15 ar
    15   15   16 ar
    16   16   17 ar
    17   17   12 ar
    18   18    2 1
    19   19   18 1
    20   20   19 ar
    21   21   20 ar
    22   22   21 ar
    23   23   22 ar
    24   24   19 ar
    25   25    7 1
    26   26    7 1
    27   27    8 1
    28   28    9 1
    29   29   13 1
    30   30   14 1
    31   31   15 1
    32   32   16 1
    33   33   17 1
    34   34   18 1
    35   35   18 1
    36   36   20 1
    37   37   21 1
    38   38   23 1
    39   39   24 1
    40   23   24 ar
@<TRIPOS>SUBSTRUCTURE
     1 RES1 1

@<TRIPOS>CRYSIN
   9.1330   17.4670   10.1860  90.0000  92.3600  90.0000  14 2

