# MOL2 file generated by ConQuest
# Please check atom types

@<TRIPOS>MOLECULE
XARXUM
    31    31     1
SMALL
NO_CHARGES
****
Generated from CSD

@<TRIPOS>ATOM
      1 O1         1.0863    1.5581    9.3910 O.2       1 RES1    0.0000
      2 O2        -0.4791    2.6614    8.2320 O.3       1 RES1    0.0000
      3 O3        -2.4813    0.6539    7.4271 O.3       1 RES1    0.0000
      4 N1         0.8241   -0.6402    7.8178 N.3       1 RES1    0.0000
      5 H1         1.4450   -0.5658    8.4080 H         1 RES1    0.0000
      6 C1         0.7701   -1.7635    7.0131 C.ar      1 RES1    0.0000
      7 C2        -0.1519    0.4053    7.6740 C.3       1 RES1    0.0000
      8 H2        -0.1525    0.6997    6.7388 H         1 RES1    0.0000
      9 O4        -1.7899   -1.0434    8.7235 O.2       1 RES1    0.0000
     10 C3         0.2369    1.5915    8.5470 C.2       1 RES1    0.0000
     11 C4         0.6098   -4.0561    5.4801 C.ar      1 RES1    0.0000
     12 N2         0.4524   -5.2734    4.7018 N.pl3     1 RES1    0.0000
     13 C5        -1.5710   -0.0918    8.0261 C.2       1 RES1    0.0000
     14 C6         1.2868   -2.9725    7.4814 C.ar      1 RES1    0.0000
     15 H3         1.6978   -3.0026    8.3152 H         1 RES1    0.0000
     16 C7         0.1549   -2.8635    4.9569 C.ar      1 RES1    0.0000
     17 H4        -0.1992   -2.8321    4.0974 H         1 RES1    0.0000
     18 C8         0.2324   -1.7243    5.7196 C.ar      1 RES1    0.0000
     19 H5        -0.0755   -0.9180    5.3737 H         1 RES1    0.0000
     20 C9         1.1981   -4.1163    6.7302 C.ar      1 RES1    0.0000
     21 H6         1.5299   -4.9215    7.0566 H         1 RES1    0.0000
     22 O5         0.8865   -6.3258    5.1597 O.2       1 RES1    0.0000
     23 O6        -0.0973   -5.2087    3.6074 O.2       1 RES1    0.0000
     24 C10       -3.8722    0.3164    7.6775 C.3       1 RES1    0.0000
     25 H7        -4.4345    0.8048    7.0715 H         1 RES1    0.0000
     26 H8        -4.0998    0.5467    8.5807 H         1 RES1    0.0000
     27 H9        -4.0023   -0.6247    7.5443 H         1 RES1    0.0000
     28 C11       -0.1603    3.8851    8.9390 C.3       1 RES1    0.0000
     29 H10       -0.7464    4.5868    8.6449 H         1 RES1    0.0000
     30 H11        0.7496    4.1310    8.7574 H         1 RES1    0.0000
     31 H12       -0.2726    3.7485    9.8827 H         1 RES1    0.0000
@<TRIPOS>BOND
     1    1   10 2
     2    2   10 1
     3    3   13 1
     4    4    5 1
     5    6    4 1
     6    7    4 1
     7    8    7 1
     8    9   13 2
     9   10    7 1
    10   11   12 1
    11   12   22 2
    12   13    7 1
    13   14    6 ar
    14   15   14 1
    15   16   11 ar
    16   17   16 1
    17   18    6 ar
    18   19   18 1
    19   20   11 ar
    20   21   20 1
    21   23   12 2
    22   24    3 1
    23   25   24 1
    24   26   24 1
    25   27   24 1
    26   28    2 1
    27   29   28 1
    28   30   28 1
    29   31   28 1
    30   14   20 ar
    31   16   18 ar
@<TRIPOS>SUBSTRUCTURE
     1 RES1 1

@<TRIPOS>CRYSIN
   7.8685   15.9375   10.1120  90.0000 102.5390  90.0000  14 2

