# MOL2 file generated by ConQuest
# Please check atom types

@<TRIPOS>MOLECULE
XARYOE
    40    45     1
SMALL
NO_CHARGES
****
Generated from CSD

@<TRIPOS>ATOM
      1 O1         5.8264    1.4112    2.3646 O.2       1 RES1    0.0000
      2 N1         6.5779    1.2307    1.3760 N.pl3     1 RES1    0.0000
      3 O2        11.4625   -1.3552   -0.4630 O.3       1 RES1    0.0000
      4 O3         6.1229    1.8178    0.1570 O.3       1 RES1    0.0000
      5 C1         8.1771   -0.0503    2.5871 C.3       1 RES1    0.0000
      6 H1         8.1869    0.6517    3.2707 H         1 RES1    0.0000
      7 C2         7.6841    0.5473    1.2946 C.2       1 RES1    0.0000
      8 O4        10.2770   -0.4311   -2.2228 O.2       1 RES1    0.0000
      9 N2        11.2832   -1.4572    0.8969 N.2       1 RES1    0.0000
     10 C3         9.5907   -0.7277    2.5487 C.3       1 RES1    0.0000
     11 C4         9.5753   -0.2703    0.0216 C.2       1 RES1    0.0000
     12 C5         9.3430   -2.1478    3.1601 C.3       1 RES1    0.0000
     13 H2        10.0550   -2.8074    3.0231 H         1 RES1    0.0000
     14 C6        10.1737   -0.8135    1.1715 C.2       1 RES1    0.0000
     15 C7         8.3181    0.5074   -0.0725 C.3       1 RES1    0.0000
     16 H3         7.7096    0.0421   -0.6839 H         1 RES1    0.0000
     17 N3        10.3293   -0.6008   -1.0119 N.pl3     1 RES1    0.0000
     18 C8         7.2817   -1.2478    3.1089 C.3       1 RES1    0.0000
     19 H4         6.3210   -1.1747    2.9300 H         1 RES1    0.0000
     20 C9         7.6771   -1.4167    4.5645 C.2       1 RES1    0.0000
     21 H5         7.1547   -1.1990    5.3027 H         1 RES1    0.0000
     22 C10        7.9922   -2.4535    2.4793 C.3       1 RES1    0.0000
     23 H6         8.0370   -2.4030    1.5110 H         1 RES1    0.0000
     24 H7         7.6131   -3.3024    2.7554 H         1 RES1    0.0000
     25 C11        8.8978   -1.9294    4.5969 C.2       1 RES1    0.0000
     26 H8         9.3942   -2.1209    5.3602 H         1 RES1    0.0000
     27 O5        10.5666    1.2762    3.3419 O.2       1 RES1    0.0000
     28 O6        11.4734   -0.5883    3.9549 O.2       1 RES1    0.0000
     29 N4        10.6219    0.0565    3.3708 N.pl3     1 RES1    0.0000
     30 C12        8.5148    1.9639   -0.5845 C.3       1 RES1    0.0000
     31 H9         8.7711    1.9509   -1.5309 H         1 RES1    0.0000
     32 C13        7.1595    2.6990   -0.4183 C.3       1 RES1    0.0000
     33 H10        6.8586    3.0242   -1.2925 H         1 RES1    0.0000
     34 C14        7.4714    3.8629    0.4580 C.2       1 RES1    0.0000
     35 H11        6.8408    4.4877    0.7341 H         1 RES1    0.0000
     36 C15        9.5433    2.7831    0.2238 C.3       1 RES1    0.0000
     37 H12        9.9396    2.2445    0.9265 H         1 RES1    0.0000
     38 H13       10.2485    3.1183   -0.3524 H         1 RES1    0.0000
     39 C16        8.7459    3.9059    0.7979 C.2       1 RES1    0.0000
     40 H14        9.1099    4.5680    1.3406 H         1 RES1    0.0000
@<TRIPOS>BOND
     1    1    2 1
     2    2    4 1
     3    3    9 1
     4    4   32 1
     5    5    6 1
     6    7    2 2
     7    8   17 1
     8    9   14 2
     9   10    5 1
    10   11   14 1
    11   12   10 1
    12   13   12 1
    13   14   10 1
    14   15    7 1
    15   16   15 1
    16   17    3 1
    17   18    5 1
    18   19   18 1
    19   20   18 1
    20   21   20 1
    21   22   12 1
    22   23   22 1
    23   24   22 1
    24   25   12 1
    25   26   25 1
    26   27   29 2
    27   28   29 2
    28   29   10 1
    29   30   15 1
    30   31   30 1
    31   32   30 1
    32   33   32 1
    33   34   32 1
    34   35   34 1
    35   36   30 1
    36   37   36 1
    37   38   36 1
    38   39   34 2
    39   40   39 1
    40    5    7 1
    41   11   15 1
    42   11   17 2
    43   18   22 1
    44   20   25 2
    45   36   39 1
@<TRIPOS>SUBSTRUCTURE
     1 RES1 1

@<TRIPOS>CRYSIN
  12.0262   12.2022   10.6340  90.0000 100.4690  90.0000  14 1

