# MOL2 file generated by ConQuest
# Please check atom types

@<TRIPOS>MOLECULE
XARYIY
    32    35     1
SMALL
NO_CHARGES
****
Generated from CSD

@<TRIPOS>ATOM
      1 C1         3.2074    8.6502    3.3312 C.2       1 RES1    0.0000
      2 C2         3.5096    7.4468    2.8736 C.2       1 RES1    0.0000
      3 H1         4.3602    7.1158    3.0532 H         1 RES1    0.0000
      4 C3         2.5702    6.5764    2.0812 C.3       1 RES1    0.0000
      5 C4         1.1972    7.1705    1.6844 C.3       1 RES1    0.0000
      6 H2         1.1578    7.2200    0.7065 H         1 RES1    0.0000
      7 C5         1.0391    8.5443    2.2229 C.2       1 RES1    0.0000
      8 C6         1.9351    9.2762    3.0314 C.2       1 RES1    0.0000
      9 C7         2.3389    5.2288    2.8394 C.3       1 RES1    0.0000
     10 H3         3.1901    4.8066    3.0768 H         1 RES1    0.0000
     11 C8         1.5253    4.3400    1.9345 C.2       1 RES1    0.0000
     12 H4         1.8185    3.5064    1.6449 H         1 RES1    0.0000
     13 C9         0.3624    4.8508    1.5916 C.2       1 RES1    0.0000
     14 H5        -0.2360    4.4061    1.0348 H         1 RES1    0.0000
     15 C10        0.0777    6.2033    2.1676 C.3       1 RES1    0.0000
     16 H6        -0.8038    6.5226    1.8802 H         1 RES1    0.0000
     17 C11        0.1408    6.0872    3.6954 C.3       1 RES1    0.0000
     18 H7        -0.0127    6.9558    4.0978 H         1 RES1    0.0000
     19 H8        -0.5470    5.4802    4.0094 H         1 RES1    0.0000
     20 C12        1.5138    5.5658    4.0967 C.3       1 RES1    0.0000
     21 H9         1.4135    4.7705    4.6440 H         1 RES1    0.0000
     22 H10        1.9775    6.2366    4.6216 H         1 RES1    0.0000
     23 N1         0.0042    9.3175    2.0022 N.pl3     1 RES1    0.0000
     24 N2         4.1951    9.3564    4.1674 N.pl3     1 RES1    0.0000
     25 N3         1.4849   10.4640    3.3376 N.2       1 RES1    0.0000
     26 N4         3.3782    6.2221    0.7959 N.pl3     1 RES1    0.0000
     27 O1        -1.0498    9.2227    1.3754 O.2       1 RES1    0.0000
     28 O2         0.2673   10.5707    2.7268 O.3       1 RES1    0.0000
     29 O3         5.3218    8.8820    4.2495 O.2       1 RES1    0.0000
     30 O4         3.8124   10.3453    4.7643 O.2       1 RES1    0.0000
     31 O5         2.9137    6.4522   -0.2943 O.2       1 RES1    0.0000
     32 O6         4.4447    5.6797    0.9688 O.2       1 RES1    0.0000
@<TRIPOS>BOND
     1    1    2 2
     2    2    3 1
     3    4    2 1
     4    5    4 1
     5    6    5 1
     6    7    5 1
     7    8    1 1
     8    9    4 1
     9   10    9 1
    10   11    9 1
    11   12   11 1
    12   13   11 2
    13   14   13 1
    14   15    5 1
    15   16   15 1
    16   17   15 1
    17   18   17 1
    18   19   17 1
    19   20    9 1
    20   21   20 1
    21   22   20 1
    22   23    7 2
    23   24    1 1
    24   25    8 2
    25   26    4 1
    26   27   23 1
    27   28   23 1
    28   29   24 2
    29   30   24 2
    30   31   26 2
    31   32   26 2
    32    7    8 1
    33   13   15 1
    34   17   20 1
    35   25   28 1
@<TRIPOS>SUBSTRUCTURE
     1 RES1 1

@<TRIPOS>CRYSIN
   7.4532    8.5642   10.9340  82.7060  77.1340  68.3700   2 1

