# MOL2 file generated by ConQuest
# Please check atom types

@<TRIPOS>MOLECULE
XASQOX
    43    33     2
SMALL
NO_CHARGES
****
Generated from CSD

@<TRIPOS>ATOM
      1 O1         2.9652    8.5473    1.0492 O.2       1 RES1    0.0000
      2 O2         1.2287    4.8281   -1.0336 O.2       1 RES1    0.0000
      3 C1         2.7586    7.6677    0.2259 C.2       1 RES1    0.0000
      4 N1         3.3325    7.5244   -0.9787 N.am      1 RES1    0.0000
      5 H1         4.1090    7.8414   -1.1872 H         1 RES1    0.0000
      6 N2         2.9551    6.2776   -1.5274 N.am      1 RES1    0.0000
      7 C2         1.9286    5.7935   -0.7788 C.2       1 RES1    0.0000
      8 N3         1.8425    6.6223    0.3476 N.am      1 RES1    0.0000
      9 C3         0.9983    6.3887    1.4685 C.ar      1 RES1    0.0000
     10 C4        -0.3047    5.9293    1.2652 C.ar      1 RES1    0.0000
     11 H2        -0.5293    5.8130    0.2414 H         1 RES1    0.0000
     12 C5        -1.1017    5.6638    2.3591 C.ar      1 RES1    0.0000
     13 H3        -2.0081    5.3047    2.1475 H         1 RES1    0.0000
     14 C6        -0.6002    5.8650    3.6184 C.ar      1 RES1    0.0000
     15 C7         0.6949    6.3187    3.8348 C.ar      1 RES1    0.0000
     16 H4         0.9368    6.4193    4.7528 H         1 RES1    0.0000
     17 C8         1.4851    6.5805    2.7504 C.ar      1 RES1    0.0000
     18 H5         2.4124    6.9034    2.8502 H         1 RES1    0.0000
     19 N4        -1.4344    5.5435    4.7801 N.pl3     1 RES1    0.0000
     20 O3        -1.0004    5.7422    5.8907 O.2       1 RES1    0.0000
     21 O4        -2.5471    5.0772    4.5685 O.2       1 RES1    0.0000
     22 C9         3.1123    6.0940   -2.9002 C.3       1 RES1    0.0000
     23 H6         2.9494    5.1170   -3.0131 H         1 RES1    0.0000
     24 C10        4.4411    6.2616   -3.4305 C.3       1 RES1    0.0000
     25 H7         5.0080    5.7021   -2.8954 H         1 RES1    0.0000
     26 H8         4.7116    7.1773   -3.3330 H         1 RES1    0.0000
     27 H9         4.5148    6.0015   -4.3520 H         1 RES1    0.0000
     28 C11        2.0439    6.9625   -3.6766 C.2       1 RES1    0.0000
     29 H10        1.1976    7.0951   -3.3140 H         1 RES1    0.0000
     30 C12        2.2739    7.5512   -4.7528 C.2       1 RES1    0.0000
     31 H11        3.1100    7.4431   -5.1452 H         1 RES1    0.0000
     32 H12        1.6342    8.0905   -5.1606 H         1 RES1    0.0000
     33 C13        2.9252    6.1176   -3.0417 Du        2 SUP2    0.0000
     34 H13        2.6710    5.1894   -3.2272 Du        2 SUP2    0.0000
     35 C14        1.9780    6.9827   -3.7147 Du        2 SUP2    0.0000
     36 H14        1.9166    6.7294   -4.6386 Du        2 SUP2    0.0000
     37 H15        2.2538    7.8995   -3.6517 Du        2 SUP2    0.0000
     38 H16        1.1200    6.8777   -3.2961 Du        2 SUP2    0.0000
     39 C15        4.4604    6.2484   -3.4436 Du        2 SUP2    0.0000
     40 H17        5.1482    5.8991   -2.9251 Du        2 SUP2    0.0000
     41 C16        4.7089    6.8495   -4.4591 Du        2 SUP2    0.0000
     42 H18        4.0308    7.2046   -4.9882 Du        2 SUP2    0.0000
     43 H19        5.5972    6.9368   -4.7219 Du        2 SUP2    0.0000
@<TRIPOS>BOND
     1    1    3 2
     2    2    7 2
     3    3    4 1
     4    4    5 1
     5    6    4 1
     6    7    6 1
     7    8    3 1
     8    9    8 1
     9   10    9 ar
    10   11   10 1
    11   12   10 ar
    12   13   12 1
    13   14   12 ar
    14   15   14 ar
    15   16   15 1
    16   17    9 ar
    17   18   17 1
    18   19   14 1
    19   20   19 2
    20   21   19 2
    21   22    6 1
    22   23   22 1
    23   24   22 1
    24   25   24 1
    25   26   24 1
    26   27   24 1
    27   28   22 1
    28   29   28 1
    29   30   28 2
    30   31   30 1
    31   32   30 1
    32    7    8 1
    33   15   17 ar
@<TRIPOS>SUBSTRUCTURE
     1 RES1 1
     2 SUP2 33

@<TRIPOS>CRYSIN
   6.4096    8.8010   12.4528 105.8790  92.9690 102.8570   2 1

