# MOL2 file generated by ConQuest
# Please check atom types

@<TRIPOS>MOLECULE
XASROB
    16    15     1
SMALL
NO_CHARGES
****
Generated from CSD

@<TRIPOS>ATOM
      1 O1         6.6400    0.0000    1.2340 O.2       1 RES1    0.0000
      2 O2         8.9815    0.6272    2.3738 O.3       1 RES1    0.0000
      3 O3         9.5916    2.1208    0.9193 O.2       1 RES1    0.0000
      4 C1         6.6400    0.0000    2.4369 C.2       1 RES1    0.0000
      5 O4         7.9268    2.5962    2.2247 O.2       1 RES1    0.0000
      6 N1         8.7987    1.8904    1.7938 N.pl3     1 RES1    0.0000
      7 C2         7.8999    0.2665    3.2425 C.3       1 RES1    0.0000
      8 H1         7.7440    0.9511    3.8442 H         1 RES1    0.0000
      9 H2         8.1274   -0.4919    3.7221 H         1 RES1    0.0000
     10 O2A        4.2985   -0.6272    2.3738 O.3       1 RES1    0.0000
     11 O3A        3.6884   -2.1208    0.9193 O.2       1 RES1    0.0000
     12 O4A        5.3532   -2.5962    2.2247 O.2       1 RES1    0.0000
     13 N1A        4.4813   -1.8904    1.7938 N.pl3     1 RES1    0.0000
     14 C2A        5.3801   -0.2665    3.2425 C.3       1 RES1    0.0000
     15 H1A        5.5360   -0.9511    3.8442 H         1 RES1    0.0000
     16 H2A        5.1526    0.4919    3.7221 H         1 RES1    0.0000
@<TRIPOS>BOND
     1    1    4 2
     2    2    6 1
     3    3    6 2
     4    4    7 1
     5    5    6 2
     6    7    2 1
     7    8    7 1
     8    9    7 1
     9   10   13 1
    10   11   13 2
    11   12   13 2
    12   14    4 1
    13   15   14 1
    14   16   14 1
    15   10   14 1
@<TRIPOS>SUBSTRUCTURE
     1 RES1 1

@<TRIPOS>CRYSIN
  13.2800   20.4970    4.9240  90.0000  90.0000  90.0000  43 1

