# MOL2 file generated by ConQuest
# Please check atom types

@<TRIPOS>MOLECULE
XASRUH
    64    64     2
SMALL
NO_CHARGES
****
Generated from CSD

@<TRIPOS>ATOM
      1 O1         2.4118    3.6096    3.2045 O.3       1 RES1    0.0000
      2 O2         1.4992    4.4949    5.0380 O.2       1 RES1    0.0000
      3 O3        -0.1123    2.5859    0.9389 O.3       1 RES1    0.0000
      4 O4         3.6513    4.4340    4.7709 O.2       1 RES1    0.0000
      5 O5         2.1371    1.8611    1.1580 O.3       1 RES1    0.0000
      6 O6         0.9399    0.5059    2.5018 O.2       1 RES1    0.0000
      7 O7         2.8237   -0.1349    1.6344 O.2       1 RES1    0.0000
      8 C1         1.7629    4.0281    0.4483 C.3       1 RES1    0.0000
      9 N1         2.5117    4.2417    4.4576 N.pl3     1 RES1    0.0000
     10 N2         1.9324    0.6394    1.8488 N.pl3     1 RES1    0.0000
     11 C2         1.1737    2.9426    1.3421 C.3       1 RES1    0.0000
     12 C3         1.0497    3.4024    2.7829 C.3       1 RES1    0.0000
     13 H1         2.7391    4.1537    0.6082 H         1 RES1    0.0000
     14 H2         1.2211    4.8294    0.5982 H         1 RES1    0.0000
     15 H3         0.6001    4.1132    2.7974 H         1 RES1    0.0000
     16 H4         0.6555    2.7860    3.3392 H         1 RES1    0.0000
     17 O8         3.6969    5.7001    9.1095 O.3       2 RES2    0.0000
     18 O9         6.2698    6.8405    6.9595 O.3       2 RES2    0.0000
     19 O10        7.5563    7.6503    5.4239 O.2       2 RES2    0.0000
     20 O11        5.4320    7.5583    5.0297 O.2       2 RES2    0.0000
     21 O12        5.9551    4.9858    8.9292 O.3       2 RES2    0.0000
     22 O13        6.6545    2.9961    8.4523 O.2       2 RES2    0.0000
     23 O14        4.7827    3.6374    7.5591 O.2       2 RES2    0.0000
     24 N3         5.7625    3.7717    8.2308 N.pl3     2 RES2    0.0000
     25 N4         6.4150    7.4022    5.6803 N.pl3     2 RES2    0.0000
     26 C4         3.5785    5.3328   10.4933 C.3       2 RES2    0.0000
     27 C5         4.9780    6.0660    8.7411 C.3       2 RES2    0.0000
     28 C6         4.9004    6.5403    7.2925 C.3       2 RES2    0.0000
     29 H5         4.3055    7.2981    7.2483 H         2 RES2    0.0000
     30 H6         2.5686    5.2350   10.6278 H         2 RES2    0.0000
     31 H7         4.0689    4.5467   10.6621 H         2 RES2    0.0000
     32 H8         4.5709    5.9098    6.7187 H         2 RES2    0.0000
     33 O1A       -0.8553    2.6472   -3.2045 O.3       1 RES1    0.0000
     34 O2A        0.0573    1.7619   -5.0380 O.2       1 RES1    0.0000
     35 O3A        1.6688    3.6709   -0.9389 O.3       1 RES1    0.0000
     36 O4A       -2.0948    1.8228   -4.7709 O.2       1 RES1    0.0000
     37 O5A       -0.5806    4.3957   -1.1580 O.3       1 RES1    0.0000
     38 O6A        0.6167    5.7509   -2.5018 O.2       1 RES1    0.0000
     39 O7A       -1.2672    6.3917   -1.6344 O.2       1 RES1    0.0000
     40 C1A       -0.2064    2.2287   -0.4483 C.3       1 RES1    0.0000
     41 N1A       -0.9551    2.0151   -4.4576 N.pl3     1 RES1    0.0000
     42 N2A       -0.3759    5.6174   -1.8488 N.pl3     1 RES1    0.0000
     43 C2A        0.3828    3.3142   -1.3421 C.3       1 RES1    0.0000
     44 C3A        0.5068    2.8544   -2.7829 C.3       1 RES1    0.0000
     45 H1A       -1.1825    2.1031   -0.6082 H         1 RES1    0.0000
     46 H2A        0.3354    1.4274   -0.5982 H         1 RES1    0.0000
     47 H3A        0.9564    2.1436   -2.7974 H         1 RES1    0.0000
     48 H4A        0.9010    3.4708   -3.3392 H         1 RES1    0.0000
     49 O8A        5.4328    6.7861   11.0304 O.3       2 RES2    0.0000
     50 O9A        2.8598    5.6457   13.1803 O.3       2 RES2    0.0000
     51 O10A       1.5733    4.8359   14.7160 O.2       2 RES2    0.0000
     52 O11A       3.6976    4.9279   15.1101 O.2       2 RES2    0.0000
     53 O12A       3.1745    7.5004   11.2107 O.3       2 RES2    0.0000
     54 O13A       2.4751    9.4901   11.6876 O.2       2 RES2    0.0000
     55 O14A       4.3470    8.8488   12.5808 O.2       2 RES2    0.0000
     56 N3A        3.3671    8.7145   11.9091 N.pl3     2 RES2    0.0000
     57 N4A        2.7146    5.0840   14.4596 N.pl3     2 RES2    0.0000
     58 C4A        5.5512    7.1534    9.6466 C.3       2 RES2    0.0000
     59 C5A        4.1517    6.4202   11.3988 C.3       2 RES2    0.0000
     60 C6A        4.2292    5.9459   12.8474 C.3       2 RES2    0.0000
     61 H5A        4.8242    5.1881   12.8915 H         2 RES2    0.0000
     62 H6A        6.5611    7.2512    9.5121 H         2 RES2    0.0000
     63 H7A        5.0608    7.9395    9.4778 H         2 RES2    0.0000
     64 H8A        4.5588    6.5764   13.4212 H         2 RES2    0.0000
@<TRIPOS>BOND
     1    1    9 1
     2    2    9 2
     3    3   11 1
     4    4    9 2
     5    5   10 1
     6    6   10 2
     7    7   10 2
     8    8   11 1
     9   11    5 1
    10   12    1 1
    11   13    8 1
    12   14    8 1
    13   15   12 1
    14   16   12 1
    15   17   26 1
    16   18   25 1
    17   19   25 2
    18   20   25 2
    19   21   24 1
    20   22   24 2
    21   23   24 2
    22   26   30 1
    23   27   17 1
    24   28   18 1
    25   29   28 1
    26   31   26 1
    27   32   28 1
    28   33   41 1
    29   34   41 2
    30   35    8 1
    31   36   41 2
    32   37   42 1
    33   38   42 2
    34   39   42 2
    35   40    3 1
    36   43   35 1
    37   44   33 1
    38   45   40 1
    39   46   40 1
    40   47   44 1
    41   48   44 1
    42   49   58 1
    43   50   57 1
    44   51   57 2
    45   52   57 2
    46   53   56 1
    47   54   56 2
    48   55   56 2
    49   58   27 1
    50   59   26 1
    51   60   50 1
    52   61   60 1
    53   62   58 1
    54   63   58 1
    55   64   60 1
    56   11   12 1
    57   21   27 1
    58   27   28 1
    59   37   43 1
    60   40   43 1
    61   43   44 1
    62   49   59 1
    63   53   59 1
    64   59   60 1
@<TRIPOS>SUBSTRUCTURE
     1 RES1 1
     2 RES2 17

@<TRIPOS>CRYSIN
   5.1866    6.4475   20.1570  89.5060  87.6400  76.0300   2 1

