# MOL2 file generated by ConQuest
# Please check atom types

@<TRIPOS>MOLECULE
XAVMOW
    57    57     3
SMALL
NO_CHARGES
****
Generated from CSD

@<TRIPOS>ATOM
      1 O1         0.0717    4.6677   11.2692 O.3       1 RES1    0.0000
      2 H1         0.5662    3.9900   11.0079 H         1 RES1    0.0000
      3 O2         0.4297    6.1120   13.4668 O.2       1 RES1    0.0000
      4 O3        -2.2980    2.1548   18.8213 O.2       1 RES1    0.0000
      5 O4        -2.7526    4.1811   19.3029 O.2       1 RES1    0.0000
      6 N1        -0.4067    4.2549   12.5114 N.am      1 RES1    0.0000
      7 H2        -0.9932    3.6177   12.4916 H         1 RES1    0.0000
      8 N2        -2.3165    3.3416   18.5553 N.pl3     1 RES1    0.0000
      9 C1        -0.7632    4.5741   14.8460 C.ar      1 RES1    0.0000
     10 C2        -0.9676    5.4985   15.8557 C.ar      1 RES1    0.0000
     11 H3        -0.7555    6.3933   15.7133 H         1 RES1    0.0000
     12 C3        -1.4843    5.1025   17.0715 C.ar      1 RES1    0.0000
     13 H4        -1.6430    5.7203   17.7480 H         1 RES1    0.0000
     14 C4        -1.7568    3.7781   17.2563 C.ar      1 RES1    0.0000
     15 C5        -1.5554    2.8328   16.2932 C.ar      1 RES1    0.0000
     16 H5        -1.7476    1.9374   16.4526 H         1 RES1    0.0000
     17 C6        -1.0575    3.2467   15.0740 C.ar      1 RES1    0.0000
     18 H6        -0.9189    2.6227   14.3992 H         1 RES1    0.0000
     19 C7        -0.2032    5.0619   13.5500 C.2       1 RES1    0.0000
     20 O5        -1.6013    6.4556   10.1271 O.3       2 RES2    0.0000
     21 H7        -1.0772    5.8206   10.3856 H         2 RES2    0.0000
     22 O6        -1.1671    9.0500   10.0657 O.2       2 RES2    0.0000
     23 O7        -2.7104   11.6282   16.5702 O.2       2 RES2    0.0000
     24 O8        -3.7025   12.9288   15.2012 O.2       2 RES2    0.0000
     25 N3        -1.8624    7.2622   11.2394 N.am      2 RES2    0.0000
     26 H8        -2.3435    6.8857   11.8456 H         2 RES2    0.0000
     27 N4        -3.0658   11.9289   15.4488 N.pl3     2 RES2    0.0000
     28 C8        -2.0312    9.4148   12.2586 C.ar      2 RES2    0.0000
     29 C9        -2.5193   10.6841   12.0100 C.ar      2 RES2    0.0000
     30 H9        -2.6079   10.9824   11.1334 H         2 RES2    0.0000
     31 C10       -2.8760   11.5119   13.0512 C.ar      2 RES2    0.0000
     32 H10       -3.2226   12.3597   12.8935 H         2 RES2    0.0000
     33 C11       -2.7029   11.0436   14.3297 C.ar      2 RES2    0.0000
     34 C12       -2.2012    9.7991   14.6145 C.ar      2 RES2    0.0000
     35 H11       -2.0857    9.5199   15.4928 H         2 RES2    0.0000
     36 C13       -1.8740    8.9785   13.5576 C.ar      2 RES2    0.0000
     37 H12       -1.5449    8.1226   13.7214 H         2 RES2    0.0000
     38 C14       -1.6506    8.5624   11.0837 C.2       2 RES2    0.0000
     39 O9         0.4803    6.4797    7.9808 O.3       3 RES3    0.0000
     40 H13        0.9982    6.4673    8.6527 H         3 RES3    0.0000
     41 O10        0.7055    7.7786    5.7010 O.2       3 RES3    0.0000
     42 O11       -0.8447   14.6550    7.0419 O.2       3 RES3    0.0000
     43 O12       -1.8778   14.1749    5.2242 O.2       3 RES3    0.0000
     44 N5         0.1547    7.8310    7.8783 N.am      3 RES3    0.0000
     45 H14       -0.3043    8.1401    8.5459 H         3 RES3    0.0000
     46 N6        -1.2040   13.8664    6.1890 N.pl3     3 RES3    0.0000
     47 C15       -0.1243    9.8214    6.6014 C.ar      3 RES3    0.0000
     48 C16       -0.6239   10.2917    5.4022 C.ar      3 RES3    0.0000
     49 H15       -0.7158    9.7106    4.6816 H         3 RES3    0.0000
     50 C17       -0.9874   11.6157    5.2649 C.ar      3 RES3    0.0000
     51 H16       -1.3428   11.9328    4.4646 H         3 RES3    0.0000
     52 C18       -0.8127   12.4526    6.3331 C.ar      3 RES3    0.0000
     53 C19       -0.2933   12.0309    7.5302 C.ar      3 RES3    0.0000
     54 H17       -0.1730   12.6245    8.2356 H         3 RES3    0.0000
     55 C20        0.0472   10.6964    7.6638 C.ar      3 RES3    0.0000
     56 H18        0.3929   10.3848    8.4691 H         3 RES3    0.0000
     57 C21        0.2720    8.3921    6.6956 C.2       3 RES3    0.0000
@<TRIPOS>BOND
     1    1    2 1
     2    3   19 2
     3    4    8 2
     4    5    8 2
     5    6    1 1
     6    7    6 1
     7    8   14 1
     8    9   10 ar
     9   10   11 1
    10   12   10 ar
    11   13   12 1
    12   14   12 ar
    13   15   14 ar
    14   16   15 1
    15   17    9 ar
    16   18   17 1
    17   19    6 1
    18   20   21 1
    19   22   38 2
    20   23   27 2
    21   24   27 2
    22   25   20 1
    23   26   25 1
    24   27   33 1
    25   28   29 ar
    26   29   30 1
    27   31   29 ar
    28   32   31 1
    29   33   31 ar
    30   34   33 ar
    31   35   34 1
    32   36   28 ar
    33   37   36 1
    34   38   25 1
    35   39   40 1
    36   41   57 2
    37   42   46 2
    38   43   46 2
    39   44   39 1
    40   45   44 1
    41   46   52 1
    42   47   48 ar
    43   48   49 1
    44   50   48 ar
    45   51   50 1
    46   52   50 ar
    47   53   52 ar
    48   54   53 1
    49   55   47 ar
    50   56   55 1
    51   57   44 1
    52    9   19 1
    53   15   17 ar
    54   28   38 1
    55   34   36 ar
    56   47   57 1
    57   53   55 ar
@<TRIPOS>SUBSTRUCTURE
     1 RES1 1
     2 RES2 20
     3 RES3 39

@<TRIPOS>CRYSIN
   3.7420   18.1140   18.6920 114.7700  90.3300  94.6100   2 1

