# MOL2 file generated by ConQuest
# Please check atom types

@<TRIPOS>MOLECULE
XAVMEM
    68    68     4
SMALL
NO_CHARGES
****
Generated from CSD

@<TRIPOS>ATOM
      1 C1         1.1533   10.4938    1.8713 C.ar      1 RES1    0.0000
      2 C2         0.8527   11.6375    2.5726 C.ar      1 RES1    0.0000
      3 H1         0.5826   11.5793    3.4599 H         1 RES1    0.0000
      4 C3         0.9513   12.8772    1.9607 C.ar      1 RES1    0.0000
      5 H2         0.7504   13.6513    2.4355 H         1 RES1    0.0000
      6 C4         1.3539   12.9558    0.6311 C.ar      1 RES1    0.0000
      7 H3         1.4187   13.7881    0.2198 H         1 RES1    0.0000
      8 C5         1.6543   11.8266   -0.0795 C.ar      1 RES1    0.0000
      9 H4         1.9358   11.8907   -0.9635 H         1 RES1    0.0000
     10 C6         1.5366   10.5840    0.5284 C.ar      1 RES1    0.0000
     11 H5         1.7121    9.8099    0.0424 H         1 RES1    0.0000
     12 C7         1.0908    9.1930    2.6024 C.2       1 RES1    0.0000
     13 N1         0.9735    8.1046    1.8482 N.am      1 RES1    0.0000
     14 H6         0.9795    7.9970    0.9403 H         1 RES1    0.0000
     15 O1         0.8899    6.8707    2.4779 O.3       1 RES1    0.0000
     16 H7         1.6981    6.3236    2.2514 H         1 RES1    0.0000
     17 O2         1.1734    9.1581    3.8361 O.2       1 RES1    0.0000
     18 C8         4.6807   10.5055    5.1187 C.ar      2 RES2    0.0000
     19 C9         5.0727   11.6171    5.8445 C.ar      2 RES2    0.0000
     20 H8         5.3789   11.5269    6.7179 H         2 RES2    0.0000
     21 C10        5.0030   12.8772    5.2492 C.ar      2 RES2    0.0000
     22 H9         5.2598   13.6280    5.7339 H         2 RES2    0.0000
     23 C11        4.5602   13.0256    3.9546 C.ar      2 RES2    0.0000
     24 H10        4.5209   13.8724    3.5712 H         2 RES2    0.0000
     25 C12        4.1760   11.9227    3.2275 C.ar      2 RES2    0.0000
     26 H11        3.8712   12.0216    2.3547 H         2 RES2    0.0000
     27 C13        4.2453   10.6568    3.8029 C.ar      2 RES2    0.0000
     28 H12        4.0001    9.9089    3.3076 H         2 RES2    0.0000
     29 C14        4.6774    9.1872    5.8484 C.2       2 RES2    0.0000
     30 N2         4.4461    8.1017    5.1227 N.am      2 RES2    0.0000
     31 H13        4.3961    8.1483    4.2652 H         2 RES2    0.0000
     32 O3         4.2860    6.8940    5.7763 O.3       2 RES2    0.0000
     33 H14        4.9411    6.3557    5.3836 H         2 RES2    0.0000
     34 O4         4.8879    9.1581    7.0841 O.2       2 RES2    0.0000
     35 C15        1.5158    3.8181    5.4094 C.ar      3 RES3    0.0000
     36 C16        0.8201    2.6569    5.7352 C.ar      3 RES3    0.0000
     37 H15       -0.0624    2.7064    6.0246 H         3 RES3    0.0000
     38 C17        1.4416    1.4376    5.6286 C.ar      3 RES3    0.0000
     39 H16        0.9668    0.6635    5.8286 H         3 RES3    0.0000
     40 C18        2.7621    1.3416    5.2273 C.ar      3 RES3    0.0000
     41 H17        3.1806    0.5122    5.1750 H         3 RES3    0.0000
     42 C19        3.4480    2.4910    4.9068 C.ar      3 RES3    0.0000
     43 H18        4.3284    2.4358    4.6135 H         3 RES3    0.0000
     44 C20        2.8484    3.7162    5.0147 C.ar      3 RES3    0.0000
     45 H19        3.3332    4.4874    4.8234 H         3 RES3    0.0000
     46 C21        0.7677    5.1130    5.4876 C.2       3 RES3    0.0000
     47 N3         1.5095    6.1985    5.5524 N.am      3 RES3    0.0000
     48 H20        2.3111    6.3236    5.6352 H         3 RES3    0.0000
     49 O5         0.8495    7.4266    5.7008 O.3       3 RES3    0.0000
     50 H21        1.0108    7.9591    5.0392 H         3 RES3    0.0000
     51 O6        -0.4558    5.1160    5.4816 O.2       3 RES3    0.0000
     52 C22        4.6717    3.8239    1.9521 C.ar      4 RES4    0.0000
     53 C23        3.9411    2.7006    1.5773 C.ar      4 RES4    0.0000
     54 H22        3.0643    2.7966    1.2820 H         4 RES4    0.0000
     55 C24        4.5083    1.4609    1.6416 C.ar      4 RES4    0.0000
     56 H23        4.0073    0.7130    1.4038 H         4 RES4    0.0000
     57 C25        5.8198    1.2979    2.0561 C.ar      4 RES4    0.0000
     58 H24        6.1990    0.4511    2.0885 H         4 RES4    0.0000
     59 C26        6.5680    2.4183    2.4249 C.ar      4 RES4    0.0000
     60 H25        7.4467    2.3223    2.7143 H         4 RES4    0.0000
     61 C27        5.9896    3.6667    2.3561 C.ar      4 RES4    0.0000
     62 H26        6.4916    4.4146    2.5845 H         4 RES4    0.0000
     63 C28        3.9789    5.1305    1.9760 C.2       4 RES4    0.0000
     64 N4         4.7326    6.2189    2.1965 N.am      4 RES4    0.0000
     65 H27        5.5872    6.1520    2.2673 H         4 RES4    0.0000
     66 O7         4.1007    7.4528    2.3071 O.3       4 RES4    0.0000
     67 H28        4.2898    8.0697    1.2648 H         4 RES4    0.0000
     68 O8         2.7541    5.1945    1.8131 O.2       4 RES4    0.0000
@<TRIPOS>BOND
     1    1    2 ar
     2    2    3 1
     3    4    2 ar
     4    5    4 1
     5    6    4 ar
     6    7    6 1
     7    8    6 ar
     8    9    8 1
     9   10    1 ar
    10   11   10 1
    11   12    1 1
    12   13   12 1
    13   14   13 1
    14   15   13 1
    15   16   15 1
    16   17   12 2
    17   18   19 ar
    18   19   20 1
    19   21   19 ar
    20   22   21 1
    21   23   21 ar
    22   24   23 1
    23   25   23 ar
    24   26   25 1
    25   27   18 ar
    26   28   27 1
    27   29   18 1
    28   30   29 1
    29   31   30 1
    30   32   30 1
    31   33   32 1
    32   34   29 2
    33   35   36 ar
    34   36   37 1
    35   38   36 ar
    36   39   38 1
    37   40   38 ar
    38   41   40 1
    39   42   40 ar
    40   43   42 1
    41   44   35 ar
    42   45   44 1
    43   46   35 1
    44   47   46 1
    45   48   47 1
    46   49   47 1
    47   50   49 1
    48   51   46 2
    49   52   53 ar
    50   53   54 1
    51   55   53 ar
    52   56   55 1
    53   57   55 ar
    54   58   57 1
    55   59   57 ar
    56   60   59 1
    57   61   52 ar
    58   62   61 1
    59   63   52 1
    60   64   63 1
    61   65   64 1
    62   66   64 1
    63   67   66 1
    64   68   63 2
    65    8   10 ar
    66   25   27 ar
    67   42   44 ar
    68   59   61 ar
@<TRIPOS>SUBSTRUCTURE
     1 RES1 1
     2 RES2 18
     3 RES3 35
     4 RES4 52

@<TRIPOS>CRYSIN
   6.5910   29.1010    6.6240  90.0000  88.5500  90.0000   4 1

