# MOL2 file generated by ConQuest
# Please check atom types

@<TRIPOS>MOLECULE
XAVMIQ
    28    20     2
SMALL
NO_CHARGES
****
Generated from CSD

@<TRIPOS>ATOM
      1 O1        34.0728    1.2693   -0.0692 O.3       1 RES1    0.0000
      2 H1        34.4753    1.7440    0.6455 H         1 RES1    0.0000
      3 O2        31.7787    2.4194   -0.7872 O.2       1 RES1    0.0000
      4 N1        32.8511    0.9092    0.4724 N.am      1 RES1    0.0000
      5 H2        32.8835    0.2607    1.1647 H         1 RES1    0.0000
      6 C1        30.4698    0.9776    0.5702 C.ar      1 RES1    0.0000
      7 C2        29.3079    1.7737    0.3934 C.ar      1 RES1    0.0000
      8 H3        29.3822    2.6193    0.0126 H         1 RES1    0.0000
      9 C3        28.1048    1.2934    0.7620 C.ar      1 RES1    0.0000
     10 H4        27.3376    1.7727    0.5431 H         1 RES1    0.0000
     11 C4        27.9648    0.1296    1.4777 C.ar      1 RES1    0.0000
     12 C5        29.0916   -0.6703    1.6367 C.ar      1 RES1    0.0000
     13 H5        29.0071   -1.5234    1.9973 H         1 RES1    0.0000
     14 C6        30.3387   -0.1970    1.2742 C.ar      1 RES1    0.0000
     15 H6        31.0991   -0.6802    1.5076 H         1 RES1    0.0000
     16 C7        31.7497    1.4876    0.0299 C.2       1 RES1    0.0000
     17 C8        26.6269   -0.3521    1.9492 C.3       1 RES1    0.0000
     18 H7        26.5302   -0.1621    2.8851 H         1 RES1    0.0000
     19 H8        26.5589   -1.2986    1.8060 H         1 RES1    0.0000
     20 H9        25.9344    0.0966    1.4585 H         1 RES1    0.0000
     21 C9        29.2978    1.1887   -0.1857 Du        2 SUP2    0.0000
     22 H10       29.3518    1.5899   -1.0230 Du        2 SUP2    0.0000
     23 C10       28.0743    0.8286    0.3429 Du        2 SUP2    0.0000
     24 H11       27.2970    1.0733   -0.1052 Du        2 SUP2    0.0000
     25 C11       29.1457   -0.0839    2.2401 Du        2 SUP2    0.0000
     26 H12       29.0882   -0.4817    3.0793 Du        2 SUP2    0.0000
     27 C12       30.3961    0.2946    1.7340 Du        2 SUP2    0.0000
     28 H13       31.1775    0.0764    2.1891 Du        2 SUP2    0.0000
@<TRIPOS>BOND
     1    1    2 1
     2    3   16 2
     3    4    1 1
     4    5    4 1
     5    6    7 ar
     6    7    8 1
     7    9    7 ar
     8   10    9 1
     9   11    9 ar
    10   12   11 ar
    11   13   12 1
    12   14    6 ar
    13   15   14 1
    14   16    4 1
    15   17   11 1
    16   18   17 1
    17   19   17 1
    18   20   17 1
    19    6   16 1
    20   12   14 ar
@<TRIPOS>SUBSTRUCTURE
     1 RES1 1
     2 SUP2 21

@<TRIPOS>CRYSIN
  33.7960    4.7135    4.6776  90.0000  90.0000  90.0000  33 1

