# MOL2 file generated by ConQuest
# Please check atom types

@<TRIPOS>MOLECULE
XAWLAL
    56    58     1
SMALL
NO_CHARGES
****
Generated from CSD

@<TRIPOS>ATOM
      1 C1         1.2004   -2.1722  -14.3155 C.ar      1 RES1    0.0000
      2 H1         0.3807   -1.8223  -13.9861 H         1 RES1    0.0000
      3 C2         1.8882   -1.5334  -15.3353 C.ar      1 RES1    0.0000
      4 C3         3.0938   -1.9808  -15.8248 C.ar      1 RES1    0.0000
      5 H2         3.5539   -1.5198  -16.5163 H         1 RES1    0.0000
      6 C4         3.5998   -3.1324  -15.2607 C.ar      1 RES1    0.0000
      7 C5         2.9528   -3.8288  -14.2612 C.ar      1 RES1    0.0000
      8 H3         3.3272   -4.6260  -13.9055 H         1 RES1    0.0000
      9 C6         1.7432   -3.3398  -13.7872 C.ar      1 RES1    0.0000
     10 C7         1.0654   -4.0943  -12.6850 C.2       1 RES1    0.0000
     11 C8        -0.6030   -3.9809  -11.0236 C.3       1 RES1    0.0000
     12 H4         0.0356   -3.9724  -10.2678 H         1 RES1    0.0000
     13 H5        -0.8834   -4.9154  -11.1880 H         1 RES1    0.0000
     14 C9        -1.8007   -3.1227  -10.7037 C.3       1 RES1    0.0000
     15 H6        -2.4204   -3.1586  -11.4876 H         1 RES1    0.0000
     16 C10       -2.5519   -3.6715   -9.4840 C.3       1 RES1    0.0000
     17 H7        -2.6514   -4.6624   -9.5708 H         1 RES1    0.0000
     18 C11       -3.9341   -3.0298   -9.2917 C.3       1 RES1    0.0000
     19 H8        -4.0245   -2.2081   -9.8358 H         1 RES1    0.0000
     20 H9        -4.6570   -3.6607   -9.5348 H         1 RES1    0.0000
     21 C12       -3.9655   -2.7084   -7.8084 C.3       1 RES1    0.0000
     22 H10       -4.5909   -1.9585   -7.5950 H         1 RES1    0.0000
     23 C13       -2.5172   -2.3375   -7.5655 C.3       1 RES1    0.0000
     24 H11       -2.3249   -1.4406   -7.9622 H         1 RES1    0.0000
     25 C14       -2.1090   -2.3546   -6.1143 C.3       1 RES1    0.0000
     26 H12       -2.4710   -1.5494   -5.6667 H         1 RES1    0.0000
     27 H13       -1.1210   -2.3175   -6.0541 H         1 RES1    0.0000
     28 C15       -2.6058   -3.5934   -5.3878 C.3       1 RES1    0.0000
     29 H14       -2.5181   -3.4287   -4.4052 H         1 RES1    0.0000
     30 C16       -4.0823   -3.8396   -5.6905 C.3       1 RES1    0.0000
     31 H15       -4.6159   -3.0766   -5.3240 H         1 RES1    0.0000
     32 C17       -4.6435   -5.1445   -5.1234 C.3       1 RES1    0.0000
     33 H16       -4.2634   -5.8847   -5.6783 H         1 RES1    0.0000
     34 C18       -6.1420   -5.2009   -5.2952 C.2       1 RES1    0.0000
     35 H17       -6.4915   -4.6379   -5.9764 H         1 RES1    0.0000
     36 C19       -6.9842   -5.8665   -4.6860 C.2       1 RES1    0.0000
     37 H18       -6.7132   -6.4540   -3.9905 H         1 RES1    0.0000
     38 H19       -7.9027   -5.7924   -4.9136 H         1 RES1    0.0000
     39 C20       -4.1989   -5.4015   -3.6917 C.3       1 RES1    0.0000
     40 H20       -4.5108   -4.6710   -3.1163 H         1 RES1    0.0000
     41 H21       -3.2206   -5.4505   -3.6564 H         1 RES1    0.0000
     42 H22       -4.5798   -6.2483   -3.3784 H         1 RES1    0.0000
     43 N1         1.3050   -0.3180  -15.9206 N.pl3     1 RES1    0.0000
     44 N2         4.8968   -3.6418  -15.7482 N.pl3     1 RES1    0.0000
     45 O1         0.2495    0.0906  -15.4615 O.2       1 RES1    0.0000
     46 O2         1.9291    0.2279  -16.8290 O.2       1 RES1    0.0000
     47 O3         5.5611   -2.9005  -16.4602 O.2       1 RES1    0.0000
     48 O4         5.2299   -4.7713  -15.4104 O.2       1 RES1    0.0000
     49 O5         0.0171   -3.4236  -12.2161 O.3       1 RES1    0.0000
     50 O6         1.4587   -5.1582  -12.2723 O.2       1 RES1    0.0000
     51 O7        -1.4345   -1.7659  -10.5008 O.3       1 RES1    0.0000
     52 O8        -1.7947   -3.3626   -8.2887 O.3       1 RES1    0.0000
     53 O9        -4.3003   -3.9120   -7.1132 O.3       1 RES1    0.0000
     54 O10       -1.7920   -4.7274   -5.7183 O.3       1 RES1    0.0000
     55 H23       -1.6963   -4.7126   -6.5380 H         1 RES1    0.0000
     56 H24       -0.8378   -1.7836   -9.8358 H         1 RES1    0.0000
@<TRIPOS>BOND
     1    1    2 1
     2    3    1 ar
     3    4    3 ar
     4    5    4 1
     5    6    4 ar
     6    7    6 ar
     7    8    7 1
     8    9    1 ar
     9   10    9 1
    10   11   12 1
    11   13   11 1
    12   14   11 1
    13   15   14 1
    14   16   14 1
    15   17   16 1
    16   18   16 1
    17   19   18 1
    18   20   18 1
    19   21   18 1
    20   22   21 1
    21   23   21 1
    22   24   23 1
    23   25   23 1
    24   26   25 1
    25   27   25 1
    26   28   25 1
    27   29   28 1
    28   30   28 1
    29   31   30 1
    30   32   30 1
    31   33   32 1
    32   34   32 1
    33   35   34 1
    34   36   34 2
    35   37   36 1
    36   38   36 1
    37   39   32 1
    38   40   39 1
    39   41   39 1
    40   42   39 1
    41   43    3 1
    42   44    6 1
    43   45   43 2
    44   46   43 2
    45   47   44 2
    46   48   44 2
    47   49   10 1
    48   50   10 2
    49   51   14 1
    50   52   16 1
    51   53   21 1
    52   54   28 1
    53   55   54 1
    54   56   51 1
    55    7    9 ar
    56   11   49 1
    57   23   52 1
    58   30   53 1
@<TRIPOS>SUBSTRUCTURE
     1 RES1 1

@<TRIPOS>CRYSIN
  25.2712    5.6984   18.5928  90.0000 129.2367  90.0000   5 1

