# MOL2 file generated by ConQuest
# Please check atom types

@<TRIPOS>MOLECULE
XAXTOF
    50    52     2
SMALL
NO_CHARGES
****
Generated from CSD

@<TRIPOS>ATOM
      1 N1        -1.6212    5.2133   -1.1872 N.ar      1 RES1    0.0000
      2 C1        -0.7809    6.0292   -0.5739 C.ar      1 RES1    0.0000
      3 H1        -0.8943    6.9629   -0.7061 H         1 RES1    0.0000
      4 C2         0.2592    5.6110    0.2535 C.ar      1 RES1    0.0000
      5 N2         1.0646    6.6537    0.8380 N.pl3     1 RES1    0.0000
      6 O1         0.8751    7.8171    0.5141 O.2       1 RES1    0.0000
      7 O2         1.9320    6.3394    1.6567 O.2       1 RES1    0.0000
      8 C3         0.4957    4.2388    0.5053 C.ar      1 RES1    0.0000
      9 C4        -0.4115    3.3905   -0.1706 C.ar      1 RES1    0.0000
     10 H2        -0.3258    2.4493   -0.0802 H         1 RES1    0.0000
     11 C5        -1.4051    3.8999   -0.9474 C.ar      1 RES1    0.0000
     12 H3        -1.9978    3.2810   -1.3567 H         1 RES1    0.0000
     13 N3         1.4621    3.7597    1.3213 N.pl3     1 RES1    0.0000
     14 H4         1.9211    4.3341    1.8122 H         1 RES1    0.0000
     15 C6         1.7232    2.3811    1.5765 C.ar      1 RES1    0.0000
     16 C7         1.8540    1.9710    2.8944 C.ar      1 RES1    0.0000
     17 H5         1.7493    2.6009    3.5977 H         1 RES1    0.0000
     18 C8         2.1375    0.6502    3.1889 C.ar      1 RES1    0.0000
     19 H6         2.2302    0.3750    4.0939 H         1 RES1    0.0000
     20 C9         2.2867   -0.2713    2.1703 C.ar      1 RES1    0.0000
     21 H7         2.4666   -1.1808    2.3737 H         1 RES1    0.0000
     22 C10        2.1714    0.1362    0.8555 C.ar      1 RES1    0.0000
     23 H8         2.2805   -0.4966    0.1555 H         1 RES1    0.0000
     24 C11        1.9005    1.4620    0.5468 C.ar      1 RES1    0.0000
     25 H9         1.8363    1.7392   -0.3595 H         1 RES1    0.0000
     26 N4         1.5280   15.0632    6.1460 N.ar      2 RES2    0.0000
     27 C12        0.9527   15.8816    5.2808 C.ar      2 RES2    0.0000
     28 H10        1.1956   16.7998    5.3119 H         2 RES2    0.0000
     29 C13        0.0148   15.4900    4.3253 C.ar      2 RES2    0.0000
     30 N5        -0.5539   16.5368    3.5232 N.pl3     2 RES2    0.0000
     31 O3        -0.0780   17.6699    3.5881 O.2       2 RES2    0.0000
     32 O4        -1.5173   16.2683    2.7989 O.2       2 RES2    0.0000
     33 C14       -0.3531   14.1292    4.1801 C.ar      2 RES2    0.0000
     34 C15        0.2542   13.2813    5.1343 C.ar      2 RES2    0.0000
     35 H11        0.0451   12.3541    5.1367 H         2 RES2    0.0000
     36 C16        1.1361   13.7718    6.0511 C.ar      2 RES2    0.0000
     37 H12        1.5060   13.1578    6.6736 H         2 RES2    0.0000
     38 N6        -1.2144   13.6680    3.2394 N.pl3     2 RES2    0.0000
     39 H13       -1.6969   14.2449    2.8362 H         2 RES2    0.0000
     40 C17       -1.4301   12.3058    2.8976 C.ar      2 RES2    0.0000
     41 C18       -2.7224   11.9103    2.5636 C.ar      2 RES2    0.0000
     42 H14       -3.4370   12.5336    2.6144 H         2 RES2    0.0000
     43 C19       -2.9685   10.6081    2.1575 C.ar      2 RES2    0.0000
     44 H15       -3.8517   10.3416    1.9331 H         2 RES2    0.0000
     45 C20       -1.9326    9.6980    2.0773 C.ar      2 RES2    0.0000
     46 H16       -2.1022    8.8038    1.8033 H         2 RES2    0.0000
     47 C21       -0.6476   10.0937    2.3972 C.ar      2 RES2    0.0000
     48 H17        0.0642    9.4680    2.3381 H         2 RES2    0.0000
     49 C22       -0.3860   11.3907    2.8034 C.ar      2 RES2    0.0000
     50 H18        0.5016   11.6540    3.0164 H         2 RES2    0.0000
@<TRIPOS>BOND
     1    1    2 ar
     2    2    3 1
     3    4    2 ar
     4    5    4 1
     5    6    5 2
     6    7    5 2
     7    8    4 ar
     8    9    8 ar
     9   10    9 1
    10   11    1 ar
    11   12   11 1
    12   13    8 1
    13   14   13 1
    14   15   13 1
    15   16   15 ar
    16   17   16 1
    17   18   16 ar
    18   19   18 1
    19   20   18 ar
    20   21   20 1
    21   22   20 ar
    22   23   22 1
    23   24   15 ar
    24   25   24 1
    25   26   27 ar
    26   27   28 1
    27   29   27 ar
    28   30   29 1
    29   31   30 2
    30   32   30 2
    31   33   29 ar
    32   34   33 ar
    33   35   34 1
    34   36   26 ar
    35   37   36 1
    36   38   33 1
    37   39   38 1
    38   40   38 1
    39   41   40 ar
    40   42   41 1
    41   43   41 ar
    42   44   43 1
    43   45   43 ar
    44   46   45 1
    45   47   45 ar
    46   48   47 1
    47   49   40 ar
    48   50   49 1
    49    9   11 ar
    50   22   24 ar
    51   34   36 ar
    52   47   49 ar
@<TRIPOS>SUBSTRUCTURE
     1 RES1 1
     2 RES2 26

@<TRIPOS>CRYSIN
   9.9036   19.9452   13.6660  90.0000 133.5610  90.0000  14 1

