# MOL2 file generated by ConQuest
# Please check atom types

@<TRIPOS>MOLECULE
XAYKEO
    56    58     2
SMALL
NO_CHARGES
****
Generated from CSD

@<TRIPOS>ATOM
      1 N1         4.0107    3.5968    2.7097 N.pl3     1 RES1    0.0000
      2 C1         7.2143    5.2640    0.6452 C.ar      1 RES1    0.0000
      3 C2         6.1446    4.7388    2.6823 C.ar      1 RES1    0.0000
      4 H1         6.1384    4.7388    3.6129 H         1 RES1    0.0000
      5 C3         2.5943    2.0950    3.4461 C.2       1 RES1    0.0000
      6 H2         2.1618    1.2920    3.6234 H         1 RES1    0.0000
      7 C4         6.1907    4.7236   -0.0547 C.ar      1 RES1    0.0000
      8 H3         6.2142    4.7097   -0.9840 H         1 RES1    0.0000
      9 O1         8.3916    5.6710   -1.2825 O.2       1 RES1    0.0000
     10 C5         7.2090    5.2876    2.0059 C.ar      1 RES1    0.0000
     11 H4         7.9171    5.6710    2.4725 H         1 RES1    0.0000
     12 C6         5.1101    4.1928    0.6204 C.ar      1 RES1    0.0000
     13 H5         4.3939    3.8372    0.1460 H         1 RES1    0.0000
     14 C7         2.1997    3.3648    3.9127 C.2       1 RES1    0.0000
     15 H6         1.4634    3.5399    4.4536 H         1 RES1    0.0000
     16 C8         3.7191    2.2465    2.6914 C.2       1 RES1    0.0000
     17 C9         3.0697    4.2804    3.4435 C.2       1 RES1    0.0000
     18 O2         9.2843    6.2281    0.5552 O.2       1 RES1    0.0000
     19 N2         8.3815    5.7655   -0.0821 N.pl3     1 RES1    0.0000
     20 C10        4.5545    1.2601    1.9798 C.3       1 RES1    0.0000
     21 H7         4.5158    1.4296    1.0362 H         1 RES1    0.0000
     22 H8         4.2277    0.3751    2.1597 H         1 RES1    0.0000
     23 H9         5.4626    1.3323    2.2822 H         1 RES1    0.0000
     24 C11        5.0940    4.1915    1.9941 C.ar      1 RES1    0.0000
     25 C12        3.1024    5.7322    3.6533 C.3       1 RES1    0.0000
     26 H10        2.3243    6.0031    4.1447 H         1 RES1    0.0000
     27 H11        3.1149    6.1781    2.8022 H         1 RES1    0.0000
     28 H12        3.8922    5.9670    4.1473 H         1 RES1    0.0000
     29 O3         3.2942    8.3732    6.2809 O.2       2 RES2    0.0000
     30 N3         2.1681    8.7872    6.3682 N.pl3     2 RES2    0.0000
     31 C13       -0.6242    8.5330    0.5930 C.3       2 RES2    0.0000
     32 H13       -1.1266    8.1912   -0.1499 H         2 RES2    0.0000
     33 H14       -0.9420    8.1342    1.4050 H         2 RES2    0.0000
     34 H15        0.3048    8.3204    0.4744 H         2 RES2    0.0000
     35 C14        1.5200    9.2540    5.1274 C.ar      2 RES2    0.0000
     36 C15        0.3155   10.2126    2.9078 C.ar      2 RES2    0.0000
     37 C16       -1.3805   10.8933   -0.1720 C.2       2 RES2    0.0000
     38 H16       -1.7863   10.6794   -0.9814 H         2 RES2    0.0000
     39 C17       -0.7899   10.0167    0.6673 C.2       2 RES2    0.0000
     40 C18       -0.2284   13.1440    2.5324 C.3       2 RES2    0.0000
     41 H17        0.7162   13.0842    2.6914 H         2 RES2    0.0000
     42 H18       -0.7005   13.0231    3.3588 H         2 RES2    0.0000
     43 H19       -0.4382   14.0067    2.1675 H         2 RES2    0.0000
     44 C19        0.2580    9.7375    5.2265 C.ar      2 RES2    0.0000
     45 H20       -0.1833    9.7444    6.0463 H         2 RES2    0.0000
     46 C20        1.5701    9.7013    2.8283 C.ar      2 RES2    0.0000
     47 H21        2.0089    9.6805    2.0085 H         2 RES2    0.0000
     48 N4        -0.3156   10.7489    1.7400 N.pl3     2 RES2    0.0000
     49 C21       -0.6365   12.0853    1.5679 C.2       2 RES2    0.0000
     50 C22        2.1939    9.2179    3.9453 C.ar      2 RES2    0.0000
     51 H22        3.0566    8.8733    3.8984 H         2 RES2    0.0000
     52 C23       -0.3612   10.2195    4.0913 C.ar      2 RES2    0.0000
     53 H23       -1.2314   10.5460    4.1330 H         2 RES2    0.0000
     54 O4         1.5583    8.8150    7.3979 O.2       2 RES2    0.0000
     55 C24       -1.2776   12.1826    0.3793 C.2       2 RES2    0.0000
     56 H24       -1.5960   12.9675   -0.0065 H         2 RES2    0.0000
@<TRIPOS>BOND
     1    1   16 1
     2    2    7 ar
     3    3    4 1
     4    5    6 1
     5    7    8 1
     6    9   19 2
     7   10    2 ar
     8   11   10 1
     9   12    7 ar
    10   13   12 1
    11   14    5 1
    12   15   14 1
    13   16    5 2
    14   17    1 1
    15   18   19 2
    16   19    2 1
    17   20   16 1
    18   21   20 1
    19   22   20 1
    20   23   20 1
    21   24    1 1
    22   25   17 1
    23   26   25 1
    24   27   25 1
    25   28   25 1
    26   29   30 2
    27   30   35 1
    28   31   32 1
    29   33   31 1
    30   34   31 1
    31   35   44 ar
    32   36   46 ar
    33   37   38 1
    34   39   31 1
    35   40   41 1
    36   42   40 1
    37   43   40 1
    38   44   45 1
    39   46   47 1
    40   48   36 1
    41   49   40 1
    42   50   35 ar
    43   51   50 1
    44   52   36 ar
    45   53   52 1
    46   54   30 2
    47   55   37 1
    48   56   55 1
    49    3   10 ar
    50    3   24 ar
    51   12   24 ar
    52   14   17 2
    53   37   39 2
    54   39   48 1
    55   44   52 ar
    56   46   50 ar
    57   48   49 1
    58   49   55 2
@<TRIPOS>SUBSTRUCTURE
     1 RES1 1
     2 RES2 29

@<TRIPOS>CRYSIN
  12.6600   13.8928   13.4480  90.0000 104.2600  90.0000  14 1

