# MOL2 file generated by ConQuest
# Please check atom types

@<TRIPOS>MOLECULE
XAYSAR
    37    38     1
SMALL
NO_CHARGES
****
Generated from CSD

@<TRIPOS>ATOM
      1 O1        -0.8893   -3.9530   -5.6276 O.3       1 RES1    0.0000
      2 O2        -1.0467   -1.5866   -4.2846 O.3       1 RES1    0.0000
      3 O3        -2.7391   -0.2162   -6.4065 O.3       1 RES1    0.0000
      4 O4        -0.6001   -2.8062   -7.6451 O.3       1 RES1    0.0000
      5 O5         1.1074   -1.1016   -3.9676 O.2       1 RES1    0.0000
      6 O6        -1.1094   -1.2734  -10.0260 O.3       1 RES1    0.0000
      7 O7        -2.2432   -0.7237    2.3972 O.2       1 RES1    0.0000
      8 O8        -0.1961   -1.2003    2.7997 O.2       1 RES1    0.0000
      9 N1        -1.1267   -1.0154    2.0485 N.pl3     1 RES1    0.0000
     10 C1        -0.2566   -2.8838   -6.2607 C.3       1 RES1    0.0000
     11 C2        -0.8240   -1.5885   -5.7031 C.3       1 RES1    0.0000
     12 C3        -2.1617   -1.5025   -6.4216 C.3       1 RES1    0.0000
     13 C4        -1.7474   -1.9311   -7.8374 C.3       1 RES1    0.0000
     14 C5        -1.3639   -0.7697   -8.7287 C.3       1 RES1    0.0000
     15 C6        -0.2783   -5.2164   -5.9025 C.3       1 RES1    0.0000
     16 H1        -0.7610   -5.9109   -5.4482 H         1 RES1    0.0000
     17 H2         0.6315   -5.2055   -5.5959 H         1 RES1    0.0000
     18 H3        -0.2954   -5.3809   -6.8482 H         1 RES1    0.0000
     19 C7         0.0248   -1.3085   -3.5228 C.2       1 RES1    0.0000
     20 C8        -0.3177   -1.2668   -2.0717 C.ar      1 RES1    0.0000
     21 C9        -1.6269   -1.3370   -1.6183 C.ar      1 RES1    0.0000
     22 C10       -1.9051   -1.2544   -0.2633 C.ar      1 RES1    0.0000
     23 C11       -0.8322   -1.1177    0.6031 C.ar      1 RES1    0.0000
     24 C12        0.4655   -1.0592    0.1933 C.ar      1 RES1    0.0000
     25 C13        0.7336   -1.1265   -1.1623 C.ar      1 RES1    0.0000
     26 H4         0.7684   -2.9752   -6.2768 H         1 RES1    0.0000
     27 H5        -0.2424   -0.8626   -5.9677 H         1 RES1    0.0000
     28 H6        -3.2652   -0.2266   -5.8307 H         1 RES1    0.0000
     29 H7        -2.4520   -2.4854   -8.3254 H         1 RES1    0.0000
     30 H8        -2.3726   -1.3524   -2.2736 H         1 RES1    0.0000
     31 H9        -2.8165   -1.2939    0.0880 H         1 RES1    0.0000
     32 H10        1.1776   -0.9137    0.7729 H         1 RES1    0.0000
     33 H11        1.5915   -1.0600   -1.4968 H         1 RES1    0.0000
     34 H12       -2.7608   -2.1565   -6.0508 H         1 RES1    0.0000
     35 H13       -0.6086   -0.3582   -8.4516 H         1 RES1    0.0000
     36 H14       -2.0854   -0.1535   -8.8136 H         1 RES1    0.0000
     37 H15       -1.0619   -0.5702  -10.5755 H         1 RES1    0.0000
@<TRIPOS>BOND
     1    1   10 1
     2    2   11 1
     3    3   12 1
     4    4   10 1
     5    5   19 2
     6    6   14 1
     7    7    9 2
     8    8    9 2
     9    9   23 1
    10   10   11 1
    11   11   12 1
    12   12   13 1
    13   13    4 1
    14   14   13 1
    15   15    1 1
    16   16   15 1
    17   17   15 1
    18   18   15 1
    19   19    2 1
    20   20   19 1
    21   21   20 ar
    22   22   21 ar
    23   23   22 ar
    24   24   23 ar
    25   25   20 ar
    26   26   10 1
    27   27   11 1
    28   28    3 1
    29   29   13 1
    30   30   21 1
    31   31   22 1
    32   32   24 1
    33   33   25 1
    34   34   12 1
    35   35   14 1
    36   36   14 1
    37   37    6 1
    38   24   25 ar
@<TRIPOS>SUBSTRUCTURE
     1 RES1 1

@<TRIPOS>CRYSIN
   9.7490    7.3100   10.6550  90.0000 113.3400  90.0000   4 1

