# MOL2 file generated by ConQuest
# Please check atom types

@<TRIPOS>MOLECULE
XAYXOM
    54    58     1
SMALL
NO_CHARGES
****
Generated from CSD

@<TRIPOS>ATOM
      1 O1        12.9749    1.4134    3.4469 O.3       1 RES1    0.0000
      2 O2        15.8326   -2.1969    3.2198 O.2       1 RES1    0.0000
      3 O3        13.4975   -2.2464    5.3144 O.3       1 RES1    0.0000
      4 O4        14.6755   -1.5795    1.4215 O.3       1 RES1    0.0000
      5 N1        12.0431    0.5717    2.7611 N.3       1 RES1    0.0000
      6 O5        16.8615    0.9006    2.4645 O.3       1 RES1    0.0000
      7 C1        13.9799   -0.6844    3.4971 C.3       1 RES1    0.0000
      8 C2        11.8769    0.9674    1.4018 C.ar      1 RES1    0.0000
      9 C3        12.5065   -0.8178    3.0259 C.3       1 RES1    0.0000
     10 H1        12.4892   -1.3204    2.1849 H         1 RES1    0.0000
     11 C4        12.2665    2.2316    0.9731 C.ar      1 RES1    0.0000
     12 H2        12.7413    2.7917    1.5431 H         1 RES1    0.0000
     13 C5        11.6106   -1.5138    4.0222 C.ar      1 RES1    0.0000
     14 C6        14.2588    0.8198    3.2028 C.3       1 RES1    0.0000
     15 H3        14.4974    0.9300    2.2583 H         1 RES1    0.0000
     16 C7        10.2338   -1.5141    3.8546 C.ar      1 RES1    0.0000
     17 H4         9.8596   -1.0215    3.1603 H         1 RES1    0.0000
     18 C8        12.1400   -2.2455    5.0726 C.ar      1 RES1    0.0000
     19 C9        15.2804    1.5051    4.0601 C.ar      1 RES1    0.0000
     20 C10       14.9391   -1.5786    2.7201 C.2       1 RES1    0.0000
     21 C11       14.0834   -0.9782    4.9892 C.3       1 RES1    0.0000
     22 H5        15.0164   -0.9788    5.2525 H         1 RES1    0.0000
     23 H6        13.6322   -0.2790    5.4866 H         1 RES1    0.0000
     24 C12       16.6077    1.5288    3.6523 C.ar      1 RES1    0.0000
     25 C13       11.1747    0.1477    0.5306 C.ar      1 RES1    0.0000
     26 H7        10.8989   -0.6968    0.8063 H         1 RES1    0.0000
     27 C14        9.4084   -2.2312    4.6996 C.ar      1 RES1    0.0000
     28 H8         8.4868   -2.2138    4.5791 H         1 RES1    0.0000
     29 C15       11.9442    2.6532   -0.3035 C.ar      1 RES1    0.0000
     30 H9        12.1960    3.5052   -0.5785 H         1 RES1    0.0000
     31 C16       10.8835    0.5896   -0.7546 C.ar      1 RES1    0.0000
     32 H10       10.4256    0.0305   -1.3400 H         1 RES1    0.0000
     33 C17       14.9490    2.1271    5.2510 C.ar      1 RES1    0.0000
     34 H11       14.0618    2.1315    5.5313 H         1 RES1    0.0000
     35 C18       11.2635    1.8432   -1.1701 C.ar      1 RES1    0.0000
     36 H12       11.0604    2.1360   -2.0289 H         1 RES1    0.0000
     37 C19       11.3191   -2.9865    5.9214 C.ar      1 RES1    0.0000
     38 H13       11.6867   -3.4838    6.6149 H         1 RES1    0.0000
     39 C20        9.9607   -2.9729    5.7213 C.ar      1 RES1    0.0000
     40 H14        9.4070   -3.4686    6.2813 H         1 RES1    0.0000
     41 C21       17.5725    2.1470    4.4416 C.ar      1 RES1    0.0000
     42 H15       18.4630    2.1543    4.1705 H         1 RES1    0.0000
     43 C22       15.9116    2.7435    6.0341 C.ar      1 RES1    0.0000
     44 H16       15.6749    3.1515    6.8358 H         1 RES1    0.0000
     45 C23       15.5351   -2.3952    0.5931 C.3       1 RES1    0.0000
     46 H17       15.2594   -2.3221   -0.3236 H         1 RES1    0.0000
     47 H18       15.4729   -3.3116    0.8735 H         1 RES1    0.0000
     48 H19       16.4432   -2.0949    0.6804 H         1 RES1    0.0000
     49 C24       17.2078    2.7445    5.6171 C.ar      1 RES1    0.0000
     50 H20       17.8553    3.1576    6.1407 H         1 RES1    0.0000
     51 C25       18.1349    1.0673    1.8605 C.3       1 RES1    0.0000
     52 H21       18.1640    0.5778    1.0349 H         1 RES1    0.0000
     53 H22       18.8147    0.7364    2.4521 H         1 RES1    0.0000
     54 H23       18.2868    1.9988    1.6860 H         1 RES1    0.0000
@<TRIPOS>BOND
     1    1    5 1
     2    2   20 2
     3    3   18 1
     4    4   20 1
     5    5    8 1
     6    6   24 1
     7    7    9 1
     8    8   11 ar
     9    9    5 1
    10   10    9 1
    11   11   12 1
    12   13    9 1
    13   14    1 1
    14   15   14 1
    15   16   13 ar
    16   17   16 1
    17   18   13 ar
    18   19   14 1
    19   20    7 1
    20   21    3 1
    21   22   21 1
    22   23   21 1
    23   24   19 ar
    24   25    8 ar
    25   26   25 1
    26   27   16 ar
    27   28   27 1
    28   29   11 ar
    29   30   29 1
    30   31   25 ar
    31   32   31 1
    32   33   19 ar
    33   34   33 1
    34   35   29 ar
    35   36   35 1
    36   37   18 ar
    37   38   37 1
    38   39   27 ar
    39   40   39 1
    40   41   24 ar
    41   42   41 1
    42   43   33 ar
    43   44   43 1
    44   45    4 1
    45   46   45 1
    46   47   45 1
    47   48   45 1
    48   49   41 ar
    49   50   49 1
    50   51    6 1
    51   52   51 1
    52   53   51 1
    53   54   51 1
    54    7   14 1
    55    7   21 1
    56   31   35 ar
    57   37   39 ar
    58   43   49 ar
@<TRIPOS>SUBSTRUCTURE
     1 RES1 1

@<TRIPOS>CRYSIN
  18.3791   15.2466    7.7235  90.0000  90.5140  90.0000  14 1

