# MOL2 file generated by ConQuest
# Please check atom types

@<TRIPOS>MOLECULE
XAYZEE
    80    82     2
SMALL
NO_CHARGES
****
Generated from CSD

@<TRIPOS>ATOM
      1 O1         0.0618    1.6220   10.3916 O.2       1 RES1    0.0000
      2 O2        -0.0655    3.6984   10.9777 O.2       1 RES1    0.0000
      3 O3         5.1723    3.0189    6.0423 O.3       1 RES1    0.0000
      4 O4        11.9685    3.8795    0.9317 O.2       1 RES1    0.0000
      5 O5        10.9034    5.5929   -0.0148 O.3       1 RES1    0.0000
      6 N1         0.4303    2.7891   10.3162 N.pl3     1 RES1    0.0000
      7 C1         1.5210    3.1164    9.3924 C.ar      1 RES1    0.0000
      8 C2         2.1729    2.0863    8.7360 C.ar      1 RES1    0.0000
      9 C3         3.2409    2.3965    7.9080 C.ar      1 RES1    0.0000
     10 C4         3.6359    3.7157    7.7362 C.ar      1 RES1    0.0000
     11 C5         2.9331    4.7303    8.3844 C.ar      1 RES1    0.0000
     12 C6         1.8805    4.4380    9.2282 C.ar      1 RES1    0.0000
     13 C7         4.8309    4.0973    6.9041 C.3       1 RES1    0.0000
     14 C8         6.2831    3.1794    5.2508 C.ar      1 RES1    0.0000
     15 C9         6.5852    2.1074    4.4221 C.ar      1 RES1    0.0000
     16 C10        7.6603    2.1818    3.5607 C.ar      1 RES1    0.0000
     17 C11        8.4839    3.3022    3.5047 C.ar      1 RES1    0.0000
     18 C12        8.1764    4.3540    4.3587 C.ar      1 RES1    0.0000
     19 C13        7.0868    4.3095    5.2243 C.ar      1 RES1    0.0000
     20 C14        9.6714    3.3211    2.5702 C.3       1 RES1    0.0000
     21 C15        9.8521    4.6079    1.8189 C.3       1 RES1    0.0000
     22 C16       11.0305    4.6190    0.8902 C.2       1 RES1    0.0000
     23 C17       11.9702    5.7502   -0.9756 C.3       1 RES1    0.0000
     24 O6        14.2927   11.3548   -4.3100 O.2       2 RES2    0.0000
     25 O7        13.8025   13.4441   -4.2511 O.2       2 RES2    0.0000
     26 O8         9.3945    9.8356    0.1743 O.3       2 RES2    0.0000
     27 O9         4.0241    7.2757    6.2897 O.2       2 RES2    0.0000
     28 O10        2.8359    9.1155    5.9866 O.3       2 RES2    0.0000
     29 N2        13.6505   12.2909   -3.8671 N.pl3     2 RES2    0.0000
     30 C18       12.6316   12.0192   -2.8475 C.ar      2 RES2    0.0000
     31 C19       12.5143   10.7416   -2.3508 C.ar      2 RES2    0.0000
     32 C20       11.5143   10.4731   -1.4340 C.ar      2 RES2    0.0000
     33 C21       10.6396   11.4789   -1.0241 C.ar      2 RES2    0.0000
     34 C22       10.7991   12.7629   -1.5325 C.ar      2 RES2    0.0000
     35 C23       11.7961   13.0456   -2.4480 C.ar      2 RES2    0.0000
     36 C24        9.5334   11.2329   -0.0386 C.3       2 RES2    0.0000
     37 C25        8.4740    9.4480    1.1216 C.ar      2 RES2    0.0000
     38 C26        8.4229    8.0929    1.4032 C.ar      2 RES2    0.0000
     39 C27        7.5354    7.6195    2.3512 C.ar      2 RES2    0.0000
     40 C28        6.6755    8.4703    3.0472 C.ar      2 RES2    0.0000
     41 C29        6.7454    9.8147    2.7363 C.ar      2 RES2    0.0000
     42 C30        7.6266   10.3141    1.7860 C.ar      2 RES2    0.0000
     43 C31        5.7418    7.9036    4.1017 C.3       2 RES2    0.0000
     44 C32        4.7343    8.8860    4.6601 C.3       2 RES2    0.0000
     45 C33        3.8496    8.3029    5.7123 C.2       2 RES2    0.0000
     46 C34        1.9254    8.6973    7.0288 C.3       2 RES2    0.0000
     47 H1         1.8940    1.1853    8.8512 H         1 RES1    0.0000
     48 H2         3.7051    1.7014    7.4557 H         1 RES1    0.0000
     49 H3         3.1826    5.6357    8.2440 H         1 RES1    0.0000
     50 H4         1.4153    5.1296    9.6837 H         1 RES1    0.0000
     51 H5         6.0513    1.3219    4.4477 H         1 RES1    0.0000
     52 H6         7.8442    1.4457    2.9887 H         1 RES1    0.0000
     53 H7         8.7279    5.1275    4.3523 H         1 RES1    0.0000
     54 H8         6.8953    5.0472    5.7920 H         1 RES1    0.0000
     55 H9         5.5656    4.2915    7.4751 H         1 RES1    0.0000
     56 H10        4.6225    4.8649    6.3839 H         1 RES1    0.0000
     57 H11        9.5621    2.6212    1.9376 H         1 RES1    0.0000
     58 H12        9.9646    5.3082    2.4507 H         1 RES1    0.0000
     59 H13        9.0678    4.7659    1.3069 H         1 RES1    0.0000
     60 H14       11.7921    6.5044   -1.5254 H         1 RES1    0.0000
     61 H15       12.0261    4.9710   -1.5158 H         1 RES1    0.0000
     62 H16       12.7920    5.8787   -0.5172 H         1 RES1    0.0000
     63 H17       10.4557    3.1652    3.0827 H         1 RES1    0.0000
     64 H18       13.1101   10.0563   -2.6318 H         2 RES2    0.0000
     65 H19       11.4222    9.5958   -1.0815 H         2 RES2    0.0000
     66 H20       10.2154   13.4552   -1.2475 H         2 RES2    0.0000
     67 H21       11.9054   13.9238   -2.7937 H         2 RES2    0.0000
     68 H22        8.9971    7.4896    0.9460 H         2 RES2    0.0000
     69 H23        7.5097    6.6877    2.5350 H         2 RES2    0.0000
     70 H24        6.1690   10.4201    3.1892 H         2 RES2    0.0000
     71 H25        7.6469   11.2441    1.5946 H         2 RES2    0.0000
     72 H26        9.7409   11.6598    0.7842 H         2 RES2    0.0000
     73 H27        8.7190   11.5840   -0.3803 H         2 RES2    0.0000
     74 H28        5.2644    7.1802    3.7133 H         2 RES2    0.0000
     75 H29        6.2715    7.5835    4.8225 H         2 RES2    0.0000
     76 H30        5.2062    9.6187    5.0369 H         2 RES2    0.0000
     77 H31        4.1889    9.1948    3.9457 H         2 RES2    0.0000
     78 H32        1.3665    8.0026    6.7006 H         2 RES2    0.0000
     79 H33        2.4206    8.3812    7.7738 H         2 RES2    0.0000
     80 H34        1.3888    9.4352    7.2953 H         2 RES2    0.0000
@<TRIPOS>BOND
     1    1    6 2
     2    2    6 2
     3    3   13 1
     4    4   22 2
     5    5   22 1
     6    6    7 1
     7    7    8 ar
     8    8    9 ar
     9    9   10 ar
    10   10   11 ar
    11   11   12 ar
    12   12    7 ar
    13   13   10 1
    14   14    3 1
    15   15   14 ar
    16   16   15 ar
    17   17   16 ar
    18   18   17 ar
    19   19   14 ar
    20   20   17 1
    21   21   20 1
    22   22   21 1
    23   23    5 1
    24   24   29 2
    25   25   29 2
    26   26   36 1
    27   27   45 2
    28   28   45 1
    29   29   30 1
    30   30   31 ar
    31   31   32 ar
    32   32   33 ar
    33   33   34 ar
    34   34   35 ar
    35   35   30 ar
    36   36   33 1
    37   37   26 1
    38   38   37 ar
    39   39   38 ar
    40   40   39 ar
    41   41   40 ar
    42   42   37 ar
    43   43   40 1
    44   44   43 1
    45   45   44 1
    46   46   28 1
    47   47    8 1
    48   48    9 1
    49   49   11 1
    50   50   12 1
    51   51   15 1
    52   52   16 1
    53   53   18 1
    54   54   19 1
    55   55   13 1
    56   56   13 1
    57   57   20 1
    58   58   21 1
    59   59   21 1
    60   60   23 1
    61   61   23 1
    62   62   23 1
    63   63   20 1
    64   64   31 1
    65   65   32 1
    66   66   34 1
    67   67   35 1
    68   68   38 1
    69   69   39 1
    70   70   41 1
    71   71   42 1
    72   72   36 1
    73   73   36 1
    74   74   43 1
    75   75   43 1
    76   76   44 1
    77   77   44 1
    78   78   46 1
    79   79   46 1
    80   80   46 1
    81   18   19 ar
    82   41   42 ar
@<TRIPOS>SUBSTRUCTURE
     1 RES1 1
     2 RES2 24

@<TRIPOS>CRYSIN
  10.7434   10.9408   14.7225 100.0850 102.4510 110.3290   2 1

