# MOL2 file generated by ConQuest
# Please check atom types

@<TRIPOS>MOLECULE
XAYZEF
    58    61     2
SMALL
NO_CHARGES
****
Generated from CSD

@<TRIPOS>ATOM
      1 O1         7.5159    7.3065    7.8969 O.3       1 RES1    0.0000
      2 N1         8.4058    6.2730    8.4329 N.3       1 RES1    0.0000
      3 N2         8.4822    8.2467    9.7283 N.2       1 RES1    0.0000
      4 N3         7.3087    9.5790    8.1529 N.3       1 RES1    0.0000
      5 C1         7.8208    8.4257    8.6461 C.2       1 RES1    0.0000
      6 C2         6.9287    9.7128    6.7746 C.ar      1 RES1    0.0000
      7 C3         9.9204    6.3148   10.4117 C.ar      1 RES1    0.0000
      8 C4         8.5946    6.7798    9.8314 C.3       1 RES1    0.0000
      9 C5         7.4518    6.2674   10.7256 C.ar      1 RES1    0.0000
     10 C6         7.4318    6.6753   12.0620 C.ar      1 RES1    0.0000
     11 H1         8.0988    7.2404   12.3793 H         1 RES1    0.0000
     12 C7         9.2962    5.9248    6.1665 C.ar      1 RES1    0.0000
     13 C8        10.7879    7.2088   11.0202 C.ar      1 RES1    0.0000
     14 H2        10.5707    8.1121   11.0606 H         1 RES1    0.0000
     15 C9        10.2504    4.9596   10.3745 C.ar      1 RES1    0.0000
     16 H3         9.6544    4.3495   10.0022 H         1 RES1    0.0000
     17 C10       11.4608    4.5149   10.8881 C.ar      1 RES1    0.0000
     18 H4        11.6890    3.6155   10.8270 H         1 RES1    0.0000
     19 C11        6.4424    5.4285   10.2621 C.ar      1 RES1    0.0000
     20 H5         6.4391    5.1546    9.3745 H         1 RES1    0.0000
     21 C12        9.8221    6.0123    3.8106 C.ar      1 RES1    0.0000
     22 H6        10.3500    6.3361    3.1167 H         1 RES1    0.0000
     23 C13        7.7406    9.2113    5.7634 C.ar      1 RES1    0.0000
     24 H7         8.5403    8.7880    5.9780 H         1 RES1    0.0000
     25 C14        7.3449   10.7794    8.9867 C.3       1 RES1    0.0000
     26 H8         7.7510   10.5709    9.8319 H         1 RES1    0.0000
     27 H9         6.4495   11.0954    9.1312 H         1 RES1    0.0000
     28 H10        7.8572   11.4607    8.5448 H         1 RES1    0.0000
     29 C15        8.2773    5.0208    5.8846 C.ar      1 RES1    0.0000
     30 H11        7.7594    4.6772    6.5765 H         1 RES1    0.0000
     31 C16       11.9866    6.7550   11.5742 C.ar      1 RES1    0.0000
     32 H12       12.5553    7.3550   11.9998 H         1 RES1    0.0000
     33 C17        8.0284    4.6283    4.5763 C.ar      1 RES1    0.0000
     34 H13        7.3429    4.0261    4.3965 H         1 RES1    0.0000
     35 C18        5.4261    5.4082   12.4545 C.ar      1 RES1    0.0000
     36 H14        4.7522    5.1229   13.0289 H         1 RES1    0.0000
     37 C19        9.6069    6.3530    7.5816 C.3       1 RES1    0.0000
     38 H15       10.3000    5.7817    7.9463 H         1 RES1    0.0000
     39 H16        9.9397    7.2643    7.5765 H         1 RES1    0.0000
     40 C20        5.4330    4.9963   11.1312 C.ar      1 RES1    0.0000
     41 H17        4.7647    4.4299   10.8197 H         1 RES1    0.0000
     42 C21        6.4318    6.2508   12.9243 C.ar      1 RES1    0.0000
     43 H18        6.4328    6.5268   13.8124 H         1 RES1    0.0000
     44 C22       10.0682    6.4194    5.1162 C.ar      1 RES1    0.0000
     45 H19       10.7519    7.0256    5.2894 H         1 RES1    0.0000
     46 C23        8.7929    5.1255    3.5376 C.ar      1 RES1    0.0000
     47 H20        8.6173    4.8671    2.6617 H         1 RES1    0.0000
     48 C24       12.3335    5.4170   11.4937 C.ar      1 RES1    0.0000
     49 H21       13.1447    5.1221   11.8416 H         1 RES1    0.0000
     50 C25        7.3587    9.3415    4.4315 C.ar      1 RES1    0.0000
     51 H22        7.8906    8.9831    3.7590 H         1 RES1    0.0000
     52 C26        5.7593   10.3881    6.4510 C.ar      1 RES1    0.0000
     53 H23        5.2229   10.7412    7.1239 H         1 RES1    0.0000
     54 C27        6.1833   10.0071    4.1092 C.ar      1 RES1    0.0000
     55 H24        5.9268   10.0970    3.2189 H         1 RES1    0.0000
     56 C28        5.3953   10.5342    5.1138 C.ar      1 RES1    0.0000
     57 H25        4.6148   10.9902    4.8953 H         1 RES1    0.0000
     58 H26        8.0238    5.4472    8.4135 Du        2 SUP2    0.0000
@<TRIPOS>BOND
     1    1    2 1
     2    2    8 1
     3    3    5 2
     4    4    5 1
     5    5    1 1
     6    6    4 1
     7    7    8 1
     8    8    3 1
     9    9    8 1
    10   10    9 ar
    11   11   10 1
    12   12   29 ar
    13   13    7 ar
    14   14   13 1
    15   15    7 ar
    16   16   15 1
    17   17   15 ar
    18   18   17 1
    19   19    9 ar
    20   20   19 1
    21   21   22 1
    22   23    6 ar
    23   24   23 1
    24   25    4 1
    25   26   25 1
    26   27   25 1
    27   28   25 1
    28   29   30 1
    29   31   13 ar
    30   32   31 1
    31   33   29 ar
    32   34   33 1
    33   35   36 1
    34   37    2 1
    35   38   37 1
    36   39   37 1
    37   40   19 ar
    38   41   40 1
    39   42   10 ar
    40   43   42 1
    41   44   12 ar
    42   45   44 1
    43   46   21 ar
    44   47   46 1
    45   48   17 ar
    46   49   48 1
    47   50   23 ar
    48   51   50 1
    49   52    6 ar
    50   53   52 1
    51   54   50 ar
    52   55   54 1
    53   56   52 ar
    54   57   56 1
    55   12   37 1
    56   21   44 ar
    57   31   48 ar
    58   33   46 ar
    59   35   40 ar
    60   35   42 ar
    61   54   56 ar
@<TRIPOS>SUBSTRUCTURE
     1 RES1 1
     2 SUP2 58

@<TRIPOS>CRYSIN
  20.8249    8.5553   24.3304  90.0000  90.0000  90.0000  61 1

