# MOL2 file generated by ConQuest
# Please check atom types

@<TRIPOS>MOLECULE
XAZCEI
    18    18     1
SMALL
NO_CHARGES
****
Generated from CSD

@<TRIPOS>ATOM
      1 O1         3.0412    0.7906    5.1618 O.3       1 RES1    0.0000
      2 H1         2.5105    0.8710    4.5332 H         1 RES1    0.0000
      3 O2         6.7057   -1.6604   10.3859 O.2       1 RES1    0.0000
      4 O3         8.3260   -2.2047    9.0683 O.2       1 RES1    0.0000
      5 N1         7.2054   -1.7505    9.2580 N.pl3     1 RES1    0.0000
      6 C1         4.9178   -0.4638    5.9609 C.ar      1 RES1    0.0000
      7 C2         6.1986   -0.9809    5.7752 C.ar      1 RES1    0.0000
      8 H2         6.5546   -1.0390    4.8966 H         1 RES1    0.0000
      9 C3         6.9620   -1.4115    6.8456 C.ar      1 RES1    0.0000
     10 H3         7.8331   -1.7674    6.7164 H         1 RES1    0.0000
     11 C4         6.4099   -1.3051    8.1148 C.ar      1 RES1    0.0000
     12 C5         5.1427   -0.7958    8.3400 C.ar      1 RES1    0.0000
     13 H4         4.7938   -0.7358    9.2217 H         1 RES1    0.0000
     14 C6         4.3934   -0.3754    7.2518 C.ar      1 RES1    0.0000
     15 H5         3.5199   -0.0262    7.3852 H         1 RES1    0.0000
     16 C7         4.1216   -0.0234    4.7602 C.3       1 RES1    0.0000
     17 H6         4.7058    0.4817    4.1416 H         1 RES1    0.0000
     18 H7         3.7781   -0.8183    4.2801 H         1 RES1    0.0000
@<TRIPOS>BOND
     1    1    2 1
     2    3    5 2
     3    4    5 2
     4    5   11 1
     5    6    7 ar
     6    7    8 1
     7    9    7 ar
     8   10    9 1
     9   11    9 ar
    10   12   11 ar
    11   13   12 1
    12   14    6 ar
    13   15   14 1
    14   16    1 1
    15   17   16 1
    16   18   16 1
    17    6   16 1
    18   12   14 ar
@<TRIPOS>SUBSTRUCTURE
     1 RES1 1

@<TRIPOS>CRYSIN
   6.2216    7.4096    7.7833 110.8670  93.6670  90.7480   2 1

