# MOL2 file generated by ConQuest
# Please check atom types

@<TRIPOS>MOLECULE
XAZKUH
    65    70     1
SMALL
NO_CHARGES
****
Generated from CSD

@<TRIPOS>ATOM
      1 O1         0.7623    9.1105   10.1167 O.3       1 RES1    0.0000
      2 O2         3.3729   12.4180   11.7344 O.2       1 RES1    0.0000
      3 O3         1.5446    6.8049   13.4043 O.2       1 RES1    0.0000
      4 O4         4.7653    9.6897   15.6615 O.3       1 RES1    0.0000
      5 N1         1.3035    7.8939    9.4567 N.3       1 RES1    0.0000
      6 N2         2.6255   10.4328   10.8676 N.am      1 RES1    0.0000
      7 N3         3.2706    8.1981   13.7848 N.am      1 RES1    0.0000
      8 C1         1.6696    4.3972    5.9524 C.ar      1 RES1    0.0000
      9 H1         1.9875    3.7412    5.3754 H         1 RES1    0.0000
     10 C2         1.7318    5.7195    5.5922 C.ar      1 RES1    0.0000
     11 H2         2.0955    5.9582    4.7690 H         1 RES1    0.0000
     12 C3         1.2578    6.6969    6.4440 C.ar      1 RES1    0.0000
     13 H3         1.3045    7.5908    6.1920 H         1 RES1    0.0000
     14 C4         0.7139    6.3589    7.6723 C.ar      1 RES1    0.0000
     15 C5         0.2039    7.4308    8.5968 C.3       1 RES1    0.0000
     16 H4        -0.1446    8.1740    8.0789 H         1 RES1    0.0000
     17 H5        -0.5152    7.0783    9.1443 H         1 RES1    0.0000
     18 C6         1.6541    9.3834   11.1894 C.3       1 RES1    0.0000
     19 C7         3.6232   10.3476    9.7997 C.3       1 RES1    0.0000
     20 H6         3.7291    9.4182    9.5453 H         1 RES1    0.0000
     21 H7         4.4752   10.6588   10.1421 H         1 RES1    0.0000
     22 C8         3.2689   11.1532    8.5712 C.ar      1 RES1    0.0000
     23 C9         2.4069   10.6444    7.6227 C.ar      1 RES1    0.0000
     24 H8         2.0473    9.7944    7.7382 H         1 RES1    0.0000
     25 C10        2.0698   11.3835    6.5008 C.ar      1 RES1    0.0000
     26 H9         1.4740   11.0337    5.8780 H         1 RES1    0.0000
     27 C11        2.6078   12.6240    6.3061 C.ar      1 RES1    0.0000
     28 H10        2.3913   13.1144    5.5470 H         1 RES1    0.0000
     29 C12        1.1368    4.0472    7.1659 C.ar      1 RES1    0.0000
     30 H11        1.0968    3.1520    7.4145 H         1 RES1    0.0000
     31 C13        0.6596    5.0244    8.0221 C.ar      1 RES1    0.0000
     32 H12        0.2975    4.7797    8.8423 H         1 RES1    0.0000
     33 C14        2.5887   11.4820   11.7383 C.2       1 RES1    0.0000
     34 C15        1.4627   11.2231   12.6619 C.ar      1 RES1    0.0000
     35 C16        0.8839   10.0189   12.3200 C.ar      1 RES1    0.0000
     36 C17       -0.2436    9.5504   12.9690 C.ar      1 RES1    0.0000
     37 H13       -0.6431    8.7462   12.7271 H         1 RES1    0.0000
     38 C18       -0.7550   10.3318   13.9964 C.ar      1 RES1    0.0000
     39 H14       -1.5189   10.0488   14.4448 H         1 RES1    0.0000
     40 C19       -0.1557   11.5196   14.3668 C.ar      1 RES1    0.0000
     41 H15       -0.5068   12.0089   15.0754 H         1 RES1    0.0000
     42 C20        0.9580   11.9913   13.6998 C.ar      1 RES1    0.0000
     43 H16        1.3560   12.7966   13.9375 H         1 RES1    0.0000
     44 C21        3.4688   13.1415    7.2362 C.ar      1 RES1    0.0000
     45 H17        3.8354   13.9873    7.1077 H         1 RES1    0.0000
     46 C22        3.7967   12.4125    8.3639 C.ar      1 RES1    0.0000
     47 H18        4.3805   12.7747    8.9921 H         1 RES1    0.0000
     48 C23        2.3388    8.0057   11.5044 C.3       1 RES1    0.0000
     49 H19        3.2604    8.0279   11.1713 H         1 RES1    0.0000
     50 C24        1.5322    7.0552   10.6410 C.3       1 RES1    0.0000
     51 H20        2.0357    6.2565   10.4223 H         1 RES1    0.0000
     52 H21        0.6980    6.8043   11.0674 H         1 RES1    0.0000
     53 C25        2.3571    7.6154   12.9750 C.2       1 RES1    0.0000
     54 C26        4.4237    8.9935   13.3707 C.3       1 RES1    0.0000
     55 H22        4.2791    9.3354   12.4759 H         1 RES1    0.0000
     56 H23        5.2164    8.4345   13.3553 H         1 RES1    0.0000
     57 C27        4.6344   10.1422   14.3219 C.3       1 RES1    0.0000
     58 H24        5.4341   10.6271   14.0680 H         1 RES1    0.0000
     59 H25        3.8819   10.7513   14.2612 H         1 RES1    0.0000
     60 C28        3.5925    8.9974   16.0490 C.3       1 RES1    0.0000
     61 H26        2.8317    9.5972   15.9886 H         1 RES1    0.0000
     62 H27        3.6775    8.7169   16.9743 H         1 RES1    0.0000
     63 C29        3.3434    7.7934   15.1865 C.3       1 RES1    0.0000
     64 H28        4.0614    7.1513   15.3049 H         1 RES1    0.0000
     65 H29        2.5110    7.3692   15.4475 H         1 RES1    0.0000
@<TRIPOS>BOND
     1    1    5 1
     2    2   33 2
     3    3   53 2
     4    4   57 1
     5    5   15 1
     6    6   18 1
     7    7   53 1
     8    8    9 1
     9   10    8 ar
    10   11   10 1
    11   12   10 ar
    12   13   12 1
    13   14   12 ar
    14   15   14 1
    15   16   15 1
    16   17   15 1
    17   18    1 1
    18   19    6 1
    19   20   19 1
    20   21   19 1
    21   22   19 1
    22   23   22 ar
    23   24   23 1
    24   25   23 ar
    25   26   25 1
    26   27   25 ar
    27   28   27 1
    28   29    8 ar
    29   30   29 1
    30   31   14 ar
    31   32   31 1
    32   33    6 1
    33   34   33 1
    34   35   18 1
    35   36   35 ar
    36   37   36 1
    37   38   36 ar
    38   39   38 1
    39   40   38 ar
    40   41   40 1
    41   42   34 ar
    42   43   42 1
    43   44   27 ar
    44   45   44 1
    45   46   22 ar
    46   47   46 1
    47   48   18 1
    48   49   48 1
    49   50    5 1
    50   51   50 1
    51   52   50 1
    52   53   48 1
    53   54    7 1
    54   55   54 1
    55   56   54 1
    56   57   54 1
    57   58   57 1
    58   59   57 1
    59   60    4 1
    60   61   60 1
    61   62   60 1
    62   63    7 1
    63   64   63 1
    64   65   63 1
    65   29   31 ar
    66   34   35 ar
    67   40   42 ar
    68   44   46 ar
    69   48   50 1
    70   60   63 1
@<TRIPOS>SUBSTRUCTURE
     1 RES1 1

@<TRIPOS>CRYSIN
  16.6179   12.1745   24.1593  90.0000  90.0000  90.0000  61 1

