# MOL2 file generated by ConQuest
# Please check atom types

@<TRIPOS>MOLECULE
XAZKOY
    39    41     1
SMALL
NO_CHARGES
****
Generated from CSD

@<TRIPOS>ATOM
      1 N1         7.6375    0.7430    8.5599 N.3       1 RES1    0.0000
      2 O1         8.4628    1.9367    8.2659 O.3       1 RES1    0.0000
      3 O2        10.4732    2.3996    7.4687 O.2       1 RES1    0.0000
      4 O3         9.7250    0.7141   10.6152 O.3       1 RES1    0.0000
      5 O4        11.2306   -0.9696   10.8315 O.3       1 RES1    0.0000
      6 C1         9.6837    1.5262    7.8050 C.2       1 RES1    0.0000
      7 C2         9.7972    0.0727    7.8520 C.3       1 RES1    0.0000
      8 H1        10.6411   -0.1990    8.2448 H         1 RES1    0.0000
      9 H2         9.7237   -0.3108    6.9643 H         1 RES1    0.0000
     10 C3         8.6321   -0.3468    8.7221 C.3       1 RES1    0.0000
     11 H3         8.2584   -1.1926    8.3976 H         1 RES1    0.0000
     12 C4         9.0169   -0.4761   10.2025 C.3       1 RES1    0.0000
     13 H4         8.2126   -0.5945   10.7480 H         1 RES1    0.0000
     14 C5        10.0112   -1.6158   10.4764 C.3       1 RES1    0.0000
     15 H5         9.6972   -2.1772   11.2031 H         1 RES1    0.0000
     16 H6        10.1309   -2.1646    9.6863 H         1 RES1    0.0000
     17 C6        10.8876    0.2867   11.3912 C.3       1 RES1    0.0000
     18 C7        11.9853    1.2797   11.1455 C.3       1 RES1    0.0000
     19 H7        11.7437    2.1249   11.5311 H         1 RES1    0.0000
     20 H8        12.1161    1.3843   10.2013 H         1 RES1    0.0000
     21 H9        12.7973    0.9648   11.5488 H         1 RES1    0.0000
     22 C8        10.4890    0.1419   12.8386 C.3       1 RES1    0.0000
     23 H10       10.2639    1.0038   13.1961 H         1 RES1    0.0000
     24 H11       11.2200   -0.2302   13.3372 H         1 RES1    0.0000
     25 H12        9.7283   -0.4406   12.9045 H         1 RES1    0.0000
     26 C9         6.8061    0.5885    7.3359 C.3       1 RES1    0.0000
     27 H13        7.3667    0.2993    6.5986 H         1 RES1    0.0000
     28 H14        6.4189    1.4462    7.0983 H         1 RES1    0.0000
     29 C10        4.6340   -0.1419    8.4188 C.ar      1 RES1    0.0000
     30 H15        4.6468    0.6348    8.9302 H         1 RES1    0.0000
     31 C11        5.6934   -0.4250    7.5498 C.ar      1 RES1    0.0000
     32 C12        3.5627   -1.0201    8.5175 C.ar      1 RES1    0.0000
     33 H16        2.8560   -0.8217    9.0890 H         1 RES1    0.0000
     34 C13        3.5370   -2.1718    7.7838 C.ar      1 RES1    0.0000
     35 H17        2.8176   -2.7572    7.8556 H         1 RES1    0.0000
     36 C14        4.5782   -2.4579    6.9420 C.ar      1 RES1    0.0000
     37 H18        4.5561   -3.2381    6.4364 H         1 RES1    0.0000
     38 C15        5.6557   -1.6115    6.8314 C.ar      1 RES1    0.0000
     39 H19        6.3633   -1.8352    6.2717 H         1 RES1    0.0000
@<TRIPOS>BOND
     1    1    2 1
     2    2    6 1
     3    3    6 2
     4    4   12 1
     5    5   14 1
     6    6    7 1
     7    7    8 1
     8    9    7 1
     9   10    1 1
    10   11   10 1
    11   12   10 1
    12   13   12 1
    13   14   12 1
    14   15   14 1
    15   16   14 1
    16   17    4 1
    17   18   17 1
    18   19   18 1
    19   20   18 1
    20   21   18 1
    21   22   17 1
    22   23   22 1
    23   24   22 1
    24   25   22 1
    25   26    1 1
    26   27   26 1
    27   28   26 1
    28   29   30 1
    29   31   26 1
    30   32   29 ar
    31   33   32 1
    32   34   32 ar
    33   35   34 1
    34   36   34 ar
    35   37   36 1
    36   38   31 ar
    37   39   38 1
    38    5   17 1
    39    7   10 1
    40   29   31 ar
    41   36   38 ar
@<TRIPOS>SUBSTRUCTURE
     1 RES1 1

@<TRIPOS>CRYSIN
  10.3300    6.0110   11.9450  90.0000 100.1500  90.0000   4 1

