# MOL2 file generated by ConQuest
# Please check atom types

@<TRIPOS>MOLECULE
XAZMAO
    40    42     1
SMALL
NO_CHARGES
****
Generated from CSD

@<TRIPOS>ATOM
      1 C1         3.8279    7.6758    3.7461 C.ar      1 RES1    0.0000
      2 C2         2.9105    8.0939    2.7989 C.ar      1 RES1    0.0000
      3 H1         2.8642    7.6636    1.9749 H         1 RES1    0.0000
      4 C3         2.0622    9.1523    3.0770 C.ar      1 RES1    0.0000
      5 H2         1.4528    9.4299    2.4328 H         1 RES1    0.0000
      6 C4         2.1020    9.7993    4.2820 C.ar      1 RES1    0.0000
      7 H3         1.5211   10.5028    4.4629 H         1 RES1    0.0000
      8 C5         3.0194    9.3879    5.2246 C.ar      1 RES1    0.0000
      9 H4         3.0665    9.8270    6.0415 H         1 RES1    0.0000
     10 C6         3.8685    8.3339    4.9670 C.ar      1 RES1    0.0000
     11 H5         4.4747    8.0607    5.6193 H         1 RES1    0.0000
     12 C7         6.1322    6.7102    3.7493 C.3       1 RES1    0.0000
     13 H6         6.4101    7.5984    3.4430 H         1 RES1    0.0000
     14 C8         6.5133    6.5322    5.1977 C.ar      1 RES1    0.0000
     15 C9         5.9762    5.5036    5.9541 C.ar      1 RES1    0.0000
     16 H7         5.3546    4.9284    5.5705 H         1 RES1    0.0000
     17 C10        6.3476    5.3177    7.2648 C.ar      1 RES1    0.0000
     18 H8         5.9754    4.6254    7.7630 H         1 RES1    0.0000
     19 C11        7.2527    6.1417    7.8264 C.ar      1 RES1    0.0000
     20 H9         7.4884    6.0156    8.7180 H         1 RES1    0.0000
     21 C12        7.8304    7.1548    7.1225 C.ar      1 RES1    0.0000
     22 H10        8.4610    7.7079    7.5227 H         1 RES1    0.0000
     23 C13        7.4599    7.3528    5.7752 C.ar      1 RES1    0.0000
     24 H11        7.8524    8.0341    5.2782 H         1 RES1    0.0000
     25 C14        6.7530    5.6232    2.8317 C.3       1 RES1    0.0000
     26 H12        7.0975    4.9074    3.4073 H         1 RES1    0.0000
     27 C15        5.5261    5.0777    2.0863 C.3       1 RES1    0.0000
     28 H13        5.1759    4.3102    2.5855 H         1 RES1    0.0000
     29 C16        7.9028    6.1395    1.9992 C.3       1 RES1    0.0000
     30 H14        8.6080    6.4547    2.5855 H         1 RES1    0.0000
     31 H15        8.2619    5.4151    1.4617 H         1 RES1    0.0000
     32 C17        5.6862    4.6729    0.6386 C.3       1 RES1    0.0000
     33 H16        4.8216    4.4285    0.2728 H         1 RES1    0.0000
     34 H17        6.0290    5.4228    0.1267 H         1 RES1    0.0000
     35 N1         4.6680    6.5434    3.5401 N.3       1 RES1    0.0000
     36 O1         4.5657    6.1328    2.1451 O.3       1 RES1    0.0000
     37 O2         7.4908    7.2080    1.1375 O.3       1 RES1    0.0000
     38 O3         6.5798    3.5700    0.5249 O.3       1 RES1    0.0000
     39 H18        8.1498    7.3772    0.5977 H         1 RES1    0.0000
     40 H19        6.1509    2.8757    0.7893 H         1 RES1    0.0000
@<TRIPOS>BOND
     1    1    2 ar
     2    2    3 1
     3    4    2 ar
     4    5    4 1
     5    6    4 ar
     6    7    6 1
     7    8    6 ar
     8    9    8 1
     9   10    1 ar
    10   11   10 1
    11   12   13 1
    12   14   12 1
    13   15   14 ar
    14   16   15 1
    15   17   15 ar
    16   18   17 1
    17   19   17 ar
    18   20   19 1
    19   21   19 ar
    20   22   21 1
    21   23   14 ar
    22   24   23 1
    23   25   12 1
    24   26   25 1
    25   27   25 1
    26   28   27 1
    27   29   25 1
    28   30   29 1
    29   31   29 1
    30   32   27 1
    31   33   32 1
    32   34   32 1
    33   35    1 1
    34   36   27 1
    35   37   29 1
    36   38   32 1
    37   39   37 1
    38   40   38 1
    39    8   10 ar
    40   12   35 1
    41   21   23 ar
    42   35   36 1
@<TRIPOS>SUBSTRUCTURE
     1 RES1 1

@<TRIPOS>CRYSIN
   8.1254   11.0602   32.4813  90.0000  90.0000  90.0000  61 1

