# MOL2 file generated by ConQuest
# Please check atom types

@<TRIPOS>MOLECULE
XAZMUI
    24    24     1
SMALL
NO_CHARGES
****
Generated from CSD

@<TRIPOS>ATOM
      1 C1         3.9812    1.1277   14.2656 C.ar      1 RES1    0.0000
      2 C2         5.1309    1.7640   14.7388 C.ar      1 RES1    0.0000
      3 H1         5.8048    1.9976   14.1422 H         1 RES1    0.0000
      4 C3         5.2816    2.0500   16.0792 C.ar      1 RES1    0.0000
      5 H2         6.0437    2.5027   16.3634 H         1 RES1    0.0000
      6 C4         4.3292    1.6821   17.0157 C.ar      1 RES1    0.0000
      7 C5         3.2111    1.0041   16.5450 C.ar      1 RES1    0.0000
      8 H3         2.5639    0.7258   17.1513 H         1 RES1    0.0000
      9 C6         3.0325    0.7303   15.2057 C.ar      1 RES1    0.0000
     10 H4         2.2708    0.2753   14.9256 H         1 RES1    0.0000
     11 C7         4.5051    1.9794   18.4797 C.3       1 RES1    0.0000
     12 H5         4.4764    1.1596   18.9785 H         1 RES1    0.0000
     13 H6         3.7995    2.5588   18.7747 H         1 RES1    0.0000
     14 H7         5.3524    2.4094   18.6185 H         1 RES1    0.0000
     15 C8         3.8598    0.8676   12.8256 C.2       1 RES1    0.0000
     16 H8         4.6578    0.7303   12.3671 H         1 RES1    0.0000
     17 C9         2.7518    0.8024   12.0942 C.2       1 RES1    0.0000
     18 C10        1.3377    1.0648   12.4764 C.3       1 RES1    0.0000
     19 H9         0.8749    0.2306   12.5822 H         1 RES1    0.0000
     20 H10        0.9114    1.5828   11.7897 H         1 RES1    0.0000
     21 H11        1.3152    1.5494   13.3044 H         1 RES1    0.0000
     22 N1         2.9323    0.4452   10.6719 N.pl3     1 RES1    0.0000
     23 O1         4.0474    0.2427   10.2297 O.2       1 RES1    0.0000
     24 O2         1.9459    0.3534    9.9783 O.2       1 RES1    0.0000
@<TRIPOS>BOND
     1    1    2 ar
     2    2    3 1
     3    4    2 ar
     4    5    4 1
     5    6    4 ar
     6    7    6 ar
     7    8    7 1
     8    9    1 ar
     9   10    9 1
    10   11    6 1
    11   12   11 1
    12   13   11 1
    13   14   11 1
    14   15    1 1
    15   16   15 1
    16   17   15 2
    17   18   17 1
    18   19   18 1
    19   20   18 1
    20   21   18 1
    21   22   17 1
    22   23   22 2
    23   24   22 2
    24    7    9 ar
@<TRIPOS>SUBSTRUCTURE
     1 RES1 1

@<TRIPOS>CRYSIN
  11.0610    7.5840   22.6420  90.0000  90.0000  90.0000  61 1

