# MOL2 file generated by ConQuest
# Please check atom types

@<TRIPOS>MOLECULE
XAZQAR
    23    24     1
SMALL
NO_CHARGES
****
Generated from CSD

@<TRIPOS>ATOM
      1 O1         5.0670    4.8810    1.8480 O.2       1 RES1    0.0000
      2 O2         4.5213    2.8517    2.3121 O.2       1 RES1    0.0000
      3 N1         3.9779    2.8028    7.2578 N.3       1 RES1    0.0000
      4 N2         4.8511    3.9810    2.6483 N.pl3     1 RES1    0.0000
      5 C1         4.5348    3.6570    6.3433 C.ar      1 RES1    0.0000
      6 C2         4.4355    3.3853    4.9782 C.ar      1 RES1    0.0000
      7 C3         4.9949    4.2700    4.0785 C.ar      1 RES1    0.0000
      8 C4         5.6672    5.4015    4.4622 C.ar      1 RES1    0.0000
      9 C5         5.7668    5.6479    5.8181 C.ar      1 RES1    0.0000
     10 C6         5.2171    4.8094    6.7611 C.ar      1 RES1    0.0000
     11 C7         5.3442    5.0851    8.2445 C.3       1 RES1    0.0000
     12 C8         5.3025    3.7974    9.0308 C.3       1 RES1    0.0000
     13 C9         4.0617    3.0154    8.6920 C.3       1 RES1    0.0000
     14 H1         3.5653    2.1071    6.9661 H         1 RES1    0.0000
     15 H2         3.9981    2.6225    4.6764 H         1 RES1    0.0000
     16 H3         6.0375    5.9762    3.8313 H         1 RES1    0.0000
     17 H4         6.2195    6.4048    6.1131 H         1 RES1    0.0000
     18 H5         6.1724    5.5402    8.4147 H         1 RES1    0.0000
     19 H6         4.6121    5.6365    8.5295 H         1 RES1    0.0000
     20 H7         6.0638    3.2691    8.7788 H         1 RES1    0.0000
     21 H8         5.3356    3.9760    9.9742 H         1 RES1    0.0000
     22 H9         3.3002    3.5241    8.9787 H         1 RES1    0.0000
     23 H10        4.0731    2.1706    9.1469 H         1 RES1    0.0000
@<TRIPOS>BOND
     1    1    4 2
     2    2    4 2
     3    3    5 1
     4    4    7 1
     5    5    6 ar
     6    6    7 ar
     7    7    8 ar
     8    8    9 ar
     9    9   10 ar
    10   10    5 ar
    11   11   10 1
    12   12   11 1
    13   13    3 1
    14   14    3 1
    15   15    6 1
    16   16    8 1
    17   17    9 1
    18   18   11 1
    19   19   11 1
    20   20   12 1
    21   21   12 1
    22   22   13 1
    23   23   13 1
    24   12   13 1
@<TRIPOS>SUBSTRUCTURE
     1 RES1 1

@<TRIPOS>CRYSIN
   7.9850   10.5830   19.7900  90.0000  90.0000  90.0000  61 1

