# MOL2 file generated by ConQuest
# Please check atom types

@<TRIPOS>MOLECULE
XDHURC
    12    12     1
SMALL
NO_CHARGES
****
Generated from CSD

@<TRIPOS>ATOM
      1 C1        -1.5047    2.6019    1.9380 C.3       1 RES1    0.0000
      2 C2        -1.2229    1.8903    0.6223 C.2       1 RES1    0.0000
      3 C3         0.4738    0.6530    1.8498 C.2       1 RES1    0.0000
      4 H1        -2.4575    2.8984    1.9650 H         1 RES1    0.0000
      5 H2        -0.9017    3.3894    2.0355 H         1 RES1    0.0000
      6 H3        -0.0894    0.3265   -0.0725 H         1 RES1    0.0000
      7 H4         0.7056    1.4467    3.7345 H         1 RES1    0.0000
      8 N1        -0.2609    0.9009    0.7268 N.am      1 RES1    0.0000
      9 N2         0.0735    1.2698    2.9792 N.am      1 RES1    0.0000
     10 O1        -1.2694    1.6910    3.0190 O.3       1 RES1    0.0000
     11 O2        -1.7524    2.1558   -0.4203 O.2       1 RES1    0.0000
     12 O3         1.5058   -0.0424    1.8207 O.2       1 RES1    0.0000
@<TRIPOS>BOND
     1    1    2 1
     2    2    8 1
     3    3    8 1
     4    4    1 1
     5    5    1 1
     6    6    8 1
     7    7    9 1
     8    9    3 1
     9   10    1 1
    10   11    2 2
    11   12    3 2
    12    9   10 1
@<TRIPOS>SUBSTRUCTURE
     1 RES1 1

@<TRIPOS>CRYSIN
   5.1060   12.4610    7.1120  90.0000  90.0000  90.0000  19 1

