# MOL2 file generated by ConQuest
# Please check atom types

@<TRIPOS>MOLECULE
XEBCEO
    76    78     2
SMALL
NO_CHARGES
****
Generated from CSD

@<TRIPOS>ATOM
      1 O1         4.7321    4.5163   14.9651 O.2       1 RES1    0.0000
      2 O2         5.4305    3.8758   16.9083 O.2       1 RES1    0.0000
      3 O3         5.1949    6.6172   20.7217 O.2       1 RES1    0.0000
      4 O4         4.1494    8.5173   20.6585 O.2       1 RES1    0.0000
      5 O5         0.4699   12.1007   12.8539 O.3       1 RES1    0.0000
      6 N1         3.5112    6.8050   14.6676 N.pl3     1 RES1    0.0000
      7 H1         3.7206    6.0416   14.3158 H         1 RES1    0.0000
      8 N2         2.8812    7.8316   14.0064 N.2       1 RES1    0.0000
      9 N3         4.8759    4.7009   16.1857 N.pl3     1 RES1    0.0000
     10 N4         4.5524    7.4850   20.1286 N.pl3     1 RES1    0.0000
     11 C1         3.7555    6.9488   15.9911 C.ar      1 RES1    0.0000
     12 C2         4.3932    5.9354   16.7637 C.ar      1 RES1    0.0000
     13 C3         4.6457    6.1187   18.1167 C.ar      1 RES1    0.0000
     14 H2         5.0731    5.4554   18.6086 H         1 RES1    0.0000
     15 C4         4.2598    7.2840   18.7171 C.ar      1 RES1    0.0000
     16 C5         3.6340    8.3115   17.9972 C.ar      1 RES1    0.0000
     17 H3         3.3795    9.0980   18.4249 H         1 RES1    0.0000
     18 C6         3.4027    8.1450   16.6572 C.ar      1 RES1    0.0000
     19 H4         3.0042    8.8336   16.1753 H         1 RES1    0.0000
     20 C7         2.7891    7.7475   12.7181 C.2       1 RES1    0.0000
     21 C8         3.3274    6.6446   11.8630 C.3       1 RES1    0.0000
     22 H5         3.8361    6.0379   12.4070 H         1 RES1    0.0000
     23 H6         3.8936    7.0154   11.1818 H         1 RES1    0.0000
     24 H7         2.5998    6.1743   11.4526 H         1 RES1    0.0000
     25 C9         2.0928    8.8841   12.0478 C.ar      1 RES1    0.0000
     26 C10        1.5947    9.9438   12.8170 C.ar      1 RES1    0.0000
     27 H8         1.6804    9.9279   13.7420 H         1 RES1    0.0000
     28 C11        0.9753   11.0143   12.1987 C.ar      1 RES1    0.0000
     29 C12        0.8436   11.0392   10.8012 C.ar      1 RES1    0.0000
     30 H9         0.4413   11.7666   10.3827 H         1 RES1    0.0000
     31 C13        1.3143    9.9807   10.0532 C.ar      1 RES1    0.0000
     32 H10        1.2138    9.9926    9.1291 H         1 RES1    0.0000
     33 C14        1.9350    8.8986   10.6586 C.ar      1 RES1    0.0000
     34 H11        2.2443    8.1883   10.1441 H         1 RES1    0.0000
     35 C15        0.5409   12.1005   14.2798 C.3       1 RES1    0.0000
     36 H12        0.0609   12.8569   14.6244 H         1 RES1    0.0000
     37 H13        1.4593   12.1512   14.5544 H         1 RES1    0.0000
     38 H14        0.1498   11.2920   14.6188 H         1 RES1    0.0000
     39 O6         3.2513    6.1242    8.5775 O.2       2 RES2    0.0000
     40 O7         4.0191    4.4204    9.6914 O.2       2 RES2    0.0000
     41 O8         6.2535    0.8519    7.5442 O.2       2 RES2    0.0000
     42 O9         5.8825    0.4655    5.4470 O.2       2 RES2    0.0000
     43 O10        1.5785    6.4116   -0.0511 O.3       2 RES2    0.0000
     44 N5         2.9518    5.9634    5.9884 N.pl3     2 RES2    0.0000
     45 H15        2.7281    6.4118    6.7072 H         2 RES2    0.0000
     46 N6         2.5238    6.3489    4.7447 N.2       2 RES2    0.0000
     47 N7         3.7436    4.9647    8.6300 N.pl3     2 RES2    0.0000
     48 N8         5.7564    1.1593    6.4542 N.pl3     2 RES2    0.0000
     49 C16        3.6073    4.7962    6.1310 C.ar      2 RES2    0.0000
     50 C17        4.0008    4.2708    7.3893 C.ar      2 RES2    0.0000
     51 C18        4.7022    3.0686    7.5039 C.ar      2 RES2    0.0000
     52 H16        4.9665    2.7478    8.3357 H         2 RES2    0.0000
     53 C19        4.9917    2.3745    6.3624 C.ar      2 RES2    0.0000
     54 C20        4.6089    2.8410    5.0887 C.ar      2 RES2    0.0000
     55 H17        4.8027    2.3444    4.3269 H         2 RES2    0.0000
     56 C21        3.9516    4.0266    4.9910 C.ar      2 RES2    0.0000
     57 H18        3.7205    4.3449    4.1489 H         2 RES2    0.0000
     58 C22        1.9486    7.5027    4.6485 C.2       2 RES2    0.0000
     59 C23        1.7664    8.4383    5.8039 C.3       2 RES2    0.0000
     60 H19        1.4976    7.9405    6.5803 H         2 RES2    0.0000
     61 H20        1.0897    9.0846    5.5900 H         2 RES2    0.0000
     62 H21        2.5944    8.8896    5.9838 H         2 RES2    0.0000
     63 C24        1.5033    7.8752    3.2773 C.ar      2 RES2    0.0000
     64 C25        1.7069    6.9944    2.2163 C.ar      2 RES2    0.0000
     65 H22        2.1137    6.1712    2.3670 H         2 RES2    0.0000
     66 C26        1.3016    7.3447    0.9317 C.ar      2 RES2    0.0000
     67 C27        0.6885    8.5731    0.6798 C.ar      2 RES2    0.0000
     68 H23        0.4150    8.8006   -0.1799 H         2 RES2    0.0000
     69 C28        0.4967    9.4434    1.7402 C.ar      2 RES2    0.0000
     70 H24        0.0969   10.2690    1.5869 H         2 RES2    0.0000
     71 C29        0.8930    9.1030    3.0317 C.ar      2 RES2    0.0000
     72 H25        0.7491    9.6976    3.7323 H         2 RES2    0.0000
     73 C30        0.9428    6.6050   -1.3274 C.3       2 RES2    0.0000
     74 H26        1.1188    5.8484   -1.8898 H         2 RES2    0.0000
     75 H27        1.2891    7.3993   -1.7402 H         2 RES2    0.0000
     76 H28       -0.0048    6.6965   -1.2024 H         2 RES2    0.0000
@<TRIPOS>BOND
     1    1    9 2
     2    2    9 2
     3    3   10 2
     4    4   10 2
     5    5   28 1
     6    6    7 1
     7    8    6 1
     8    9   12 1
     9   10   15 1
    10   11    6 1
    11   12   11 ar
    12   13   12 ar
    13   14   13 1
    14   15   13 ar
    15   16   15 ar
    16   17   16 1
    17   18   11 ar
    18   19   18 1
    19   20    8 2
    20   21   20 1
    21   22   21 1
    22   23   21 1
    23   24   21 1
    24   25   20 1
    25   26   25 ar
    26   27   26 1
    27   28   26 ar
    28   29   28 ar
    29   30   29 1
    30   31   29 ar
    31   32   31 1
    32   33   25 ar
    33   34   33 1
    34   35    5 1
    35   36   35 1
    36   37   35 1
    37   38   35 1
    38   39   47 2
    39   40   47 2
    40   41   48 2
    41   42   48 2
    42   43   66 1
    43   44   45 1
    44   46   44 1
    45   47   50 1
    46   48   53 1
    47   49   44 1
    48   50   49 ar
    49   51   50 ar
    50   52   51 1
    51   53   51 ar
    52   54   53 ar
    53   55   54 1
    54   56   49 ar
    55   57   56 1
    56   58   46 2
    57   59   58 1
    58   60   59 1
    59   61   59 1
    60   62   59 1
    61   63   58 1
    62   64   63 ar
    63   65   64 1
    64   66   64 ar
    65   67   66 ar
    66   68   67 1
    67   69   67 ar
    68   70   69 1
    69   71   63 ar
    70   72   71 1
    71   73   43 1
    72   74   73 1
    73   75   73 1
    74   76   73 1
    75   16   18 ar
    76   31   33 ar
    77   54   56 ar
    78   69   71 ar
@<TRIPOS>SUBSTRUCTURE
     1 RES1 1
     2 RES2 39

@<TRIPOS>CRYSIN
   7.5612   10.4517   19.5160  76.0340  89.5310  84.0520   2 1

