# MOL2 file generated by ConQuest
# Please check atom types

@<TRIPOS>MOLECULE
XEBKEW
    34    35     1
SMALL
NO_CHARGES
****
Generated from CSD

@<TRIPOS>ATOM
      1 O1         3.6379    7.8970   19.2042 O.3       1 RES1    0.0000
      2 O2         3.5610   10.1348   19.2696 O.2       1 RES1    0.0000
      3 C1         3.1080    7.9025   17.9434 C.ar      1 RES1    0.0000
      4 C2         3.2691    8.0604   15.5424 C.ar      1 RES1    0.0000
      5 H1         3.7478    8.2957   14.7804 H         1 RES1    0.0000
      6 C3         1.2316    7.2425   16.5404 C.ar      1 RES1    0.0000
      7 H2         0.3723    6.8978   16.4517 H         1 RES1    0.0000
      8 C4         3.8729    9.1166   19.8103 C.2       1 RES1    0.0000
      9 C5         1.7988    7.4548   17.7770 C.ar      1 RES1    0.0000
     10 O3         5.8418    8.5741   17.8874 O.2       1 RES1    0.0000
     11 C6         1.9942    7.5641   15.4426 C.ar      1 RES1    0.0000
     12 N1         0.9638    7.2126   18.9589 N.pl3     1 RES1    0.0000
     13 C7         4.4979    8.9366   21.1295 C.ar      1 RES1    0.0000
     14 C8         3.8283    8.2043   16.7951 C.ar      1 RES1    0.0000
     15 O4         0.2556    6.2300   18.9466 O.2       1 RES1    0.0000
     16 N2         5.2316    8.6700   16.8432 N.pl3     1 RES1    0.0000
     17 N3         1.4087    7.3930   14.1029 N.pl3     1 RES1    0.0000
     18 O5         1.0000    8.0399   19.8531 O.2       1 RES1    0.0000
     19 C9         4.4097    9.9737   22.0369 C.ar      1 RES1    0.0000
     20 H3         3.9748   10.7600   21.7975 H         1 RES1    0.0000
     21 O6         2.0346    7.8148   13.1574 O.2       1 RES1    0.0000
     22 C10        5.1519    7.7591   21.4632 C.ar      1 RES1    0.0000
     23 H4         5.2180    7.0640   20.8489 H         1 RES1    0.0000
     24 O7         5.7117    9.1052   15.8239 O.2       1 RES1    0.0000
     25 O8         0.3327    6.8539   14.0201 O.2       1 RES1    0.0000
     26 C11        5.7041    7.6385   22.7273 C.ar      1 RES1    0.0000
     27 H5         6.1505    6.8581   22.9651 H         1 RES1    0.0000
     28 C12        4.9665    9.8523   23.3142 C.ar      1 RES1    0.0000
     29 C13        5.5962    8.6619   23.6272 C.ar      1 RES1    0.0000
     30 H6         5.9575    8.5539   24.4763 H         1 RES1    0.0000
     31 C14        4.8609   10.9853   24.3092 C.3       1 RES1    0.0000
     32 H7         4.3921   11.7210   23.9066 H         1 RES1    0.0000
     33 H8         5.7412   11.2696   24.5657 H         1 RES1    0.0000
     34 H9         4.3820   10.6866   25.0860 H         1 RES1    0.0000
@<TRIPOS>BOND
     1    1    3 1
     2    2    8 2
     3    3    9 ar
     4    4    5 1
     5    6    7 1
     6    8    1 1
     7    9    6 ar
     8   10   16 2
     9   11    4 ar
    10   12    9 1
    11   13    8 1
    12   14    3 ar
    13   15   12 2
    14   16   14 1
    15   17   11 1
    16   18   12 2
    17   19   13 ar
    18   20   19 1
    19   21   17 2
    20   22   13 ar
    21   23   22 1
    22   24   16 2
    23   25   17 2
    24   26   22 ar
    25   27   26 1
    26   28   19 ar
    27   29   26 ar
    28   30   29 1
    29   31   28 1
    30   32   31 1
    31   33   31 1
    32   34   31 1
    33    4   14 ar
    34    6   11 ar
    35   28   29 ar
@<TRIPOS>SUBSTRUCTURE
     1 RES1 1

@<TRIPOS>CRYSIN
   7.4947    8.4366   23.8574  90.0000  99.3650  90.0000  14 1

