# MOL2 file generated by ConQuest
# Please check atom types

@<TRIPOS>MOLECULE
XEBNUN
   127   124     2
SMALL
NO_CHARGES
****
Generated from CSD

@<TRIPOS>ATOM
      1 O1        -0.5683    1.2777   11.8531 O.3       1 RES1    0.0000
      2 C1        -0.7630    1.9874   13.0649 C.3       1 RES1    0.0000
      3 H1         0.0800    2.3568   13.3543 H         1 RES1    0.0000
      4 C2        -1.6791    3.1803   12.8616 C.3       1 RES1    0.0000
      5 H2        -1.7874    3.7824   13.6408 H         1 RES1    0.0000
      6 C3        -1.1291    4.0349   11.7455 C.3       1 RES1    0.0000
      7 H3        -0.2333    4.4911   11.8761 H         1 RES1    0.0000
      8 C4        -0.9047    3.2051   10.4840 C.3       1 RES1    0.0000
      9 H4        -1.7738    2.8254   10.2480 H         1 RES1    0.0000
     10 C5         0.0935    2.0764   10.8402 C.3       1 RES1    0.0000
     11 H5         0.9037    2.4882   11.2810 H         1 RES1    0.0000
     12 N1         0.4804    1.2870    9.7271 N.3       1 RES1    0.0000
     13 C6         1.7688    0.5545    9.8013 C.3       1 RES1    0.0000
     14 H6         1.7279    0.0693    8.9212 H         1 RES1    0.0000
     15 C7         3.0729    1.4536    9.6781 C.3       1 RES1    0.0000
     16 C8         4.2480    0.4831    9.4421 C.3       1 RES1    0.0000
     17 H7         4.2843   -0.1459   10.1797 H         1 RES1    0.0000
     18 H8         4.0738   -0.0238    8.6333 H         1 RES1    0.0000
     19 C9         5.5983    1.1577    9.3115 C.3       1 RES1    0.0000
     20 H9         6.2757    0.4925    9.1675 H         1 RES1    0.0000
     21 H10        5.7922    1.6429   10.1174 H         1 RES1    0.0000
     22 H11        5.5809    1.7650    8.5694 H         1 RES1    0.0000
     23 C10        2.8958    2.4437    8.5145 C.3       1 RES1    0.0000
     24 H12        2.6288    1.9409    7.7294 H         1 RES1    0.0000
     25 H13        2.1644    3.0406    8.7357 H         1 RES1    0.0000
     26 C11        4.0555    3.2620    8.1554 C.3       1 RES1    0.0000
     27 H14        3.8278    3.8373    7.4222 H         1 RES1    0.0000
     28 H15        4.7835    2.6899    7.9001 H         1 RES1    0.0000
     29 H16        4.3173    3.7948    8.9108 H         1 RES1    0.0000
     30 C12        3.4026    2.2812   10.9381 C.2       1 RES1    0.0000
     31 O2         4.1046    1.7153   11.8034 O.3       1 RES1    0.0000
     32 C13        4.4825    2.4561   12.9892 C.3       1 RES1    0.0000
     33 H17        5.0160    1.8964   13.5591 H         1 RES1    0.0000
     34 H18        3.6930    2.7313   13.4597 H         1 RES1    0.0000
     35 H19        4.9901    3.2300   12.7339 H         1 RES1    0.0000
     36 O3         3.0730    3.4731   10.9530 O.2       1 RES1    0.0000
     37 C14        1.8120   -0.5504   10.8565 C.ar      1 RES1    0.0000
     38 C15        1.8491   -0.3124   12.2353 C.ar      1 RES1    0.0000
     39 H20        1.8964    0.5618   12.5484 H         1 RES1    0.0000
     40 C16        1.8177   -1.3501   13.1302 C.ar      1 RES1    0.0000
     41 H21        1.8403   -1.1784   14.0444 H         1 RES1    0.0000
     42 C17        1.7500   -2.6527   12.6716 C.ar      1 RES1    0.0000
     43 C18        1.7372   -2.9341   11.3285 C.ar      1 RES1    0.0000
     44 H22        1.7125   -3.8124   11.0242 H         1 RES1    0.0000
     45 C19        1.7619   -1.8757   10.4424 C.ar      1 RES1    0.0000
     46 H23        1.7443   -2.0567    9.5312 H         1 RES1    0.0000
     47 N2         1.7170   -3.7514   13.6437 N.pl3     1 RES1    0.0000
     48 O4         1.5983   -3.4814   14.8147 O.2       1 RES1    0.0000
     49 O5         1.8335   -4.8998   13.2178 O.2       1 RES1    0.0000
     50 C20       -0.5935    0.4707    9.1364 C.3       1 RES1    0.0000
     51 H24       -1.4496    0.8659    9.3649 H         1 RES1    0.0000
     52 H25       -0.5638   -0.4159    9.5282 H         1 RES1    0.0000
     53 C21       -0.5009    0.3435    7.6300 C.3       1 RES1    0.0000
     54 H26       -1.2251   -0.1986    7.3094 H         1 RES1    0.0000
     55 H27        0.3351   -0.0683    7.3940 H         1 RES1    0.0000
     56 H28       -0.5508    1.2146    7.2307 H         1 RES1    0.0000
     57 C22       -1.2866    0.9673   14.0533 C.3       1 RES1    0.0000
     58 H29       -2.1107    0.5721   13.7283 H         1 RES1    0.0000
     59 H30       -0.6355    0.2597   14.1869 H         1 RES1    0.0000
     60 O6        -1.5206    1.6812   15.2929 O.3       1 RES1    0.0000
     61 C23       -2.5076    1.2984   16.0525 C.2       1 RES1    0.0000
     62 O7        -3.1845    0.3890   15.7141 O.2       1 RES1    0.0000
     63 C24       -2.7410    2.1126   17.2828 C.3       1 RES1    0.0000
     64 C25       -4.1915    2.1674   17.5559 C.3       1 RES1    0.0000
     65 H31       -4.6468    2.5358   16.7946 H         1 RES1    0.0000
     66 H32       -4.3521    2.7220   18.3232 H         1 RES1    0.0000
     67 H33       -4.5188    1.2818   17.7266 H         1 RES1    0.0000
     68 C26       -1.8513    1.5777   18.3262 C.3       1 RES1    0.0000
     69 H34       -0.9434    1.6015   18.0145 H         1 RES1    0.0000
     70 H35       -2.0983    0.6714   18.5236 H         1 RES1    0.0000
     71 H36       -1.9317    2.1116   19.1202 H         1 RES1    0.0000
     72 C27       -2.2185    3.5796   17.0751 C.3       1 RES1    0.0000
     73 H37       -2.7474    4.0142   16.4013 H         1 RES1    0.0000
     74 H38       -1.3015    3.5548   16.7946 H         1 RES1    0.0000
     75 H39       -2.2898    4.0649   17.9002 H         1 RES1    0.0000
     76 O8        -2.9862    2.6692   12.4715 O.3       1 RES1    0.0000
     77 C28       -4.0742    3.2041   13.0530 C.2       1 RES1    0.0000
     78 O9        -4.0002    4.0887   13.8619 O.2       1 RES1    0.0000
     79 C29       -5.3484    2.5637   12.5737 C.3       1 RES1    0.0000
     80 C30       -6.4936    3.0996   13.3588 C.3       1 RES1    0.0000
     81 H40       -7.3091    2.6920   13.0545 H         1 RES1    0.0000
     82 H41       -6.5478    4.0504   13.2400 H         1 RES1    0.0000
     83 H42       -6.3650    2.9010   14.2893 H         1 RES1    0.0000
     84 C31       -5.5771    3.0696   11.1266 C.3       1 RES1    0.0000
     85 H43       -4.8667    2.7561   10.5612 H         1 RES1    0.0000
     86 H44       -5.5917    4.0287   11.1207 H         1 RES1    0.0000
     87 H45       -6.4161    2.7344   10.8001 H         1 RES1    0.0000
     88 C32       -5.2067    1.0398   12.4698 C.3       1 RES1    0.0000
     89 H46       -4.4340    0.8256   11.9414 H         1 RES1    0.0000
     90 H47       -5.9900    0.6735   12.0542 H         1 RES1    0.0000
     91 H48       -5.1066    0.6673   13.3484 H         1 RES1    0.0000
     92 O10       -2.0489    5.0932   11.4153 O.3       1 RES1    0.0000
     93 C33       -1.9737    6.1806   12.2189 C.2       1 RES1    0.0000
     94 O11       -1.2073    6.2747   13.1079 O.2       1 RES1    0.0000
     95 C34       -2.9980    7.2576   11.8509 C.3       1 RES1    0.0000
     96 C35       -3.6975    7.6735   13.1554 C.3       1 RES1    0.0000
     97 H49       -4.2081    6.9348   13.4953 H         1 RES1    0.0000
     98 H50       -4.2847    8.4142   12.9818 H         1 RES1    0.0000
     99 H51       -3.0398    7.9332   13.8040 H         1 RES1    0.0000
    100 C36       -4.1156    6.7486   11.0301 C.3       1 RES1    0.0000
    101 H52       -4.5062    5.9850   11.4591 H         1 RES1    0.0000
    102 H53       -3.7862    6.4951   10.1649 H         1 RES1    0.0000
    103 H54       -4.7793    7.4355   10.9322 H         1 RES1    0.0000
    104 C37       -2.2426    8.4287   11.3923 C.3       1 RES1    0.0000
    105 H55       -1.5555    8.6346   12.0290 H         1 RES1    0.0000
    106 H56       -2.8361    9.1788   11.3077 H         1 RES1    0.0000
    107 H57       -1.8446    8.2384   10.5404 H         1 RES1    0.0000
    108 O12       -0.3446    4.0638    9.4877 O.3       1 RES1    0.0000
    109 C38       -1.0537    4.2397    8.3602 C.2       1 RES1    0.0000
    110 O13       -2.0728    3.6655    8.1524 O.2       1 RES1    0.0000
    111 C39       -0.4425    5.2577    7.4148 C.3       1 RES1    0.0000
    112 C40       -1.4772    6.1475    6.9339 C.3       1 RES1    0.0000
    113 H58       -2.2112    5.6312    6.5955 H         1 RES1    0.0000
    114 H59       -1.1228    6.6999    6.2334 H         1 RES1    0.0000
    115 H60       -1.7813    6.7030    7.6552 H         1 RES1    0.0000
    116 C41        0.0760    4.4332    6.1963 C.3       1 RES1    0.0000
    117 H61        0.7649    3.8321    6.4857 H         1 RES1    0.0000
    118 H62        0.4294    5.0301    5.5329 H         1 RES1    0.0000
    119 H63       -0.6497    3.9304    5.8178 H         1 RES1    0.0000
    120 C42        0.7216    5.9250    7.9535 C.3       1 RES1    0.0000
    121 H64        1.3588    5.2691    8.2489 H         1 RES1    0.0000
    122 H65        0.4616    6.4754    8.6956 H         1 RES1    0.0000
    123 H66        1.1201    6.4723    7.2738 H         1 RES1    0.0000
    124 C43        3.0480    1.6212    7.1328 Du        2 SUP2    0.0000
    125 H67        2.9411    2.2202    6.3907 Du        2 SUP2    0.0000
    126 H68        2.3755    0.9373    7.0912 Du        2 SUP2    0.0000
    127 H69        3.9184    1.2177    7.0957 Du        2 SUP2    0.0000
@<TRIPOS>BOND
     1    1    2 1
     2    2    3 1
     3    4    2 1
     4    5    4 1
     5    6    4 1
     6    7    6 1
     7    8    6 1
     8    9    8 1
     9   10    1 1
    10   11   10 1
    11   12   10 1
    12   13   12 1
    13   14   13 1
    14   15   13 1
    15   16   15 1
    16   17   16 1
    17   18   16 1
    18   19   16 1
    19   20   19 1
    20   21   19 1
    21   22   19 1
    22   23   15 1
    23   24   23 1
    24   25   23 1
    25   26   23 1
    26   27   26 1
    27   28   26 1
    28   29   26 1
    29   30   15 1
    30   31   30 1
    31   32   31 1
    32   33   32 1
    33   34   32 1
    34   35   32 1
    35   36   30 2
    36   37   13 1
    37   38   37 ar
    38   39   38 1
    39   40   38 ar
    40   41   40 1
    41   42   40 ar
    42   43   42 ar
    43   44   43 1
    44   45   37 ar
    45   46   45 1
    46   47   42 1
    47   48   47 2
    48   49   47 2
    49   50   12 1
    50   51   50 1
    51   52   50 1
    52   53   50 1
    53   54   53 1
    54   55   53 1
    55   56   53 1
    56   57    2 1
    57   58   57 1
    58   59   57 1
    59   60   57 1
    60   61   60 1
    61   62   61 2
    62   63   61 1
    63   64   63 1
    64   65   64 1
    65   66   64 1
    66   67   64 1
    67   68   63 1
    68   69   68 1
    69   70   68 1
    70   71   68 1
    71   72   63 1
    72   73   72 1
    73   74   72 1
    74   75   72 1
    75   76    4 1
    76   77   76 1
    77   78   77 2
    78   79   77 1
    79   80   79 1
    80   81   80 1
    81   82   80 1
    82   83   80 1
    83   84   79 1
    84   85   84 1
    85   86   84 1
    86   87   84 1
    87   88   79 1
    88   89   88 1
    89   90   88 1
    90   91   88 1
    91   92    6 1
    92   93   92 1
    93   94   93 2
    94   95   93 1
    95   96   95 1
    96   97   96 1
    97   98   96 1
    98   99   96 1
    99  100   95 1
   100  101  100 1
   101  102  100 1
   102  103  100 1
   103  104   95 1
   104  105  104 1
   105  106  104 1
   106  107  104 1
   107  108    8 1
   108  109  108 1
   109  110  109 2
   110  111  109 1
   111  112  111 1
   112  113  112 1
   113  114  112 1
   114  115  112 1
   115  116  111 1
   116  117  116 1
   117  118  116 1
   118  119  116 1
   119  120  111 1
   120  121  120 1
   121  122  120 1
   122  123  120 1
   123    8   10 1
   124   43   45 ar
@<TRIPOS>SUBSTRUCTURE
     1 RES1 1
     2 SUP2 124

@<TRIPOS>CRYSIN
  15.4160   10.3458   15.9860  90.0000 111.8130  90.0000   4 1

