# MOL2 file generated by ConQuest
# Please check atom types

@<TRIPOS>MOLECULE
XEBNAU
    83    88     1
SMALL
NO_CHARGES
****
Generated from CSD

@<TRIPOS>ATOM
      1 N1         5.9927   12.8808   11.6139 N.2       1 RES1    0.0000
      2 O1         6.4009   11.6364   11.0350 O.3       1 RES1    0.0000
      3 H1         7.1025   11.9358   10.2212 H         1 RES1    0.0000
      4 O2        -2.6342   14.2989   18.5909 O.3       1 RES1    0.0000
      5 O3        -5.2327   15.5647   17.9377 O.3       1 RES1    0.0000
      6 H2        -5.7383   16.3466   18.0160 H         1 RES1    0.0000
      7 C1         3.5437   11.3197   13.6467 C.3       1 RES1    0.0000
      8 H3         3.3434   10.4963   14.1014 H         1 RES1    0.0000
      9 H4         3.0705   11.3237   12.8118 H         1 RES1    0.0000
     10 C2         5.0335   11.4333   13.3506 C.3       1 RES1    0.0000
     11 H5         5.3139   10.7075   12.7889 H         1 RES1    0.0000
     12 H6         5.5120   11.3745   14.1797 H         1 RES1    0.0000
     13 C3         5.3529   12.7405   12.6972 C.2       1 RES1    0.0000
     14 C4         4.8722   14.0169   13.3831 C.3       1 RES1    0.0000
     15 C5         3.3553   13.8178   13.7059 C.3       1 RES1    0.0000
     16 H7         2.9222   13.7215   12.8538 H         1 RES1    0.0000
     17 C6         2.6862   15.0100   14.3631 C.3       1 RES1    0.0000
     18 H8         2.8194   15.7959   13.8263 H         1 RES1    0.0000
     19 H9         3.0954   15.1584   15.2190 H         1 RES1    0.0000
     20 C7         1.2050   14.7387   14.5790 C.3       1 RES1    0.0000
     21 H10        0.8142   14.4847   13.7403 H         1 RES1    0.0000
     22 H11        0.7687   15.5380   14.8847 H         1 RES1    0.0000
     23 C8         0.9679   13.6387   15.5648 C.3       1 RES1    0.0000
     24 H12        1.3209   13.9942   16.3825 H         1 RES1    0.0000
     25 C9         1.8114   12.3849   15.3069 C.3       1 RES1    0.0000
     26 C10        3.0651   12.5026   14.4625 C.3       1 RES1    0.0000
     27 C11        1.0827   11.0310   15.2802 C.3       1 RES1    0.0000
     28 H13        1.7182   10.3560   15.5285 H         1 RES1    0.0000
     29 H14        0.8174   10.8559   14.3727 H         1 RES1    0.0000
     30 C12       -0.1472   10.8545   16.1877 C.3       1 RES1    0.0000
     31 H15        0.0282   10.1729   16.8411 H         1 RES1    0.0000
     32 H16       -0.8856   10.5578   15.6508 H         1 RES1    0.0000
     33 C13       -0.5868   12.1457   16.8907 C.3       1 RES1    0.0000
     34 C14       -0.5132   13.3112   15.8724 C.3       1 RES1    0.0000
     35 C15       -1.2603   14.4139   16.6194 C.3       1 RES1    0.0000
     36 H17       -1.5591   15.0835   15.9985 H         1 RES1    0.0000
     37 H18       -0.7016   14.8296   17.2805 H         1 RES1    0.0000
     38 C16       -2.4339   13.7108   17.3034 C.3       1 RES1    0.0000
     39 H19       -3.2254   13.8351   16.7742 H         1 RES1    0.0000
     40 C17       -2.0842   12.1925   17.3607 C.3       1 RES1    0.0000
     41 H20       -2.5952   11.7447   16.6806 H         1 RES1    0.0000
     42 C18        0.3378   12.3809   18.0867 C.3       1 RES1    0.0000
     43 H21        1.2548   12.3395   17.8039 H         1 RES1    0.0000
     44 H22        0.1570   13.2470   18.4593 H         1 RES1    0.0000
     45 H23        0.1786   11.7073   18.7535 H         1 RES1    0.0000
     46 C19        3.2308   12.3983   15.9355 C.3       1 RES1    0.0000
     47 H24        3.5718   11.5723   16.2870 H         1 RES1    0.0000
     48 H25        3.5069   13.1869   16.4074 H         1 RES1    0.0000
     49 C20       -2.4545   11.5335   18.6790 C.3       1 RES1    0.0000
     50 H26       -1.9987   12.0094   19.3782 H         1 RES1    0.0000
     51 C21       -2.0539   10.0526   18.7630 C.3       1 RES1    0.0000
     52 H27       -1.1152    9.9684   18.5853 H         1 RES1    0.0000
     53 H28       -2.2444    9.7171   19.6419 H         1 RES1    0.0000
     54 H29       -2.5498    9.5473   18.1135 H         1 RES1    0.0000
     55 C22       -3.9627   11.5870   18.9598 C.3       1 RES1    0.0000
     56 H30       -4.0980   11.3611   19.8826 H         1 RES1    0.0000
     57 H31       -4.3958   10.9133   18.4306 H         1 RES1    0.0000
     58 C23       -4.6729   12.9249   18.7401 C.3       1 RES1    0.0000
     59 H32       -5.5607   12.9089   19.1031 H         1 RES1    0.0000
     60 H33       -4.7444   13.0519   17.7925 H         1 RES1    0.0000
     61 C24       -3.9064   14.1145   19.2731 C.3       1 RES1    0.0000
     62 H34       -3.7061   13.9153   20.1902 H         1 RES1    0.0000
     63 C25       -4.7119   15.4230   19.2502 C.3       1 RES1    0.0000
     64 C26       -5.8552   15.3442   20.2647 C.3       1 RES1    0.0000
     65 H35       -6.3760   16.1501   20.2475 H         1 RES1    0.0000
     66 H36       -6.4139   14.5970   20.0392 H         1 RES1    0.0000
     67 H37       -5.4915   15.2185   21.1435 H         1 RES1    0.0000
     68 C27       -3.8360   16.6059   19.6247 C.3       1 RES1    0.0000
     69 H38       -3.1106   16.6928   19.0018 H         1 RES1    0.0000
     70 H39       -4.3481   17.4186   19.6342 H         1 RES1    0.0000
     71 H40       -3.4841   16.4388   20.5016 H         1 RES1    0.0000
     72 C28       -1.2743   12.9944   14.5618 C.3       1 RES1    0.0000
     73 H41       -2.1946   12.8033   14.7567 H         1 RES1    0.0000
     74 H42       -1.2235   13.7416   13.9619 H         1 RES1    0.0000
     75 H43       -0.8683   12.2272   14.1530 H         1 RES1    0.0000
     76 C29        5.7177   14.2228   14.6325 C.3       1 RES1    0.0000
     77 H44        6.6402   14.3390   14.3918 H         1 RES1    0.0000
     78 H45        5.4081   15.0020   15.0987 H         1 RES1    0.0000
     79 H46        5.6290   13.4529   15.1980 H         1 RES1    0.0000
     80 C30        5.0454   15.2292   12.4603 C.3       1 RES1    0.0000
     81 H47        5.9765   15.3615   12.2711 H         1 RES1    0.0000
     82 H48        4.5701   15.0782   11.6407 H         1 RES1    0.0000
     83 H49        4.6935   16.0098   12.8959 H         1 RES1    0.0000
@<TRIPOS>BOND
     1    1    2 1
     2    2    3 1
     3    4   38 1
     4    5    6 1
     5    7    8 1
     6    9    7 1
     7   10    7 1
     8   11   10 1
     9   12   10 1
    10   13    1 2
    11   14   13 1
    12   15   14 1
    13   16   15 1
    14   17   15 1
    15   18   17 1
    16   19   17 1
    17   20   17 1
    18   21   20 1
    19   22   20 1
    20   23   20 1
    21   24   23 1
    22   25   23 1
    23   26    7 1
    24   27   25 1
    25   28   27 1
    26   29   27 1
    27   30   27 1
    28   31   30 1
    29   32   30 1
    30   33   30 1
    31   34   23 1
    32   35   34 1
    33   36   35 1
    34   37   35 1
    35   38   35 1
    36   39   38 1
    37   40   33 1
    38   41   40 1
    39   42   33 1
    40   43   42 1
    41   44   42 1
    42   45   42 1
    43   46   25 1
    44   47   46 1
    45   48   46 1
    46   49   40 1
    47   50   49 1
    48   51   49 1
    49   52   51 1
    50   53   51 1
    51   54   51 1
    52   55   49 1
    53   56   55 1
    54   57   55 1
    55   58   55 1
    56   59   58 1
    57   60   58 1
    58   61    4 1
    59   62   61 1
    60   63    5 1
    61   64   63 1
    62   65   64 1
    63   66   64 1
    64   67   64 1
    65   68   63 1
    66   69   68 1
    67   70   68 1
    68   71   68 1
    69   72   34 1
    70   73   72 1
    71   74   72 1
    72   75   72 1
    73   76   14 1
    74   77   76 1
    75   78   76 1
    76   79   76 1
    77   80   14 1
    78   81   80 1
    79   82   80 1
    80   83   80 1
    81   10   13 1
    82   15   26 1
    83   25   26 1
    84   26   46 1
    85   33   34 1
    86   38   40 1
    87   58   61 1
    88   61   63 1
@<TRIPOS>SUBSTRUCTURE
     1 RES1 1

@<TRIPOS>CRYSIN
  10.8270   13.3660   19.1050  90.0000  90.0000  90.0000  19 1

