# MOL2 file generated by ConQuest
# Please check atom types

@<TRIPOS>MOLECULE
XEBPOM
   108   110     2
SMALL
NO_CHARGES
****
Generated from CSD

@<TRIPOS>ATOM
      1 O1         4.8168    5.4051   24.6648 O.3       1 RES1    0.0000
      2 H1         4.6528    4.7561   25.1716 H         1 RES1    0.0000
      3 O2         2.6609    6.2715   24.4877 O.3       1 RES1    0.0000
      4 O3         4.1127    5.6235   27.2404 O.2       1 RES1    0.0000
      5 O4         3.2867    7.7071   26.8779 O.3       1 RES1    0.0000
      6 O5         6.4078    8.2329   26.2468 O.2       1 RES1    0.0000
      7 O6         8.0383    7.3533   24.9485 O.3       1 RES1    0.0000
      8 N1         2.5181    6.9706   23.2557 N.2       1 RES1    0.0000
      9 C1         4.0023    6.4729   24.9976 C.3       1 RES1    0.0000
     10 C2         4.4781    7.7449   24.2839 C.3       1 RES1    0.0000
     11 H2         4.2857    8.5353   24.8672 H         1 RES1    0.0000
     12 C3         3.5218    7.7554   23.1111 C.2       1 RES1    0.0000
     13 C4         3.8193    6.5527   26.5260 C.2       1 RES1    0.0000
     14 C5         3.0531    8.0463   28.3136 C.3       1 RES1    0.0000
     15 C6         2.5868    9.4820   28.2312 C.3       1 RES1    0.0000
     16 H3         1.7992    9.5366   27.6486 H         1 RES1    0.0000
     17 H4         3.3039   10.0378   27.8631 H         1 RES1    0.0000
     18 H5         2.3542    9.8017   29.1293 H         1 RES1    0.0000
     19 C7         4.3583    7.9483   29.0795 C.3       1 RES1    0.0000
     20 H6         4.2569    8.3771   29.9562 H         1 RES1    0.0000
     21 H7         5.0679    8.3983   28.5758 H         1 RES1    0.0000
     22 H8         4.5941    7.0049   29.2020 H         1 RES1    0.0000
     23 C8         1.9529    7.1474   28.8505 C.3       1 RES1    0.0000
     24 H9         1.7245    7.4192   29.7624 H         1 RES1    0.0000
     25 H10        2.2645    6.2174   28.8560 H         1 RES1    0.0000
     26 H11        1.1611    7.2232   28.2783 H         1 RES1    0.0000
     27 C9         5.9675    7.7367   23.9362 C.3       1 RES1    0.0000
     28 H12        6.1853    6.9102   23.4384 H         1 RES1    0.0000
     29 H13        6.1757    8.5097   23.3554 H         1 RES1    0.0000
     30 C10        6.8075    7.8056   25.1865 C.2       1 RES1    0.0000
     31 C11        9.0751    7.3613   26.0168 C.3       1 RES1    0.0000
     32 C12       10.2981    6.8411   25.2840 C.3       1 RES1    0.0000
     33 H14       11.0611    6.8155   25.8981 H         1 RES1    0.0000
     34 H15       10.5041    7.4326   24.5316 H         1 RES1    0.0000
     35 H16       10.1177    5.9378   24.9502 H         1 RES1    0.0000
     36 C13        8.6579    6.4246   27.1231 C.3       1 RES1    0.0000
     37 H17        9.3899    6.3344   27.7697 H         1 RES1    0.0000
     38 H18        8.4466    5.5458   26.7457 H         1 RES1    0.0000
     39 H19        7.8660    6.7843   27.5760 H         1 RES1    0.0000
     40 C14        9.3152    8.7848   26.4786 C.3       1 RES1    0.0000
     41 H20        9.4188    9.3684   25.6975 H         1 RES1    0.0000
     42 H21       10.1305    8.8193   27.0225 H         1 RES1    0.0000
     43 H22        8.5533    9.0877   27.0155 H         1 RES1    0.0000
     44 C15        3.6532    8.5684   21.8823 C.ar      1 RES1    0.0000
     45 C16        3.0873    8.1209   20.6863 C.ar      1 RES1    0.0000
     46 H23        2.5857    7.3145   20.6742 H         1 RES1    0.0000
     47 C17        3.2516    8.8416   19.5153 C.ar      1 RES1    0.0000
     48 H24        2.8707    8.5275   18.7023 H         1 RES1    0.0000
     49 C18        3.9730   10.0245   19.5315 C.ar      1 RES1    0.0000
     50 H25        4.0958   10.5179   18.7299 H         1 RES1    0.0000
     51 C19        4.5162   10.4878   20.7157 C.ar      1 RES1    0.0000
     52 H26        5.0050   11.3020   20.7226 H         1 RES1    0.0000
     53 C20        4.3551    9.7772   21.8920 C.ar      1 RES1    0.0000
     54 H27        4.7200   10.1102   22.7050 H         1 RES1    0.0000
     55 O7         0.2937    3.9119   16.3152 O.3       2 RES2    0.0000
     56 H28       -0.3628    3.8427   16.7788 H         2 RES2    0.0000
     57 O8         1.0863    5.8620   17.3216 O.3       2 RES2    0.0000
     58 O9         0.3271    3.0938   18.8327 O.2       2 RES2    0.0000
     59 O10        2.2574    4.1905   19.2689 O.3       2 RES2    0.0000
     60 O11        2.9401    1.6541   17.0818 O.2       2 RES2    0.0000
     61 O12        2.1595    1.0332   15.0483 O.3       2 RES2    0.0000
     62 N2         1.8176    6.5772   16.3187 N.2       2 RES2    0.0000
     63 C21        1.2955    4.4466   17.1150 C.3       2 RES2    0.0000
     64 C22        2.6338    4.3799   16.3664 C.3       2 RES2    0.0000
     65 H29        3.3818    4.2771   17.0209 H         2 RES2    0.0000
     66 C23        2.6562    5.7740   15.7821 C.2       2 RES2    0.0000
     67 C24        1.2390    3.8152   18.5189 C.2       2 RES2    0.0000
     68 C25        2.3499    3.7324   20.6877 C.3       2 RES2    0.0000
     69 C26        3.6593    4.3339   21.1399 C.3       2 RES2    0.0000
     70 H30        3.6390    5.3041   20.9994 H         2 RES2    0.0000
     71 H31        4.3935    3.9441   20.6223 H         2 RES2    0.0000
     72 H32        3.7938    4.1457   22.0926 H         2 RES2    0.0000
     73 C27        2.4193    2.2143   20.7161 C.3       2 RES2    0.0000
     74 H33        2.6956    1.9169   21.6083 H         2 RES2    0.0000
     75 H34        3.0692    1.9046   20.0515 H         2 RES2    0.0000
     76 H35        1.5367    1.8434   20.5082 H         2 RES2    0.0000
     77 C28        1.1771    4.2983   21.4671 C.3       2 RES2    0.0000
     78 H36        1.2955    4.1067   22.4213 H         2 RES2    0.0000
     79 H37        0.3458    3.8862   21.1516 H         2 RES2    0.0000
     80 H38        1.1323    5.2684   21.3315 H         2 RES2    0.0000
     81 C29        2.7095    3.2748   15.3230 C.3       2 RES2    0.0000
     82 H39        1.9689    3.3883   14.6754 H         2 RES2    0.0000
     83 H40        3.5622    3.3537   14.8276 H         2 RES2    0.0000
     84 C30        2.6209    1.9058   15.9402 C.2       2 RES2    0.0000
     85 C31        1.9924   -0.4119   15.3811 C.3       2 RES2    0.0000
     86 C32        1.3852   -0.9523   14.0966 C.3       2 RES2    0.0000
     87 H41        1.1568   -1.8980   14.2152 H         2 RES2    0.0000
     88 H42        2.0319   -0.8621   13.3677 H         2 RES2    0.0000
     89 H43        0.5752   -0.4455   13.8797 H         2 RES2    0.0000
     90 C33        1.0319   -0.5681   16.5439 C.3       2 RES2    0.0000
     91 H44        0.8228   -1.5170   16.6681 H         2 RES2    0.0000
     92 H45        0.2070   -0.0735   16.3567 H         2 RES2    0.0000
     93 H46        1.4460   -0.2150   17.3600 H         2 RES2    0.0000
     94 C34        3.3477   -1.0325   15.6378 C.3       2 RES2    0.0000
     95 H47        3.9197   -0.9033   14.8518 H         2 RES2    0.0000
     96 H48        3.2410   -1.9904   15.8101 H         2 RES2    0.0000
     97 H49        3.7607   -0.6037   16.4155 H         2 RES2    0.0000
     98 C35        3.5259    6.2341   14.6771 C.ar      2 RES2    0.0000
     99 C36        3.0041    7.0638   13.6832 C.ar      2 RES2    0.0000
    100 H50        2.0820    7.2900   13.6929 H         2 RES2    0.0000
    101 C37        3.8279    7.5596   12.6816 C.ar      2 RES2    0.0000
    102 H51        3.4693    8.1321   12.0150 H         2 RES2    0.0000
    103 C38        5.1715    7.2198   12.6529 C.ar      2 RES2    0.0000
    104 H52        5.7381    7.5752   11.9769 H         2 RES2    0.0000
    105 C39        5.6869    6.3600   13.6126 C.ar      2 RES2    0.0000
    106 H53        6.6025    6.1105   13.5822 H         2 RES2    0.0000
    107 C40        4.8705    5.8654   14.6145 C.ar      2 RES2    0.0000
    108 H54        5.2280    5.2706   15.2635 H         2 RES2    0.0000
@<TRIPOS>BOND
     1    1    2 1
     2    3    8 1
     3    4   13 2
     4    5   13 1
     5    6   30 2
     6    7   30 1
     7    8   12 2
     8    9    1 1
     9   10    9 1
    10   11   10 1
    11   12   10 1
    12   13    9 1
    13   14    5 1
    14   15   14 1
    15   16   15 1
    16   17   15 1
    17   18   15 1
    18   19   14 1
    19   20   19 1
    20   21   19 1
    21   22   19 1
    22   23   14 1
    23   24   23 1
    24   25   23 1
    25   26   23 1
    26   27   10 1
    27   28   27 1
    28   29   27 1
    29   30   27 1
    30   31    7 1
    31   32   31 1
    32   33   32 1
    33   34   32 1
    34   35   32 1
    35   36   31 1
    36   37   36 1
    37   38   36 1
    38   39   36 1
    39   40   31 1
    40   41   40 1
    41   42   40 1
    42   43   40 1
    43   44   12 1
    44   45   44 ar
    45   46   45 1
    46   47   45 ar
    47   48   47 1
    48   49   47 ar
    49   50   49 1
    50   51   49 ar
    51   52   51 1
    52   53   44 ar
    53   54   53 1
    54   55   56 1
    55   57   62 1
    56   58   67 2
    57   59   67 1
    58   60   84 2
    59   61   84 1
    60   62   66 2
    61   63   55 1
    62   64   63 1
    63   65   64 1
    64   66   64 1
    65   67   63 1
    66   68   59 1
    67   69   68 1
    68   70   69 1
    69   71   69 1
    70   72   69 1
    71   73   68 1
    72   74   73 1
    73   75   73 1
    74   76   73 1
    75   77   68 1
    76   78   77 1
    77   79   77 1
    78   80   77 1
    79   81   64 1
    80   82   81 1
    81   83   81 1
    82   84   81 1
    83   85   61 1
    84   86   85 1
    85   87   86 1
    86   88   86 1
    87   89   86 1
    88   90   85 1
    89   91   90 1
    90   92   90 1
    91   93   90 1
    92   94   85 1
    93   95   94 1
    94   96   94 1
    95   97   94 1
    96   98   66 1
    97   99   98 ar
    98  100   99 1
    99  101   99 ar
   100  102  101 1
   101  103  101 ar
   102  104  103 1
   103  105  103 ar
   104  106  105 1
   105  107   98 ar
   106  108  107 1
   107    3    9 1
   108   51   53 ar
   109   57   63 1
   110  105  107 ar
@<TRIPOS>SUBSTRUCTURE
     1 RES1 1
     2 RES2 55

@<TRIPOS>CRYSIN
  10.6716   11.1383   34.5954  90.0000  90.0000  90.0000  19 1

