# MOL2 file generated by ConQuest
# Please check atom types

@<TRIPOS>MOLECULE
XEBRIG
    50    52     1
SMALL
USER_CHARGES
****
Generated from CSD

@<TRIPOS>ATOM
      1 O1         1.8196    2.8767   -1.1634 O.2       1 RES1   -1.0000
      2 O2         6.9581    0.8083   -3.9423 O.2       1 RES1    0.0000
      3 O3         7.3046    0.0318   -1.9444 O.2       1 RES1    0.0000
      4 N1         0.2704    1.8110    6.4485 N.3       1 RES1    0.0000
      5 N2        -1.2983    4.0837    5.7853 N.3       1 RES1    0.0000
      6 N3         2.3736    2.2179    1.2398 N.pl3     1 RES1    1.0000
      7 H1         1.8219    2.6479    0.3365 H         1 RES1    0.0000
      8 N4         6.6117    0.6405   -2.7644 N.pl3     1 RES1    0.0000
      9 C1         0.8526    2.0694    5.1937 C.ar      1 RES1    0.0000
     10 C2         2.0874    1.5288    4.8725 C.ar      1 RES1    0.0000
     11 H2         2.5775    1.0717    5.5460 H         1 RES1    0.0000
     12 C3         2.6360    1.6344    3.5938 C.ar      1 RES1    0.0000
     13 H3         3.5122    1.3060    3.4260 H         1 RES1    0.0000
     14 C4         1.9202    2.2072    2.5812 C.ar      1 RES1    0.0000
     15 C5        -0.1235    3.3521    1.8053 C.ar      1 RES1    0.0000
     16 H4         0.1787    3.2829    0.9070 H         1 RES1    0.0000
     17 C6        -1.3063    3.9592    2.0696 C.ar      1 RES1    0.0000
     18 H5        -1.8638    4.2386    1.3525 H         1 RES1    0.0000
     19 C7        -1.7120    4.1798    3.3919 C.ar      1 RES1    0.0000
     20 H6        -2.5158    4.6584    3.5590 H         1 RES1    0.0000
     21 C8        -0.9660    3.7140    4.4582 C.ar      1 RES1    0.0000
     22 C9         0.1754    2.8731    4.2016 C.ar      1 RES1    0.0000
     23 C10        0.6633    2.8210    2.8499 C.ar      1 RES1    0.0000
     24 C11       -1.0504    1.1947    6.4067 C.3       1 RES1    0.0000
     25 H7        -1.5243    1.3794    7.2446 H         1 RES1    0.0000
     26 H8        -0.9552    0.2257    6.2928 H         1 RES1    0.0000
     27 H9        -1.5600    1.5628    5.6550 H         1 RES1    0.0000
     28 C12        1.1102    1.1675    7.4477 C.3       1 RES1    0.0000
     29 H10        0.6398    1.1497    8.3071 H         1 RES1    0.0000
     30 H11        1.9470    1.6694    7.5443 H         1 RES1    0.0000
     31 H12        1.3102    0.2513    7.1645 H         1 RES1    0.0000
     32 C13       -2.5811    4.7340    5.9734 C.3       1 RES1    0.0000
     33 H13       -2.7562    4.8396    6.9322 H         1 RES1    0.0000
     34 H14       -3.2867    4.1862    5.5701 H         1 RES1    0.0000
     35 H15       -2.5662    5.6153    5.5444 H         1 RES1    0.0000
     36 C14       -0.2484    4.7838    6.5208 C.3       1 RES1    0.0000
     37 H16       -0.4357    4.7356    7.4818 H         1 RES1    0.0000
     38 H17       -0.2226    5.7221    6.2399 H         1 RES1    0.0000
     39 H18        0.6165    4.3626    6.3344 H         1 RES1    0.0000
     40 C15        3.8231    1.7278   -0.5735 C.ar      1 RES1    0.0000
     41 C16        2.9092    2.3260   -1.5316 C.ar      1 RES1    0.0000
     42 C17        3.2957    2.2689   -2.9108 C.ar      1 RES1    0.0000
     43 H19        2.7093    2.6207   -3.5702 H         1 RES1    0.0000
     44 C18        4.4731    1.7264   -3.2965 C.ar      1 RES1    0.0000
     45 H20        4.7098    1.7078   -4.2160 H         1 RES1    0.0000
     46 C19        5.3481    1.1889   -2.3314 C.ar      1 RES1    0.0000
     47 C20        5.0248    1.1783   -1.0014 C.ar      1 RES1    0.0000
     48 H21        5.6226    0.7958   -0.3702 H         1 RES1    0.0000
     49 C21        3.4816    1.6870    0.8052 C.2       1 RES1    0.0000
     50 H22        4.1014    1.2241    1.4534 H         1 RES1    0.0000
@<TRIPOS>BOND
     1    1   41 1
     2    2    8 2
     3    3    8 2
     4    4    9 1
     5    5   21 1
     6    6    7 1
     7    8   46 1
     8    9   10 ar
     9   10   11 1
    10   12   10 ar
    11   13   12 1
    12   14    6 1
    13   15   16 1
    14   17   15 ar
    15   18   17 1
    16   19   17 ar
    17   20   19 1
    18   21   19 ar
    19   22    9 ar
    20   23   14 ar
    21   24    4 1
    22   25   24 1
    23   26   24 1
    24   27   24 1
    25   28    4 1
    26   29   28 1
    27   30   28 1
    28   31   28 1
    29   32    5 1
    30   33   32 1
    31   34   32 1
    32   35   32 1
    33   36    5 1
    34   37   36 1
    35   38   36 1
    36   39   36 1
    37   40   41 ar
    38   41   42 ar
    39   42   43 1
    40   44   42 ar
    41   45   44 1
    42   46   44 ar
    43   47   40 ar
    44   48   47 1
    45   49    6 2
    46   50   49 1
    47   12   14 ar
    48   15   23 ar
    49   21   22 ar
    50   22   23 ar
    51   40   49 1
    52   46   47 ar
@<TRIPOS>SUBSTRUCTURE
     1 RES1 1

@<TRIPOS>CRYSIN
   6.6200    8.8200   16.1000  90.9100  95.1200 103.3300   2 1

