# MOL2 file generated by ConQuest
# Please check atom types

@<TRIPOS>MOLECULE
XECYEK
   106   114     2
SMALL
NO_CHARGES
****
Generated from CSD

@<TRIPOS>ATOM
      1 N1         4.3931    4.4740    8.1762 N.3       1 RES1    0.0000
      2 C1         5.5590    5.0703    7.6448 C.ar      1 RES1    0.0000
      3 C2         5.6839    6.1206    6.7416 C.ar      1 RES1    0.0000
      4 H1         4.9286    6.5126    6.3455 H         1 RES1    0.0000
      5 C3         6.9738    6.5719    6.4439 C.ar      1 RES1    0.0000
      6 H2         7.0858    7.2909    5.8486 H         1 RES1    0.0000
      7 C4         8.0890    5.9831    7.0073 C.ar      1 RES1    0.0000
      8 H3         8.9472    6.2913    6.7773 H         1 RES1    0.0000
      9 C5         7.9540    4.9329    7.9156 C.ar      1 RES1    0.0000
     10 H4         8.7132    4.5394    8.3040 H         1 RES1    0.0000
     11 C6         6.6867    4.4787    8.2401 C.ar      1 RES1    0.0000
     12 C7         6.2435    3.4559    9.2532 C.3       1 RES1    0.0000
     13 C8         4.7868    3.1955    8.7320 C.3       1 RES1    0.0000
     14 O1         4.9628    2.1985    7.6478 O.3       1 RES1    0.0000
     15 C9         4.1045    2.2639    6.5844 C.ar      1 RES1    0.0000
     16 C10        4.2426    1.2542    5.6314 C.ar      1 RES1    0.0000
     17 H5         4.9094    0.6003    5.7285 H         1 RES1    0.0000
     18 C11        3.3967    1.2238    4.5519 C.ar      1 RES1    0.0000
     19 H6         3.4995    0.5584    3.8952 H         1 RES1    0.0000
     20 C12        2.3792    2.1815    4.4216 C.ar      1 RES1    0.0000
     21 C13        2.2757    3.2129    5.3542 C.ar      1 RES1    0.0000
     22 H7         1.6022    3.8624    5.2558 H         1 RES1    0.0000
     23 C14        3.1520    3.2910    6.4222 C.ar      1 RES1    0.0000
     24 C15        3.1434    4.4425    7.3995 C.3       1 RES1    0.0000
     25 H8         3.0396    5.2859    6.9115 H         1 RES1    0.0000
     26 H9         2.3828    4.3485    8.0089 H         1 RES1    0.0000
     27 C16        6.1836    4.1156   10.6457 C.3       1 RES1    0.0000
     28 H10        7.0843    4.2776   10.9664 H         1 RES1    0.0000
     29 H11        5.7210    3.5268   11.2628 H         1 RES1    0.0000
     30 H12        5.7062    4.9575   10.5844 H         1 RES1    0.0000
     31 C17        7.1060    2.2017    9.3056 C.3       1 RES1    0.0000
     32 H13        7.9899    2.4303    9.6326 H         1 RES1    0.0000
     33 H14        7.1771    1.8213    8.4164 H         1 RES1    0.0000
     34 H15        6.6983    1.5536    9.9022 H         1 RES1    0.0000
     35 C18        3.7923    2.6299    9.7182 C.3       1 RES1    0.0000
     36 H16        2.9337    2.5156    9.2826 H         1 RES1    0.0000
     37 H17        3.6949    3.2418   10.4656 H         1 RES1    0.0000
     38 H18        4.1094    1.7721   10.0414 H         1 RES1    0.0000
     39 N2         1.5363    1.9992    3.2973 N.2       1 RES1    0.0000
     40 N3         0.4583    2.6415    3.3075 N.2       1 RES1    0.0000
     41 C19       -0.3332    2.3695    2.1348 C.ar      1 RES1    0.0000
     42 C20        0.2248    1.9934    0.9249 C.ar      1 RES1    0.0000
     43 H19        1.1592    1.9457    0.8342 H         1 RES1    0.0000
     44 C21       -0.5919    1.6867   -0.1546 C.ar      1 RES1    0.0000
     45 H20       -0.2235    1.4567   -0.9888 H         1 RES1    0.0000
     46 C22       -1.9677    1.7258    0.0281 C.ar      1 RES1    0.0000
     47 C23       -2.5406    2.1207    1.2162 C.ar      1 RES1    0.0000
     48 H21       -3.4749    2.1569    1.3108 H         1 RES1    0.0000
     49 C24       -1.7057    2.4650    2.2727 C.ar      1 RES1    0.0000
     50 H22       -2.0746    2.7630    3.0840 H         1 RES1    0.0000
     51 N4        -2.8150    1.3077   -1.0872 N.pl3     1 RES1    0.0000
     52 O2        -2.3187    1.2108   -2.1986 O.2       1 RES1    0.0000
     53 O3        -3.9952    1.0618   -0.8611 O.2       1 RES1    0.0000
     54 N5         5.7301   11.9475    5.5867 N.3       2 RES2    0.0000
     55 C25        6.8364   12.6071    4.9990 C.ar      2 RES2    0.0000
     56 C26        6.8810   13.5185    3.9591 C.ar      2 RES2    0.0000
     57 H23        6.1003   13.7731    3.5043 H         2 RES2    0.0000
     58 C27        8.1143   14.0450    3.6103 C.ar      2 RES2    0.0000
     59 H24        8.1643   14.6656    2.9051 H         2 RES2    0.0000
     60 C28        9.2775   13.6819    4.2708 C.ar      2 RES2    0.0000
     61 H25       10.0996   14.0581    4.0140 H         2 RES2    0.0000
     62 C29        9.2294   12.7590    5.3133 C.ar      2 RES2    0.0000
     63 H26       10.0153   12.5131    5.7681 H         2 RES2    0.0000
     64 C30        8.0159   12.2122    5.6697 C.ar      2 RES2    0.0000
     65 C31        7.6520   11.2198    6.7633 C.3       2 RES2    0.0000
     66 C32        6.2615   10.7656    6.2369 C.3       2 RES2    0.0000
     67 O4         6.5614    9.7394    5.2079 O.3       2 RES2    0.0000
     68 C33        5.6689    9.5837    4.1839 C.ar      2 RES2    0.0000
     69 C34        5.8633    8.4930    3.3548 C.ar      2 RES2    0.0000
     70 H27        6.5813    7.9071    3.5119 H         2 RES2    0.0000
     71 C35        5.0116    8.2586    2.3021 C.ar      2 RES2    0.0000
     72 H28        5.1639    7.5339    1.7234 H         2 RES2    0.0000
     73 C36        3.9112    9.1078    2.0964 C.ar      2 RES2    0.0000
     74 C37        3.7299   10.2202    2.9128 C.ar      2 RES2    0.0000
     75 H29        3.0016   10.7960    2.7620 H         2 RES2    0.0000
     76 C38        4.6190   10.4907    3.9553 C.ar      2 RES2    0.0000
     77 C39        4.5035   11.7363    4.8112 C.3       2 RES2    0.0000
     78 H30        4.3401   12.5131    4.2376 H         2 RES2    0.0000
     79 H31        3.7414   11.6437    5.4219 H         2 RES2    0.0000
     80 C40        7.5226   11.9590    8.1009 C.3       2 RES2    0.0000
     81 H32        8.4008   12.2310    8.4062 H         2 RES2    0.0000
     82 H33        7.1184   11.3703    8.7575 H         2 RES2    0.0000
     83 H34        6.9636   12.7431    7.9833 H         2 RES2    0.0000
     84 C41        8.6374   10.0654    6.8974 C.3       2 RES2    0.0000
     85 H35        9.4848   10.3996    7.2309 H         2 RES2    0.0000
     86 H36        8.7726    9.6517    6.0312 H         2 RES2    0.0000
     87 H37        8.2824    9.4087    7.5170 H         2 RES2    0.0000
     88 C42        5.3151   10.1407    7.2449 C.3       2 RES2    0.0000
     89 H38        4.4862    9.8962    6.8042 H         2 RES2    0.0000
     90 H39        5.1280   10.7772    7.9527 H         2 RES2    0.0000
     91 H40        5.7255    9.3465    7.6243 H         2 RES2    0.0000
     92 N6         3.0747    8.7519    0.9990 N.2       2 RES2    0.0000
     93 N7         1.9400    9.2973    0.9952 N.2       2 RES2    0.0000
     94 C43        1.1676    8.9400   -0.1571 C.ar      2 RES2    0.0000
     95 C44        1.7325    8.4510   -1.3389 C.ar      2 RES2    0.0000
     96 H41        2.6600    8.3020   -1.3874 H         2 RES2    0.0000
     97 C45        0.9366    8.1834   -2.4324 C.ar      2 RES2    0.0000
     98 H42        1.3113    7.8565   -3.2309 H         2 RES2    0.0000
     99 C46       -0.4312    8.4091   -2.3277 C.ar      2 RES2    0.0000
    100 C47       -1.0277    8.8474   -1.1549 C.ar      2 RES2    0.0000
    101 H43       -1.9602    8.9472   -1.0987 H         2 RES2    0.0000
    102 C48       -0.2165    9.1353   -0.0690 C.ar      2 RES2    0.0000
    103 H44       -0.5965    9.4608    0.7282 H         2 RES2    0.0000
    104 N8        -1.2592    8.1964   -3.5171 N.pl3     2 RES2    0.0000
    105 O5        -0.7110    8.1704   -4.6119 O.2       2 RES2    0.0000
    106 O6        -2.4659    8.0908   -3.3778 O.2       2 RES2    0.0000
@<TRIPOS>BOND
     1    1    2 1
     2    2    3 ar
     3    3    4 1
     4    5    3 ar
     5    6    5 1
     6    7    5 ar
     7    8    7 1
     8    9    7 ar
     9   10    9 1
    10   11    2 ar
    11   12   11 1
    12   13    1 1
    13   14   13 1
    14   15   14 1
    15   16   15 ar
    16   17   16 1
    17   18   16 ar
    18   19   18 1
    19   20   18 ar
    20   21   20 ar
    21   22   21 1
    22   23   15 ar
    23   24    1 1
    24   25   24 1
    25   26   24 1
    26   27   12 1
    27   28   27 1
    28   29   27 1
    29   30   27 1
    30   31   12 1
    31   32   31 1
    32   33   31 1
    33   34   31 1
    34   35   13 1
    35   36   35 1
    36   37   35 1
    37   38   35 1
    38   39   20 1
    39   40   39 2
    40   41   40 1
    41   42   41 ar
    42   43   42 1
    43   44   42 ar
    44   45   44 1
    45   46   44 ar
    46   47   46 ar
    47   48   47 1
    48   49   41 ar
    49   50   49 1
    50   51   46 1
    51   52   51 2
    52   53   51 2
    53   54   55 1
    54   55   56 ar
    55   56   57 1
    56   58   56 ar
    57   59   58 1
    58   60   58 ar
    59   61   60 1
    60   62   60 ar
    61   63   62 1
    62   64   55 ar
    63   65   64 1
    64   66   54 1
    65   67   66 1
    66   68   67 1
    67   69   68 ar
    68   70   69 1
    69   71   69 ar
    70   72   71 1
    71   73   71 ar
    72   74   73 ar
    73   75   74 1
    74   76   68 ar
    75   77   54 1
    76   78   77 1
    77   79   77 1
    78   80   65 1
    79   81   80 1
    80   82   80 1
    81   83   80 1
    82   84   65 1
    83   85   84 1
    84   86   84 1
    85   87   84 1
    86   88   66 1
    87   89   88 1
    88   90   88 1
    89   91   88 1
    90   92   73 1
    91   93   92 2
    92   94   93 1
    93   95   94 ar
    94   96   95 1
    95   97   95 ar
    96   98   97 1
    97   99   97 ar
    98  100   99 ar
    99  101  100 1
   100  102   94 ar
   101  103  102 1
   102  104   99 1
   103  105  104 2
   104  106  104 2
   105    9   11 ar
   106   12   13 1
   107   21   23 ar
   108   23   24 1
   109   47   49 ar
   110   62   64 ar
   111   65   66 1
   112   74   76 ar
   113   76   77 1
   114  100  102 ar
@<TRIPOS>SUBSTRUCTURE
     1 RES1 1
     2 RES2 54

@<TRIPOS>CRYSIN
  22.6610   14.4660   13.0770  90.0000 102.3300  90.0000  14 1

