# MOL2 file generated by ConQuest
# Please check atom types

@<TRIPOS>MOLECULE
XEDMIF
   112   120     2
SMALL
NO_CHARGES
****
Generated from CSD

@<TRIPOS>ATOM
      1 O1        10.3705   14.8543   11.0144 O.2       1 RES1    0.0000
      2 O2         9.4039    8.3227   13.0057 O.2       1 RES1    0.0000
      3 O3         8.3802    7.9943   11.1892 O.2       1 RES1    0.0000
      4 N1         5.3419   16.4837   10.3314 N.pl3     1 RES1    0.0000
      5 N2         8.9495    8.7071   11.9573 N.pl3     1 RES1    0.0000
      6 C1         6.3835   17.4198   10.7480 C.3       1 RES1    0.0000
      7 H1         6.6934   17.1864   11.6370 H         1 RES1    0.0000
      8 H2         6.0173   18.3182   10.7833 H         1 RES1    0.0000
      9 C2         7.5395   17.3848    9.7869 C.2       1 RES1    0.0000
     10 H3         7.7057   18.1408    9.2703 H         1 RES1    0.0000
     11 C3         8.3328   16.3361    9.6343 C.2       1 RES1    0.0000
     12 C4         8.1135   15.0683   10.3706 C.2       1 RES1    0.0000
     13 C5         6.8833   14.5803   10.6575 C.2       1 RES1    0.0000
     14 H4         6.8907   13.7456   11.0684 H         1 RES1    0.0000
     15 C6         5.5849   15.1112   10.4444 C.2       1 RES1    0.0000
     16 C7         4.3524   14.4511   10.3891 C.2       1 RES1    0.0000
     17 C8         3.3777   15.4427   10.2415 C.2       1 RES1    0.0000
     18 H5         2.4631   15.2886   10.1794 H         1 RES1    0.0000
     19 C9         3.9845   16.6998   10.2012 C.2       1 RES1    0.0000
     20 C10        3.3266   17.9771    9.9849 C.ar      1 RES1    0.0000
     21 C11        3.9330   19.0339    9.3408 C.ar      1 RES1    0.0000
     22 H6         4.8248   18.9609    9.0842 H         1 RES1    0.0000
     23 C12        3.2433   20.2043    9.0657 C.ar      1 RES1    0.0000
     24 H7         3.6712   20.9092    8.6363 H         1 RES1    0.0000
     25 C13        1.9223   20.3192    9.4347 C.ar      1 RES1    0.0000
     26 H8         1.4489   21.0969    9.2418 H         1 RES1    0.0000
     27 C14        1.3170   19.2937   10.0788 C.ar      1 RES1    0.0000
     28 H9         0.4263   19.3750   10.3304 H         1 RES1    0.0000
     29 C15        2.0006   18.1280   10.3690 C.ar      1 RES1    0.0000
     30 H10        1.5698   17.4410   10.8235 H         1 RES1    0.0000
     31 C16        9.4561   16.3557    8.6196 C.3       1 RES1    0.0000
     32 H11        9.4010   17.1587    8.0962 H         1 RES1    0.0000
     33 H12        9.3792   15.5925    8.0426 H         1 RES1    0.0000
     34 H13       10.3000   16.3289    9.0758 H         1 RES1    0.0000
     35 C17        9.2950   14.3090   10.8101 C.2       1 RES1    0.0000
     36 C18        9.1878   12.8324   11.0835 C.ar      1 RES1    0.0000
     37 C19        8.6183   11.9508   10.1861 C.ar      1 RES1    0.0000
     38 H14        8.2636   12.2780    9.3911 H         1 RES1    0.0000
     39 C20        8.5621   10.6072   10.4377 C.ar      1 RES1    0.0000
     40 H15        8.2012   10.0238    9.8121 H         1 RES1    0.0000
     41 C21        9.0489   10.1371   11.6387 C.ar      1 RES1    0.0000
     42 C22        9.6497   10.9733   12.5545 C.ar      1 RES1    0.0000
     43 H16        9.9908   10.6386   13.3512 H         1 RES1    0.0000
     44 C23        9.7336   12.3211   12.2593 C.ar      1 RES1    0.0000
     45 H17       10.1608   12.8950   12.8547 H         1 RES1    0.0000
     46 C24        4.1289   13.0107   10.5350 C.ar      1 RES1    0.0000
     47 C25        3.0283   12.5658   11.2596 C.ar      1 RES1    0.0000
     48 H18        2.4240   13.1858   11.5967 H         1 RES1    0.0000
     49 C26        2.8170   11.2238   11.4860 C.ar      1 RES1    0.0000
     50 H19        2.0732   10.9454   11.9691 H         1 RES1    0.0000
     51 C27        3.7021   10.2985   10.9996 C.ar      1 RES1    0.0000
     52 H20        3.5700    9.3924   11.1640 H         1 RES1    0.0000
     53 C28        4.7849   10.7176   10.2666 C.ar      1 RES1    0.0000
     54 H21        5.3861   10.0903    9.9329 H         1 RES1    0.0000
     55 C29        4.9930   12.0658   10.0201 C.ar      1 RES1    0.0000
     56 H22        5.7187   12.3345    9.5052 H         1 RES1    0.0000
     57 O4         5.4408   15.2619   13.9382 O.2       2 RES2    0.0000
     58 O5         6.5323    8.4333   14.5135 O.2       2 RES2    0.0000
     59 O6         6.8933    8.8404   16.6269 O.2       2 RES2    0.0000
     60 N3        10.5114   16.8004   14.0612 N.pl3     2 RES2    0.0000
     61 N4         6.6790    9.1773   15.4645 N.pl3     2 RES2    0.0000
     62 C30        9.5049   17.5472   13.2992 C.3       2 RES2    0.0000
     63 H23        9.1682   16.9929   12.5779 H         2 RES2    0.0000
     64 H24        9.9135   18.3354   12.9084 H         2 RES2    0.0000
     65 C31        8.3708   17.9591   14.1848 C.2       2 RES2    0.0000
     66 H25        8.2459   18.8623   14.3626 H         2 RES2    0.0000
     67 C32        7.5350   17.0755   14.7249 C.2       2 RES2    0.0000
     68 C33        7.6879   15.6209   14.5269 C.2       2 RES2    0.0000
     69 C34        8.8966   14.9952   14.4850 C.2       2 RES2    0.0000
     70 H26        8.8499   14.0674   14.4347 H         2 RES2    0.0000
     71 C35       10.2189   15.5190   14.5035 C.2       2 RES2    0.0000
     72 C36       11.4111   14.8824   14.8389 C.2       2 RES2    0.0000
     73 C37       12.4304   15.8108   14.5940 C.2       2 RES2    0.0000
     74 H27       13.3378   15.6590   14.7299 H         2 RES2    0.0000
     75 C38       11.8813   16.9859   14.1160 C.2       2 RES2    0.0000
     76 C39       12.5694   18.2448   13.8527 C.ar      2 RES2    0.0000
     77 C40       13.9188   18.2046   13.4988 C.ar      2 RES2    0.0000
     78 H28       14.3394   17.3855   13.3747 H         2 RES2    0.0000
     79 C41       14.6283   19.3677   13.3361 C.ar      2 RES2    0.0000
     80 H29       15.5362   19.3241   13.1398 H         2 RES2    0.0000
     81 C42       14.0273   20.5841   13.4552 C.ar      2 RES2    0.0000
     82 H30       14.5172   21.3658   13.3361 H         2 RES2    0.0000
     83 C43       12.6816   20.6423   13.7537 C.ar      2 RES2    0.0000
     84 H31       12.2604   21.4695   13.8074 H         2 RES2    0.0000
     85 C44       11.9539   19.4951   13.9734 C.ar      2 RES2    0.0000
     86 H32       11.0536   19.5513   14.2032 H         2 RES2    0.0000
     87 C45        6.4472   17.5256   15.6692 C.3       2 RES2    0.0000
     88 H33        6.5333   18.4679   15.8302 H         2 RES2    0.0000
     89 H34        6.5274   17.0502   16.4978 H         2 RES2    0.0000
     90 H35        5.5899   17.3450   15.2767 H         2 RES2    0.0000
     91 C46        6.4885   14.7938   14.3642 C.2       2 RES2    0.0000
     92 C47        6.5325   13.3220   14.6896 C.ar      2 RES2    0.0000
     93 C48        6.0417   12.4166   13.7621 C.ar      2 RES2    0.0000
     94 H36        5.6663   12.7274   12.9704 H         2 RES2    0.0000
     95 C49        6.1059   11.0667   13.9969 C.ar      2 RES2    0.0000
     96 H37        5.8249   10.4584   13.3512 H         2 RES2    0.0000
     97 C50        6.5918   10.6300   15.2046 C.ar      2 RES2    0.0000
     98 C51        7.0186   11.5034   16.1807 C.ar      2 RES2    0.0000
     99 H38        7.3049   11.1911   17.0076 H         2 RES2    0.0000
    100 C52        7.0101   12.8429   15.9006 C.ar      2 RES2    0.0000
    101 H39        7.3305   13.4431   16.5347 H         2 RES2    0.0000
    102 C53       11.5655   13.4950   15.2834 C.ar      2 RES2    0.0000
    103 C54       10.6190   12.8523   16.0751 C.ar      2 RES2    0.0000
    104 H40        9.8981   13.3367   16.4072 H         2 RES2    0.0000
    105 C55       10.7317   11.5146   16.3770 C.ar      2 RES2    0.0000
    106 H41       10.0679   11.0972   16.8768 H         2 RES2    0.0000
    107 C56       11.8121   10.7943   15.9459 C.ar      2 RES2    0.0000
    108 H42       11.8873    9.8922   16.1573 H         2 RES2    0.0000
    109 C57       12.7787   11.4118   15.2046 C.ar      2 RES2    0.0000
    110 H43       13.5230   10.9275   14.9278 H         2 RES2    0.0000
    111 C58       12.6677   12.7407   14.8590 C.ar      2 RES2    0.0000
    112 H44       13.3293   13.1401   14.3424 H         2 RES2    0.0000
@<TRIPOS>BOND
     1    1   35 2
     2    2    5 2
     3    3    5 2
     4    4    6 1
     5    5   41 1
     6    6    7 1
     7    8    6 1
     8    9    6 1
     9   10    9 1
    10   11    9 2
    11   12   11 1
    12   13   12 2
    13   14   13 1
    14   15    4 1
    15   16   15 2
    16   17   16 1
    17   18   17 1
    18   19    4 1
    19   20   19 1
    20   21   20 ar
    21   22   21 1
    22   23   21 ar
    23   24   23 1
    24   25   23 ar
    25   26   25 1
    26   27   25 ar
    27   28   27 1
    28   29   20 ar
    29   30   29 1
    30   31   11 1
    31   32   31 1
    32   33   31 1
    33   34   31 1
    34   35   12 1
    35   36   35 1
    36   37   36 ar
    37   38   37 1
    38   39   37 ar
    39   40   39 1
    40   41   39 ar
    41   42   41 ar
    42   43   42 1
    43   44   36 ar
    44   45   44 1
    45   46   16 1
    46   47   46 ar
    47   48   47 1
    48   49   47 ar
    49   50   49 1
    50   51   49 ar
    51   52   51 1
    52   53   51 ar
    53   54   53 1
    54   55   46 ar
    55   56   55 1
    56   57   91 2
    57   58   61 2
    58   59   61 2
    59   60   62 1
    60   61   97 1
    61   62   63 1
    62   64   62 1
    63   65   62 1
    64   66   65 1
    65   67   65 2
    66   68   67 1
    67   69   68 2
    68   70   69 1
    69   71   60 1
    70   72   71 2
    71   73   72 1
    72   74   73 1
    73   75   60 1
    74   76   75 1
    75   77   76 ar
    76   78   77 1
    77   79   77 ar
    78   80   79 1
    79   81   79 ar
    80   82   81 1
    81   83   81 ar
    82   84   83 1
    83   85   76 ar
    84   86   85 1
    85   87   67 1
    86   88   87 1
    87   89   87 1
    88   90   87 1
    89   91   68 1
    90   92   91 1
    91   93   92 ar
    92   94   93 1
    93   95   93 ar
    94   96   95 1
    95   97   95 ar
    96   98   97 ar
    97   99   98 1
    98  100   92 ar
    99  101  100 1
   100  102   72 1
   101  103  102 ar
   102  104  103 1
   103  105  103 ar
   104  106  105 1
   105  107  105 ar
   106  108  107 1
   107  109  107 ar
   108  110  109 1
   109  111  102 ar
   110  112  111 1
   111   13   15 1
   112   17   19 2
   113   27   29 ar
   114   42   44 ar
   115   53   55 ar
   116   69   71 1
   117   73   75 2
   118   83   85 ar
   119   98  100 ar
   120  109  111 ar
@<TRIPOS>SUBSTRUCTURE
     1 RES1 1
     2 RES2 57

@<TRIPOS>CRYSIN
  10.3960   12.9660   16.9440  81.8640  89.4950  89.9050   2 1

