# MOL2 file generated by ConQuest
# Please check atom types

@<TRIPOS>MOLECULE
XEDSOP
    40    41     1
SMALL
NO_CHARGES
****
Generated from CSD

@<TRIPOS>ATOM
      1 N1        -2.4190    2.0922    9.7288 N.am      1 RES1    0.0000
      2 C1        -3.4351    2.7939   10.3565 C.2       1 RES1    0.0000
      3 O1        -3.2013    3.4736   11.3357 O.2       1 RES1    0.0000
      4 N2        -4.7233    2.6601    9.8533 N.am      1 RES1    0.0000
      5 C2        -5.0598    1.9377    8.7237 C.2       1 RES1    0.0000
      6 O2        -6.2041    1.9530    8.2926 O.2       1 RES1    0.0000
      7 C3        -3.9812    1.1198    8.1265 C.2       1 RES1    0.0000
      8 C4        -2.6022    1.2540    8.6295 C.2       1 RES1    0.0000
      9 O3        -1.6301    0.6995    8.1455 O.2       1 RES1    0.0000
     10 C5        -1.0600    2.3095   10.2397 C.3       1 RES1    0.0000
     11 C6        -5.7591    3.4501   10.5244 C.3       1 RES1    0.0000
     12 C7        -4.3226    0.3843    7.0416 C.2       1 RES1    0.0000
     13 C8        -3.5911   -0.6374    6.3139 C.ar      1 RES1    0.0000
     14 C9        -3.7888   -0.8262    4.9043 C.ar      1 RES1    0.0000
     15 N3        -4.4336    0.1119    4.1405 N.3       1 RES1    0.0000
     16 C10       -3.2905   -2.0090    4.3252 C.ar      1 RES1    0.0000
     17 C11       -2.6037   -2.9387    5.0576 C.ar      1 RES1    0.0000
     18 C12       -2.3828   -2.7128    6.4146 C.ar      1 RES1    0.0000
     19 N4        -1.6191   -3.6672    7.1974 N.pl3     1 RES1    0.0000
     20 O4        -1.3139   -3.3842    8.3586 O.2       1 RES1    0.0000
     21 O5        -1.2866   -4.7259    6.6691 O.2       1 RES1    0.0000
     22 C13       -2.8653   -1.5851    7.0331 C.ar      1 RES1    0.0000
     23 C14       -4.7903   -0.1902    2.7562 C.3       1 RES1    0.0000
     24 C15       -4.3876    1.5470    4.4220 C.3       1 RES1    0.0000
     25 H1        -0.9663    3.2647   10.3864 H         1 RES1    0.0000
     26 H2        -0.3928    2.0005    9.5774 H         1 RES1    0.0000
     27 H3        -0.9182    1.9613   11.1629 H         1 RES1    0.0000
     28 H4        -6.6162    3.3241   10.1059 H         1 RES1    0.0000
     29 H5        -5.6207    4.3851   10.3540 H         1 RES1    0.0000
     30 H6        -5.7559    3.2792   11.4865 H         1 RES1    0.0000
     31 H7        -5.2305    0.5540    6.7021 H         1 RES1    0.0000
     32 H8        -3.3569   -2.1223    3.3974 H         1 RES1    0.0000
     33 H9        -2.2461   -3.6743    4.6593 H         1 RES1    0.0000
     34 H10       -2.7631   -1.5064    7.9715 H         1 RES1    0.0000
     35 H11       -5.4798    0.4965    2.4483 H         1 RES1    0.0000
     36 H12       -5.1757   -1.0896    2.6748 H         1 RES1    0.0000
     37 H13       -3.9992   -0.1346    2.1247 H         1 RES1    0.0000
     38 H14       -3.8100    1.7201    5.1835 H         1 RES1    0.0000
     39 H15       -5.2769    1.9068    4.5946 H         1 RES1    0.0000
     40 H16       -4.0006    2.0096    3.6670 H         1 RES1    0.0000
@<TRIPOS>BOND
     1    1    2 1
     2    2    3 2
     3    4    2 1
     4    5    4 1
     5    6    5 2
     6    7    5 1
     7    8    1 1
     8    9    8 2
     9   10    1 1
    10   11    4 1
    11   12    7 2
    12   13   12 1
    13   14   13 ar
    14   15   14 1
    15   16   14 ar
    16   17   16 ar
    17   18   17 ar
    18   19   18 1
    19   20   19 2
    20   21   19 2
    21   22   13 ar
    22   23   15 1
    23   24   15 1
    24   25   10 1
    25   26   10 1
    26   27   10 1
    27   28   11 1
    28   29   11 1
    29   30   11 1
    30   31   12 1
    31   32   16 1
    32   33   17 1
    33   34   22 1
    34   35   23 1
    35   36   23 1
    36   37   23 1
    37   38   24 1
    38   39   24 1
    39   40   24 1
    40    7    8 1
    41   18   22 ar
@<TRIPOS>SUBSTRUCTURE
     1 RES1 1

@<TRIPOS>CRYSIN
   8.2080    8.7410   11.5400 102.8270 102.4430 104.0900   2 1

