# MOL2 file generated by ConQuest
# Please check atom types

@<TRIPOS>MOLECULE
XEDTEG
    50    53     1
SMALL
NO_CHARGES
****
Generated from CSD

@<TRIPOS>ATOM
      1 O1         4.0677    7.1248   -0.7825 O.2       1 RES1    0.0000
      2 O2         4.1869    5.0369   -0.3406 O.2       1 RES1    0.0000
      3 O3         0.8429    4.9440    0.6979 O.3       1 RES1    0.0000
      4 N1         2.9264    7.3099    4.0803 N.3       1 RES1    0.0000
      5 N2         5.3762    7.1470    2.7399 N.3       1 RES1    0.0000
      6 N3         1.9788    8.1720    2.0571 N.3       1 RES1    0.0000
      7 N4        -0.3689    6.5499    1.8780 N.3       1 RES1    0.0000
      8 N5         3.9391    6.1677   -0.0331 N.pl3     1 RES1    0.0000
      9 N6         0.6474   10.8878    3.6649 N.1       1 RES1    0.0000
     10 N7        -2.6250    8.8350    3.1692 N.1       1 RES1    0.0000
     11 C1         4.0327    6.7062    4.6981 C.ar      1 RES1    0.0000
     12 C2         3.9238    6.2174    5.9795 C.ar      1 RES1    0.0000
     13 C3         4.9666    5.5384    6.5775 C.ar      1 RES1    0.0000
     14 C4         6.1312    5.3444    5.8827 C.ar      1 RES1    0.0000
     15 C5         6.2703    5.8384    4.5990 C.ar      1 RES1    0.0000
     16 C6         5.2380    6.5468    3.9888 C.ar      1 RES1    0.0000
     17 C7         4.1952    7.5560    2.0434 C.3       1 RES1    0.0000
     18 C8         3.1385    8.1696    2.9471 C.3       1 RES1    0.0000
     19 C9         3.3960    6.4455    1.3326 C.3       1 RES1    0.0000
     20 C10        1.9581    6.9655    1.2424 C.3       1 RES1    0.0000
     21 C11        0.9350    5.9220    1.7019 C.3       1 RES1    0.0000
     22 C12       -0.3835    7.8239    2.3805 C.2       1 RES1    0.0000
     23 C13        0.7305    8.5871    2.5279 C.2       1 RES1    0.0000
     24 C14        0.6691    9.8697    3.1500 C.1       1 RES1    0.0000
     25 C15       -1.6495    8.3775    2.7957 C.1       1 RES1    0.0000
     26 C16       -1.6061    5.7928    1.6745 C.3       1 RES1    0.0000
     27 C17       -2.2746    6.0693    0.3753 C.3       1 RES1    0.0000
     28 C18        1.2004    3.6265    1.0883 C.3       1 RES1    0.0000
     29 C19        6.6125    7.0667    1.9968 C.3       1 RES1    0.0000
     30 H1         2.3139    7.5879    4.6428 H         1 RES1    0.0000
     31 H2         3.1003    6.3452    6.4187 H         1 RES1    0.0000
     32 H3         4.8501    5.2071    7.4869 H         1 RES1    0.0000
     33 H4         6.8781    4.8318    6.3000 H         1 RES1    0.0000
     34 H5         7.0814    5.7179    4.0904 H         1 RES1    0.0000
     35 H6         4.4467    8.2221    1.3750 H         1 RES1    0.0000
     36 H7         3.3618    9.0688    3.1947 H         1 RES1    0.0000
     37 H8         3.4340    5.6168    1.8215 H         1 RES1    0.0000
     38 H9         1.7432    7.1748    0.3196 H         1 RES1    0.0000
     39 H10        1.2134    5.5208    2.5720 H         1 RES1    0.0000
     40 H11       -1.4103    4.8301    1.7896 H         1 RES1    0.0000
     41 H12       -2.1831    5.9836    2.4561 H         1 RES1    0.0000
     42 H13       -2.4653    7.0445    0.2648 H         1 RES1    0.0000
     43 H14       -3.1519    5.5534    0.2283 H         1 RES1    0.0000
     44 H15       -1.6315    5.8996   -0.3287 H         1 RES1    0.0000
     45 H16        0.7125    3.3852    1.9448 H         1 RES1    0.0000
     46 H17        2.1069    3.5394    1.2965 H         1 RES1    0.0000
     47 H18        0.9613    3.0115    0.3743 H         1 RES1    0.0000
     48 H19        6.7837    6.1173    1.6709 H         1 RES1    0.0000
     49 H20        6.5523    7.6719    1.2600 H         1 RES1    0.0000
     50 H21        7.3739    7.2965    2.5291 H         1 RES1    0.0000
@<TRIPOS>BOND
     1    1    8 2
     2    2    8 2
     3    3   21 1
     4    4   11 1
     5    5   16 1
     6    6   18 1
     7    7   21 1
     8    8   19 1
     9    9   24 3
    10   10   25 3
    11   11   12 ar
    12   12   13 ar
    13   13   14 ar
    14   14   15 ar
    15   15   16 ar
    16   16   11 ar
    17   17    5 1
    18   18    4 1
    19   19   17 1
    20   20    6 1
    21   21   20 1
    22   22    7 1
    23   23    6 1
    24   24   23 1
    25   25   22 1
    26   26    7 1
    27   27   26 1
    28   28    3 1
    29   29    5 1
    30   30    4 1
    31   31   12 1
    32   32   13 1
    33   33   14 1
    34   34   15 1
    35   35   17 1
    36   36   18 1
    37   37   19 1
    38   38   20 1
    39   39   21 1
    40   40   26 1
    41   41   26 1
    42   42   27 1
    43   43   27 1
    44   44   27 1
    45   45   28 1
    46   46   28 1
    47   47   28 1
    48   48   29 1
    49   49   29 1
    50   50   29 1
    51   17   18 1
    52   19   20 1
    53   22   23 2
@<TRIPOS>SUBSTRUCTURE
     1 RES1 1

@<TRIPOS>CRYSIN
  12.4260   17.1400    9.4190  90.0000 104.2200  90.0000  14 1

