# MOL2 file generated by ConQuest
# Please check atom types

@<TRIPOS>MOLECULE
XEFCUG
    68    72     2
SMALL
USER_CHARGES
****
Generated from CSD

@<TRIPOS>ATOM
      1 O1         3.5254    3.5488    9.9752 O.2       1 RES1   -1.0000
      2 N1         2.6695    3.5488    9.0922 N.1       1 RES1    1.0000
      3 C1         1.8832    3.5488    8.2669 C.1       1 RES1    0.0000
      4 C2         0.9485    3.5488    7.1748 C.ar      1 RES1    0.0000
      5 C3         0.4755    2.3166    6.6670 C.ar      1 RES1    0.0000
      6 C4        -0.4845    2.3493    5.6536 C.ar      1 RES1    0.0000
      7 C5        -0.9596    3.5488    5.1469 C.ar      1 RES1    0.0000
      8 C6         0.9441    1.0064    7.1787 C.ar      1 RES1    0.0000
      9 C7         2.3097    0.7154    7.3241 C.ar      1 RES1    0.0000
     10 C8         2.7164   -0.5394    7.7382 C.ar      1 RES1    0.0000
     11 C9         1.7807   -1.5217    8.0190 C.ar      1 RES1    0.0000
     12 C10        0.4335   -1.2449    7.8846 C.ar      1 RES1    0.0000
     13 C11        0.0179    0.0114    7.4704 C.ar      1 RES1    0.0000
     14 O2         8.6702    3.5488    9.7830 O.2       2 RES2   -1.0000
     15 N2         7.8254    3.5488    8.8891 N.1       2 RES2    1.0000
     16 C12        7.0167    3.5488    8.0777 C.1       2 RES2    0.0000
     17 C13        6.0955    3.5488    6.9806 C.ar      2 RES2    0.0000
     18 C14        5.6928    2.3166    6.4132 C.ar      2 RES2    0.0000
     19 C15        4.9487    2.3521    5.2355 C.ar      2 RES2    0.0000
     20 C16        4.6011    3.5488    4.6362 C.ar      2 RES2    0.0000
     21 C17        6.0333    1.0078    7.0225 C.ar      2 RES2    0.0000
     22 C18        5.9512    0.8006    8.3983 C.ar      2 RES2    0.0000
     23 C19        6.2292   -0.4443    8.9398 C.ar      2 RES2    0.0000
     24 C20        6.5764   -1.5061    8.1145 C.ar      2 RES2    0.0000
     25 C21        6.6410   -1.3173    6.7527 C.ar      2 RES2    0.0000
     26 C22        6.3794   -0.0738    6.2061 C.ar      2 RES2    0.0000
     27 H1        -0.8113    1.5487    5.3101 H         1 RES1    0.0000
     28 H2        -1.5957    3.5488    4.4689 H         1 RES1    0.0000
     29 H3         2.9441    1.3698    7.1409 H         1 RES1    0.0000
     30 H4         3.6232   -0.7254    7.8298 H         1 RES1    0.0000
     31 H5         2.0575   -2.3649    8.2977 H         1 RES1    0.0000
     32 H6        -0.1966   -1.9021    8.0727 H         1 RES1    0.0000
     33 H7        -0.8907    0.1902    7.3858 H         1 RES1    0.0000
     34 H8         4.6789    1.5529    4.8442 H         2 RES2    0.0000
     35 H9         4.1349    3.5488    3.8318 H         2 RES2    0.0000
     36 H10        5.7085    1.5033    8.9578 H         2 RES2    0.0000
     37 H11        6.1824   -0.5692    9.8597 H         2 RES2    0.0000
     38 H12        6.7646   -2.3408    8.4809 H         2 RES2    0.0000
     39 H13        6.8616   -2.0285    6.1972 H         2 RES2    0.0000
     40 H14        6.4342    0.0440    5.2853 H         2 RES2    0.0000
     41 C4C       -0.4845    4.7482    5.6536 C.ar      1 RES1    0.0000
     42 C3C        0.4755    4.7809    6.6670 C.ar      1 RES1    0.0000
     43 C6C        0.9441    6.0911    7.1787 C.ar      1 RES1    0.0000
     44 C7C        2.3097    6.3821    7.3241 C.ar      1 RES1    0.0000
     45 C8C        2.7164    7.6369    7.7382 C.ar      1 RES1    0.0000
     46 C9C        1.7807    8.6192    8.0190 C.ar      1 RES1    0.0000
     47 C10C       0.4335    8.3424    7.8846 C.ar      1 RES1    0.0000
     48 C11C       0.0179    7.0861    7.4704 C.ar      1 RES1    0.0000
     49 H7C       -0.8907    6.9073    7.3858 H         1 RES1    0.0000
     50 H6C       -0.1966    8.9996    8.0727 H         1 RES1    0.0000
     51 H5C        2.0575    9.4624    8.2977 H         1 RES1    0.0000
     52 H4C        3.6232    7.8229    7.8298 H         1 RES1    0.0000
     53 H3C        2.9441    5.7277    7.1409 H         1 RES1    0.0000
     54 H1C       -0.8113    5.5488    5.3101 H         1 RES1    0.0000
     55 C15C       4.9487    4.7454    5.2355 C.ar      2 RES2    0.0000
     56 C14C       5.6928    4.7809    6.4132 C.ar      2 RES2    0.0000
     57 C17C       6.0333    6.0897    7.0225 C.ar      2 RES2    0.0000
     58 C18C       5.9512    6.2969    8.3983 C.ar      2 RES2    0.0000
     59 C19C       6.2292    7.5418    8.9398 C.ar      2 RES2    0.0000
     60 C20C       6.5764    8.6036    8.1145 C.ar      2 RES2    0.0000
     61 C21C       6.6410    8.4148    6.7527 C.ar      2 RES2    0.0000
     62 C22C       6.3794    7.1713    6.2061 C.ar      2 RES2    0.0000
     63 H14C       6.4342    7.0535    5.2853 H         2 RES2    0.0000
     64 H13C       6.8616    9.1260    6.1972 H         2 RES2    0.0000
     65 H12C       6.7646    9.4383    8.4809 H         2 RES2    0.0000
     66 H11C       6.1824    7.6667    9.8597 H         2 RES2    0.0000
     67 H10C       5.7085    5.5942    8.9578 H         2 RES2    0.0000
     68 H8C        4.6789    5.5446    4.8442 H         2 RES2    0.0000
@<TRIPOS>BOND
     1    1    2 1
     2    2    3 3
     3    3    4 1
     4    4    5 ar
     5    5    6 ar
     6    6    7 ar
     7    7   28 1
     8    8    5 1
     9    9    8 ar
    10   10    9 ar
    11   11   10 ar
    12   12   11 ar
    13   13    8 ar
    14   14   15 1
    15   15   16 3
    16   16   17 1
    17   17   18 ar
    18   18   19 ar
    19   19   20 ar
    20   20   35 1
    21   21   18 1
    22   22   21 ar
    23   23   22 ar
    24   24   23 ar
    25   25   24 ar
    26   26   21 ar
    27   27    6 1
    28   29    9 1
    29   30   10 1
    30   31   11 1
    31   32   12 1
    32   33   13 1
    33   34   19 1
    34   36   22 1
    35   37   23 1
    36   38   24 1
    37   39   25 1
    38   40   26 1
    39   41    7 ar
    40   42    4 ar
    41   43   42 1
    42   44   43 ar
    43   45   44 ar
    44   46   45 ar
    45   47   46 ar
    46   48   43 ar
    47   49   48 1
    48   50   47 1
    49   51   46 1
    50   52   45 1
    51   53   44 1
    52   54   41 1
    53   55   20 ar
    54   56   17 ar
    55   57   56 1
    56   58   57 ar
    57   59   58 ar
    58   60   59 ar
    59   61   60 ar
    60   62   57 ar
    61   63   62 1
    62   64   61 1
    63   65   60 1
    64   66   59 1
    65   67   58 1
    66   68   55 1
    67   12   13 ar
    68   25   26 ar
    69   41   42 ar
    70   47   48 ar
    71   55   56 ar
    72   61   62 ar
@<TRIPOS>SUBSTRUCTURE
     1 RES1 1
     2 RES2 14

@<TRIPOS>CRYSIN
   9.8390   14.1950   10.0298  90.0000  96.9890  90.0000  11 1

