# MOL2 file generated by ConQuest
# Please check atom types

@<TRIPOS>MOLECULE
XEFJUQ
    78    80     2
SMALL
NO_CHARGES
****
Generated from CSD

@<TRIPOS>ATOM
      1 O1         3.2373   12.0747    6.4581 O.3       1 RES1    0.0000
      2 O2         2.3194    9.9491    7.7090 O.2       1 RES1    0.0000
      3 N1         3.0175   10.9002    5.7847 N.am      1 RES1    0.0000
      4 H1         3.1372   10.8513    4.9050 H         1 RES1    0.0000
      5 C1         4.6530   12.1641    6.9235 C.3       1 RES1    0.0000
      6 H2         4.9198   11.2832    7.3135 H         1 RES1    0.0000
      7 C2         4.6753   13.2194    8.0318 C.3       1 RES1    0.0000
      8 H3         3.9981   12.9726    8.7106 H         1 RES1    0.0000
      9 H4         5.5609   13.1875    8.4730 H         1 RES1    0.0000
     10 C3         4.4135   14.6364    7.6032 C.3       1 RES1    0.0000
     11 H5         3.6121   14.6620    7.0221 H         1 RES1    0.0000
     12 H6         5.1839   14.9684    7.0759 H         1 RES1    0.0000
     13 C4         4.1939   15.5492    8.8110 C.3       1 RES1    0.0000
     14 H7         4.0472   16.4684    8.5035 H         1 RES1    0.0000
     15 H8         4.9841   15.5216    9.3894 H         1 RES1    0.0000
     16 H9         3.4094   15.2450    9.3123 H         1 RES1    0.0000
     17 C5         5.5313   12.4513    5.7282 C.ar      1 RES1    0.0000
     18 C6         5.1236   13.2109    4.6718 C.ar      1 RES1    0.0000
     19 H10        4.2427   13.5662    4.6709 H         1 RES1    0.0000
     20 C7         5.9495   13.4726    3.6128 C.ar      1 RES1    0.0000
     21 H11        5.6237   13.9769    2.8757 H         1 RES1    0.0000
     22 C8         7.2451   13.0151    3.6048 C.ar      1 RES1    0.0000
     23 H12        7.8146   13.2130    2.8704 H         1 RES1    0.0000
     24 C9         7.7228   12.2619    4.6772 C.ar      1 RES1    0.0000
     25 H13        8.6183   11.9449    4.6862 H         1 RES1    0.0000
     26 C10        6.8590   11.9811    5.7344 C.ar      1 RES1    0.0000
     27 H14        7.1704   11.4662    6.4697 H         1 RES1    0.0000
     28 C11        2.4447    9.8853    6.4670 C.2       1 RES1    0.0000
     29 C12        2.0281    8.6682    5.7057 C.ar      1 RES1    0.0000
     30 C13        1.9110    8.6385    4.3141 C.ar      1 RES1    0.0000
     31 H15        2.1170    9.4087    3.7967 H         1 RES1    0.0000
     32 C14        1.4986    7.4959    3.7133 C.ar      1 RES1    0.0000
     33 H16        1.4314    7.4661    2.7654 H         1 RES1    0.0000
     34 C15        1.1784    6.3852    4.4477 C.ar      1 RES1    0.0000
     35 H17        0.8948    5.5937    4.0074 H         1 RES1    0.0000
     36 C16        1.2652    6.4129    5.8241 C.ar      1 RES1    0.0000
     37 H18        1.0375    5.6448    6.3334 H         1 RES1    0.0000
     38 C17        1.6837    7.5618    6.4554 C.ar      1 RES1    0.0000
     39 H19        1.7353    7.5938    7.4032 H         1 RES1    0.0000
     40 O3         4.1992    9.7385    1.9557 O.3       2 RES2    0.0000
     41 O4         2.8153   11.7321    3.0909 O.2       2 RES2    0.0000
     42 N2         4.0072   10.9768    1.3101 N.am      2 RES2    0.0000
     43 H20        3.9076   10.7236    0.4663 H         2 RES2    0.0000
     44 C18        5.4144    9.7236    2.7090 C.3       2 RES2    0.0000
     45 H21        5.3570   10.4853    3.3555 H         2 RES2    0.0000
     46 C19        6.7290    9.9193    1.9163 C.3       2 RES2    0.0000
     47 H22        6.7040   10.8108    1.4876 H         2 RES2    0.0000
     48 H23        7.4825    9.9193    2.5592 H         2 RES2    0.0000
     49 C20        6.9989    8.9449    0.9093 C.3       2 RES2    0.0000
     50 H24        6.2828    8.9597    0.2251 H         2 RES2    0.0000
     51 H25        7.0222    8.0406    1.3128 H         2 RES2    0.0000
     52 C21        8.4033    9.2683    0.2287 C.3       2 RES2    0.0000
     53 H26        8.5895    8.6044   -0.4681 H         2 RES2    0.0000
     54 H27        9.1098    9.2363    0.9066 H         2 RES2    0.0000
     55 H28        8.3740   10.1619   -0.1722 H         2 RES2    0.0000
     56 C22        5.4039    8.4682    3.5276 C.ar      2 RES2    0.0000
     57 C23        5.8081    8.4172    4.8234 C.ar      2 RES2    0.0000
     58 H29        6.1171    9.2087    5.2466 H         2 RES2    0.0000
     59 C24        5.7778    7.2108    5.5497 C.ar      2 RES2    0.0000
     60 H30        6.0674    7.1916    6.4545 H         2 RES2    0.0000
     61 C25        5.3246    6.0618    4.9391 C.ar      2 RES2    0.0000
     62 H31        5.3177    5.2448    5.4242 H         2 RES2    0.0000
     63 C26        4.8999    6.0810    3.6899 C.ar      2 RES2    0.0000
     64 H32        4.5852    5.2852    3.2793 H         2 RES2    0.0000
     65 C27        4.9166    7.2831    2.9726 C.ar      2 RES2    0.0000
     66 H33        4.5859    7.2938    2.0822 H         2 RES2    0.0000
     67 C28        3.1945   11.8577    1.9136 C.2       2 RES2    0.0000
     68 C29        2.8423   13.0343    1.0967 C.ar      2 RES2    0.0000
     69 C30        2.7907   13.0258   -0.2726 C.ar      2 RES2    0.0000
     70 H34        2.9964   12.2258   -0.7434 H         2 RES2    0.0000
     71 C31        2.4396   14.1769   -0.9855 C.ar      2 RES2    0.0000
     72 H35        2.4203   14.1556   -1.9351 H         2 RES2    0.0000
     73 C32        2.1230   15.3365   -0.3174 C.ar      2 RES2    0.0000
     74 H36        1.8510   16.1067   -0.8026 H         2 RES2    0.0000
     75 C33        2.2017   15.3790    1.0644 C.ar      2 RES2    0.0000
     76 H37        2.0367   16.1897    1.5343 H         2 RES2    0.0000
     77 C34        2.5284   14.2088    1.7558 C.ar      2 RES2    0.0000
     78 H38        2.5360   14.2215    2.7054 H         2 RES2    0.0000
@<TRIPOS>BOND
     1    1    3 1
     2    2   28 2
     3    3    4 1
     4    5    1 1
     5    6    5 1
     6    7    5 1
     7    8    7 1
     8    9    7 1
     9   10    7 1
    10   11   10 1
    11   12   10 1
    12   13   10 1
    13   14   13 1
    14   15   13 1
    15   16   13 1
    16   17    5 1
    17   18   17 ar
    18   19   18 1
    19   20   18 ar
    20   21   20 1
    21   22   20 ar
    22   23   22 1
    23   24   22 ar
    24   25   24 1
    25   26   17 ar
    26   27   26 1
    27   28    3 1
    28   29   28 1
    29   30   29 ar
    30   31   30 1
    31   32   30 ar
    32   33   32 1
    33   34   32 ar
    34   35   34 1
    35   36   34 ar
    36   37   36 1
    37   38   29 ar
    38   39   38 1
    39   40   42 1
    40   41   67 2
    41   42   43 1
    42   44   40 1
    43   45   44 1
    44   46   44 1
    45   47   46 1
    46   48   46 1
    47   49   46 1
    48   50   49 1
    49   51   49 1
    50   52   49 1
    51   53   52 1
    52   54   52 1
    53   55   52 1
    54   56   44 1
    55   57   56 ar
    56   58   57 1
    57   59   57 ar
    58   60   59 1
    59   61   59 ar
    60   62   61 1
    61   63   61 ar
    62   64   63 1
    63   65   56 ar
    64   66   65 1
    65   67   42 1
    66   68   67 1
    67   69   68 ar
    68   70   69 1
    69   71   69 ar
    70   72   71 1
    71   73   71 ar
    72   74   73 1
    73   75   73 ar
    74   76   75 1
    75   77   68 ar
    76   78   77 1
    77   24   26 ar
    78   36   38 ar
    79   63   65 ar
    80   75   77 ar
@<TRIPOS>SUBSTRUCTURE
     1 RES1 1
     2 RES2 40

@<TRIPOS>CRYSIN
   7.7900   21.2770    9.1570  90.0000 101.6900  90.0000   4 1

