# MOL2 file generated by ConQuest
# Please check atom types

@<TRIPOS>MOLECULE
XEFPUW
    48    52     1
SMALL
NO_CHARGES
****
Generated from CSD

@<TRIPOS>ATOM
      1 C1         7.6440   -0.0890    7.4546 C.ar      1 RES1    0.0000
      2 N1         6.8542    2.1334    6.5185 N.3       1 RES1    0.0000
      3 C2         8.6107   -1.0927    7.3701 C.ar      1 RES1    0.0000
      4 C3         7.6585    1.0030    6.6066 C.ar      1 RES1    0.0000
      5 N2         6.6073   -0.2627    8.4938 N.pl3     1 RES1    0.0000
      6 C4         8.8147   -2.3346    8.0841 C.ar      1 RES1    0.0000
      7 C5         7.3367    2.9338    5.4869 C.ar      1 RES1    0.0000
      8 C6         8.1579   -2.9851    9.1304 C.ar      1 RES1    0.0000
      9 H1         7.4081   -2.6059    9.5298 H         1 RES1    0.0000
     10 C7         5.6967    2.4655    7.3422 C.3       1 RES1    0.0000
     11 H2         5.6437    3.4287    7.4421 H         1 RES1    0.0000
     12 H3         5.8141    2.0813    8.2249 H         1 RES1    0.0000
     13 C8         4.3904    1.9517    6.7435 C.3       1 RES1    0.0000
     14 H4         4.2175    2.4055    5.9152 H         1 RES1    0.0000
     15 H5         3.6697    2.1189    7.3564 H         1 RES1    0.0000
     16 H6         4.4603    1.0081    6.5826 H         1 RES1    0.0000
     17 C9         7.5308    4.7871    4.0235 C.ar      1 RES1    0.0000
     18 H7         7.2359    5.6157    3.7223 H         1 RES1    0.0000
     19 C10        6.8590    4.1676    5.0557 C.ar      1 RES1    0.0000
     20 H8         6.1137    4.5598    5.4478 H         1 RES1    0.0000
     21 C11        8.6441   -4.2002    9.5596 C.ar      1 RES1    0.0000
     22 H9         8.2216   -4.6373   10.2633 H         1 RES1    0.0000
     23 O1         5.5650   -0.7997    8.1717 O.2       1 RES1    0.0000
     24 O2         6.8759    0.0919    9.6283 O.2       1 RES1    0.0000
     25 C1B        9.6412    0.0890    5.5287 C.ar      1 RES1    0.0000
     26 N1B       10.4310   -2.1334    6.4648 N.pl3     1 RES1    0.0000
     27 C2B        8.6745    1.0927    5.6132 C.ar      1 RES1    0.0000
     28 C3B        9.6268   -1.0030    6.3768 C.ar      1 RES1    0.0000
     29 N2B       10.6779    0.2627    4.4895 N.pl3     1 RES1    0.0000
     30 C4B        8.4705    2.3346    4.8993 C.ar      1 RES1    0.0000
     31 C5B        9.9485   -2.9338    7.4965 C.ar      1 RES1    0.0000
     32 C6B        9.1273    2.9851    3.8529 C.ar      1 RES1    0.0000
     33 H1B        9.8771    2.6059    3.4536 H         1 RES1    0.0000
     34 C7B       11.5885   -2.4655    5.6411 C.3       1 RES1    0.0000
     35 H2B       11.6415   -3.4287    5.5413 H         1 RES1    0.0000
     36 H3B       11.4711   -2.0813    4.7584 H         1 RES1    0.0000
     37 C8B       12.8948   -1.9517    6.2398 C.3       1 RES1    0.0000
     38 H4B       13.0677   -2.4055    7.0681 H         1 RES1    0.0000
     39 H5B       13.6155   -2.1189    5.6270 H         1 RES1    0.0000
     40 H6B       12.8249   -1.0081    6.4008 H         1 RES1    0.0000
     41 C9B        9.7544   -4.7871    8.9598 C.ar      1 RES1    0.0000
     42 H7B       10.0493   -5.6157    9.2610 H         1 RES1    0.0000
     43 C10B      10.4262   -4.1676    7.9276 C.ar      1 RES1    0.0000
     44 H8B       11.1715   -4.5598    7.5355 H         1 RES1    0.0000
     45 C11B       8.6411    4.2002    3.4237 C.ar      1 RES1    0.0000
     46 H9B        9.0636    4.6373    2.7200 H         1 RES1    0.0000
     47 O1B       11.7202    0.7997    4.8116 O.2       1 RES1    0.0000
     48 O2B       10.4093   -0.0919    3.3550 O.2       1 RES1    0.0000
@<TRIPOS>BOND
     1    1    3 ar
     2    2    4 1
     3    3    6 1
     4    4    1 ar
     5    5    1 1
     6    6    8 ar
     7    7    2 1
     8    8    9 1
     9   10    2 1
    10   11   10 1
    11   12   10 1
    12   13   10 1
    13   14   13 1
    14   15   13 1
    15   16   13 1
    16   17   18 1
    17   19    7 ar
    18   20   19 1
    19   21    8 ar
    20   22   21 1
    21   23    5 2
    22   24    5 2
    23   25   27 ar
    24   26   28 1
    25   27    4 ar
    26   28    3 ar
    27   29   25 1
    28   30    7 ar
    29   31    6 ar
    30   32   30 ar
    31   33   32 1
    32   34   26 1
    33   35   34 1
    34   36   34 1
    35   37   34 1
    36   38   37 1
    37   39   37 1
    38   40   37 1
    39   41   21 ar
    40   42   41 1
    41   43   31 ar
    42   44   43 1
    43   45   17 ar
    44   46   45 1
    45   47   29 2
    46   48   29 2
    47   17   19 ar
    48   25   28 ar
    49   26   31 1
    50   27   30 1
    51   32   45 ar
    52   41   43 ar
@<TRIPOS>SUBSTRUCTURE
     1 RES1 1

@<TRIPOS>CRYSIN
  10.0099    7.2367   13.2682  90.0000 101.8940  90.0000 231 1

