# MOL2 file generated by ConQuest
# Please check atom types

@<TRIPOS>MOLECULE
XEFQAD
    48    50     2
SMALL
NO_CHARGES
****
Generated from CSD

@<TRIPOS>ATOM
      1 C1        -1.1378   -4.3045   -7.1429 C.ar      1 RES1    0.0000
      2 N1        -1.3367   -4.3020   -5.6691 N.pl3     1 RES1    0.0000
      3 C2         3.7106   -6.5245   -6.4588 C.ar      1 RES1    0.0000
      4 H1         4.5286   -6.9228   -6.2657 H         1 RES1    0.0000
      5 C3        -5.4497   -2.3358  -10.7944 C.ar      1 RES1    0.0000
      6 H2        -6.2575   -1.9475  -11.0430 H         1 RES1    0.0000
      7 N2        -3.3575   -3.2903   -7.8642 N.3       1 RES1    0.0000
      8 C4        -1.8431   -3.9735   -9.4454 C.ar      1 RES1    0.0000
      9 C5        -3.0112   -3.4545  -10.1095 C.ar      1 RES1    0.0000
     10 C6        -2.0966   -3.8540   -8.0374 C.ar      1 RES1    0.0000
     11 O1        -1.5143   -5.3137   -5.1141 O.2       1 RES1    0.0000
     12 C7        -0.6622   -4.4949   -9.9355 C.ar      1 RES1    0.0000
     13 N3         1.5182   -5.4892   -9.2410 N.pl3     1 RES1    0.0000
     14 C8         2.0733   -5.8190  -10.5425 C.3       1 RES1    0.0000
     15 H3         3.0411   -5.7791  -10.4914 H         1 RES1    0.0000
     16 H4         1.7836   -5.1519  -11.1858 H         1 RES1    0.0000
     17 C9         3.3408   -6.3665   -7.7516 C.ar      1 RES1    0.0000
     18 H5         3.8961   -6.6477   -8.4426 H         1 RES1    0.0000
     19 C10        2.8964   -6.1039   -5.4145 C.ar      1 RES1    0.0000
     20 H6         3.1833   -6.2209   -4.5374 H         1 RES1    0.0000
     21 C11        0.2823   -4.9180   -9.0098 C.ar      1 RES1    0.0000
     22 C12        0.0684   -4.8247   -7.6070 C.ar      1 RES1    0.0000
     23 C13       -3.3585   -3.3264  -11.4629 C.ar      1 RES1    0.0000
     24 H7        -2.7780   -3.6088  -12.1323 H         1 RES1    0.0000
     25 C14       -5.1422   -2.4590   -9.4419 C.ar      1 RES1    0.0000
     26 H8        -5.7332   -2.1802   -8.7795 H         1 RES1    0.0000
     27 C15       -4.5813   -2.7751  -11.7764 C.ar      1 RES1    0.0000
     28 H9        -4.8280   -2.6954  -12.6691 H         1 RES1    0.0000
     29 C16       -3.9011   -3.0227   -9.1284 C.ar      1 RES1    0.0000
     30 C17        2.1077   -5.7717   -8.0270 C.ar      1 RES1    0.0000
     31 C18       -3.5868   -1.4535   -6.2553 C.3       1 RES1    0.0000
     32 H10       -3.8507   -0.8499   -6.9533 H         1 RES1    0.0000
     33 H11       -2.6345   -1.4137   -6.1402 H         1 RES1    0.0000
     34 H12       -4.0193   -1.2034   -5.4353 H         1 RES1    0.0000
     35 C19        1.6725   -7.1617  -11.0308 C.3       1 RES1    0.0000
     36 H13        2.1937   -7.3894  -11.8041 H         1 RES1    0.0000
     37 H14        0.7415   -7.1530  -11.2629 H         1 RES1    0.0000
     38 H15        1.8247   -7.8113  -10.3398 H         1 RES1    0.0000
     39 O2        -1.3552   -3.1795   -5.1028 O.2       1 RES1    0.0000
     40 C20        1.6818   -5.5228   -5.6501 C.ar      1 RES1    0.0000
     41 H16        1.1467   -5.2440   -4.9435 H         1 RES1    0.0000
     42 C21       -3.9911   -2.8647   -6.6294 C.3       1 RES1    0.0000
     43 H17       -3.7404   -3.4707   -5.9142 H         1 RES1    0.0000
     44 H18       -4.9552   -2.9057   -6.7316 H         1 RES1    0.0000
     45 C22        1.2581   -5.3560   -6.9784 C.ar      1 RES1    0.0000
     46 H19       -0.5234   -4.5671  -10.9191 H         1 RES1    0.0000
     47 O3        -0.5956   -3.6325   -4.9660 Du        2 SUP2    0.0000
     48 O4        -2.1282   -5.1034   -5.1851 Du        2 SUP2    0.0000
@<TRIPOS>BOND
     1    1    2 1
     2    2   11 2
     3    3    4 1
     4    5    6 1
     5    7   10 1
     6    8    9 1
     7    9   23 ar
     8   10    1 ar
     9   12    8 ar
    10   13   14 1
    11   14   15 1
    12   16   14 1
    13   17    3 ar
    14   18   17 1
    15   19    3 ar
    16   20   19 1
    17   21   12 ar
    18   22    1 ar
    19   23   24 1
    20   25    5 ar
    21   26   25 1
    22   27    5 ar
    23   28   27 1
    24   29    7 1
    25   30   13 1
    26   31   32 1
    27   33   31 1
    28   34   31 1
    29   35   14 1
    30   36   35 1
    31   37   35 1
    32   38   35 1
    33   39    2 2
    34   40   19 ar
    35   41   40 1
    36   42    7 1
    37   43   42 1
    38   44   42 1
    39   45   22 1
    40   46   12 1
    41    8   10 ar
    42    9   29 ar
    43   13   21 1
    44   17   30 ar
    45   21   22 ar
    46   23   27 ar
    47   25   29 ar
    48   30   45 ar
    49   31   42 1
    50   40   45 ar
@<TRIPOS>SUBSTRUCTURE
     1 RES1 1
     2 SUP2 47

@<TRIPOS>CRYSIN
   8.2838   12.4443    8.7429  90.0000  97.9390  90.0000   4 1

