# MOL2 file generated by ConQuest
# Please check atom types

@<TRIPOS>MOLECULE
XEGDIX
    33    34     1
SMALL
NO_CHARGES
****
Generated from CSD

@<TRIPOS>ATOM
      1 O1         4.5505    6.7032   -0.8671 O.2       1 RES1    0.0000
      2 O2         6.6291    7.1250   -0.4819 O.2       1 RES1    0.0000
      3 O3         8.9747    0.3458    4.0972 O.3       1 RES1    0.0000
      4 O4         8.2228   -1.5457    2.9937 O.3       1 RES1    0.0000
      5 N1         5.6230    6.4290   -0.3407 N.pl3     1 RES1    0.0000
      6 C1         5.6965    5.2473    0.5032 C.ar      1 RES1    0.0000
      7 C2         4.5552    4.4889    0.7183 C.ar      1 RES1    0.0000
      8 C3         4.6454    3.3736    1.4935 C.ar      1 RES1    0.0000
      9 C4         5.8471    2.9607    2.0877 C.ar      1 RES1    0.0000
     10 C5         6.9741    3.7663    1.8413 C.ar      1 RES1    0.0000
     11 C6         6.9002    4.8832    1.0633 C.ar      1 RES1    0.0000
     12 C7         5.8460    1.7638    2.8899 C.2       1 RES1    0.0000
     13 C8         6.8611    1.0799    3.4424 C.2       1 RES1    0.0000
     14 C9         8.3294    1.3796    3.3718 C.3       1 RES1    0.0000
     15 C10        6.7249   -0.1839    4.2327 C.3       1 RES1    0.0000
     16 C11        8.1099   -0.7538    4.2034 C.3       1 RES1    0.0000
     17 C12        9.4823   -2.1829    2.8250 C.3       1 RES1    0.0000
     18 C13        9.3956   -3.2269    1.7892 C.3       1 RES1    0.0000
     19 H1         3.7137    4.7487    0.3208 H         1 RES1    0.0000
     20 H2         3.8456    2.8652    1.6698 H         1 RES1    0.0000
     21 H3         7.8168    3.5182    2.2407 H         1 RES1    0.0000
     22 H4         7.6792    5.4226    0.9197 H         1 RES1    0.0000
     23 H5         4.9713    1.3948    3.0628 H         1 RES1    0.0000
     24 H6         8.5350    2.2320    3.7508 H         1 RES1    0.0000
     25 H7         8.6413    1.3769    2.4606 H         1 RES1    0.0000
     26 H8         6.4055   -0.0183    5.1216 H         1 RES1    0.0000
     27 H9         6.0855   -0.7886    3.8139 H         1 RES1    0.0000
     28 H10        8.3133   -1.2858    4.9999 H         1 RES1    0.0000
     29 H11       10.1702   -1.5507    2.5990 H         1 RES1    0.0000
     30 H12        9.7625   -2.5958    3.6703 H         1 RES1    0.0000
     31 H13        8.7276   -3.8683    2.0351 H         1 RES1    0.0000
     32 H14        9.1349   -2.8219    0.9638 H         1 RES1    0.0000
     33 H15       10.2225   -3.6728    1.6707 H         1 RES1    0.0000
@<TRIPOS>BOND
     1    1    5 2
     2    2    5 2
     3    3   14 1
     4    4   16 1
     5    5    6 1
     6    6    7 ar
     7    7    8 ar
     8    8    9 ar
     9    9   10 ar
    10   10   11 ar
    11   11    6 ar
    12   12    9 1
    13   13   12 2
    14   14   13 1
    15   15   13 1
    16   16    3 1
    17   17    4 1
    18   18   17 1
    19   19    7 1
    20   20    8 1
    21   21   10 1
    22   22   11 1
    23   23   12 1
    24   24   14 1
    25   25   14 1
    26   26   15 1
    27   27   15 1
    28   28   16 1
    29   29   17 1
    30   30   17 1
    31   31   18 1
    32   32   18 1
    33   33   18 1
    34   15   16 1
@<TRIPOS>SUBSTRUCTURE
     1 RES1 1

@<TRIPOS>CRYSIN
  11.0140   13.1470    4.8355  95.3500  97.1800 113.3370   2 1

