# MOL2 file generated by ConQuest
# Please check atom types

@<TRIPOS>MOLECULE
XEGDOD
    41    43     1
SMALL
NO_CHARGES
****
Generated from CSD

@<TRIPOS>ATOM
      1 O1         8.5906   10.7397    1.5258 O.2       1 RES1    0.0000
      2 O2        10.6549   10.4298    1.9522 O.2       1 RES1    0.0000
      3 O3        11.2510    1.9923    2.7188 O.3       1 RES1    0.0000
      4 O4         9.4851    1.3584    4.1287 O.3       1 RES1    0.0000
      5 O5        10.8766   -0.2870    5.0474 O.3       1 RES1    0.0000
      6 N1         9.5212    9.9974    1.7440 N.pl3     1 RES1    0.0000
      7 C1         8.9564    5.7959    1.7066 C.ar      1 RES1    0.0000
      8 C2         7.9207    6.6658    1.3899 C.ar      1 RES1    0.0000
      9 C3         8.0914    8.0331    1.4074 C.ar      1 RES1    0.0000
     10 C4         9.3043    8.5612    1.7377 C.ar      1 RES1    0.0000
     11 C5        10.3620    7.7283    2.0643 C.ar      1 RES1    0.0000
     12 C6        10.1910    6.3596    2.0444 C.ar      1 RES1    0.0000
     13 C7         8.6995    4.3660    1.6580 C.2       1 RES1    0.0000
     14 C8        10.0616    1.2372    2.8310 C.3       1 RES1    0.0000
     15 C9         9.1004    1.8903    1.8574 C.3       1 RES1    0.0000
     16 C10        9.4861    3.3316    1.9397 C.2       1 RES1    0.0000
     17 C11       10.8984    3.3558    2.4633 C.3       1 RES1    0.0000
     18 C12       10.3582    1.0064    5.1908 C.3       1 RES1    0.0000
     19 C13        9.5844    1.2066    6.4760 C.3       1 RES1    0.0000
     20 C14        8.5715    0.1008    6.7004 C.3       1 RES1    0.0000
     21 C15        9.2222   -1.2487    6.5159 C.3       1 RES1    0.0000
     22 C16        9.8940   -1.3138    5.1721 C.3       1 RES1    0.0000
     23 H1         6.9763    6.2410    1.1556 H         1 RES1    0.0000
     24 H2         7.2948    8.6377    1.1568 H         1 RES1    0.0000
     25 H3        11.2424    8.1224    2.3049 H         1 RES1    0.0000
     26 H4        10.9643    5.7346    2.2675 H         1 RES1    0.0000
     27 H5         7.7678    4.1364    1.3077 H         1 RES1    0.0000
     28 H6        10.2529    0.2615    2.5929 H         1 RES1    0.0000
     29 H7         9.1608    1.5344    0.9424 H         1 RES1    0.0000
     30 H8         8.1633    1.7283    2.1142 H         1 RES1    0.0000
     31 H9        10.9985    3.9732    3.2573 H         1 RES1    0.0000
     32 H10       11.5289    3.8278    1.8063 H         1 RES1    0.0000
     33 H11       11.1489    1.6786    5.2382 H         1 RES1    0.0000
     34 H12       10.1745    1.2678    7.2738 H         1 RES1    0.0000
     35 H13        9.1176    2.0727    6.4723 H         1 RES1    0.0000
     36 H14        8.2039    0.1620    7.5867 H         1 RES1    0.0000
     37 H15        7.8843    0.1964    6.0684 H         1 RES1    0.0000
     38 H16        9.8741   -1.4005    7.2240 H         1 RES1    0.0000
     39 H17        8.5544   -1.9477    6.6194 H         1 RES1    0.0000
     40 H18        9.2254   -1.2551    4.4964 H         1 RES1    0.0000
     41 H19       10.3134   -2.1951    5.0773 H         1 RES1    0.0000
@<TRIPOS>BOND
     1    1    6 2
     2    2    6 2
     3    3   14 1
     4    4   14 1
     5    5   18 1
     6    6   10 1
     7    7    8 ar
     8    8    9 ar
     9    9   10 ar
    10   10   11 ar
    11   11   12 ar
    12   12    7 ar
    13   13    7 1
    14   14   15 1
    15   15   16 1
    16   16   13 2
    17   17    3 1
    18   18    4 1
    19   19   18 1
    20   20   19 1
    21   21   20 1
    22   22    5 1
    23   23    8 1
    24   24    9 1
    25   25   11 1
    26   26   12 1
    27   27   13 1
    28   28   14 1
    29   29   15 1
    30   30   15 1
    31   31   17 1
    32   32   17 1
    33   33   18 1
    34   34   19 1
    35   35   19 1
    36   36   20 1
    37   37   20 1
    38   38   21 1
    39   39   21 1
    40   40   22 1
    41   41   22 1
    42   16   17 1
    43   21   22 1
@<TRIPOS>SUBSTRUCTURE
     1 RES1 1

@<TRIPOS>CRYSIN
  19.2380   12.7550   15.1480  90.0000 124.6200  90.0000  15 1

