# MOL2 file generated by ConQuest
# Please check atom types

@<TRIPOS>MOLECULE
XEGHOJ
    62    65     1
SMALL
USER_CHARGES
****
Generated from CSD

@<TRIPOS>ATOM
      1 O1         5.0629    3.9963    4.0247 O.2       1 RES1   -1.0000
      2 O2         1.8993    0.9566    5.4539 O.2       1 RES1    0.0000
      3 N1         4.1511    3.1007    4.0234 N.pl3     1 RES1    1.0000
      4 N2         2.7037    1.6235    4.7079 N.3       1 RES1    0.0000
      5 C1         3.4596    2.6721    5.0980 C.2       1 RES1    0.0000
      6 C2         3.6149    2.4933    2.7466 C.3       1 RES1    0.0000
      7 C3         3.0461    1.1750    3.3087 C.3       1 RES1    0.0000
      8 C4         4.7149    2.3244    1.7237 C.3       1 RES1    0.0000
      9 C5         2.5265    3.4463    2.2311 C.3       1 RES1    0.0000
     10 C6         4.0705    0.0633    3.4626 C.3       1 RES1    0.0000
     11 C7         1.8248    0.6312    2.6078 C.3       1 RES1    0.0000
     12 C8         3.5191    2.3911    7.5956 C.2       1 RES1    0.0000
     13 C9         3.5067    3.1904    6.4518 C.2       1 RES1    0.0000
     14 C10        3.5139    4.5571    6.8555 C.2       1 RES1    0.0000
     15 C11        3.5159    5.6641    6.0127 C.2       1 RES1    0.0000
     16 C12        3.5400    7.0077    6.3418 C.2       1 RES1    0.0000
     17 C13        3.5191    7.6072    7.5956 C.2       1 RES1    0.0000
     18 H1         5.4900    1.9546    2.1531 H         1 RES1    0.0000
     19 H2         4.4249    1.7336    1.0249 H         1 RES1    0.0000
     20 H3         4.9359    3.1794    1.3470 H         1 RES1    0.0000
     21 H4         1.8354    3.5144    2.8924 H         1 RES1    0.0000
     22 H5         2.9126    4.3138    2.0822 H         1 RES1    0.0000
     23 H6         2.1529    3.1182    1.4108 H         1 RES1    0.0000
     24 H7         4.8138    0.3698    3.9862 H         1 RES1    0.0000
     25 H8         3.6561   -0.6826    3.9021 H         1 RES1    0.0000
     26 H9         4.3807   -0.2099    2.5957 H         1 RES1    0.0000
     27 H10        2.0466    0.3350    1.7217 H         1 RES1    0.0000
     28 H11        1.4876   -0.1098    3.1172 H         1 RES1    0.0000
     29 H12        1.1537    1.3165    2.5572 H         1 RES1    0.0000
     30 H13        3.5191    1.4611    7.5956 H         1 RES1    0.0000
     31 H14        3.4959    5.4732    5.1032 H         1 RES1    0.0000
     32 H15        3.5800    7.5961    5.6238 H         1 RES1    0.0000
     33 H16        3.5191    8.5372    7.5956 H         1 RES1    0.0000
     34 O1A        1.9752    3.9963   11.1666 O.2       1 RES1   -1.0000
     35 O2A        5.1389    0.9566    9.7374 O.2       1 RES1    0.0000
     36 N1A        2.8871    3.1007   11.1678 N.pl3     1 RES1    1.0000
     37 N2A        4.3344    1.6235   10.4834 N.3       1 RES1    0.0000
     38 C1A        3.5785    2.6721   10.0933 C.2       1 RES1    0.0000
     39 C2A        3.4233    2.4933   12.4447 C.3       1 RES1    0.0000
     40 C3A        3.9920    1.1750   11.8826 C.3       1 RES1    0.0000
     41 C4A        2.3233    2.3244   13.4675 C.3       1 RES1    0.0000
     42 C5A        4.5116    3.4463   12.9602 C.3       1 RES1    0.0000
     43 C6A        2.9676    0.0633   11.7286 C.3       1 RES1    0.0000
     44 C7A        5.2133    0.6312   12.5834 C.3       1 RES1    0.0000
     45 C9A        3.5315    3.1904    8.7394 C.2       1 RES1    0.0000
     46 C10A       3.5243    4.5571    8.3357 C.2       1 RES1    0.0000
     47 C11A       3.5222    5.6641    9.1785 C.2       1 RES1    0.0000
     48 C12A       3.4981    7.0077    8.8494 C.2       1 RES1    0.0000
     49 H1A        1.5481    1.9546   13.0381 H         1 RES1    0.0000
     50 H2A        2.6133    1.7336   14.1663 H         1 RES1    0.0000
     51 H3A        2.1022    3.1794   13.8443 H         1 RES1    0.0000
     52 H4A        5.2028    3.5144   12.2988 H         1 RES1    0.0000
     53 H5A        4.1255    4.3138   13.1090 H         1 RES1    0.0000
     54 H6A        4.8852    3.1182   13.7805 H         1 RES1    0.0000
     55 H7A        2.2244    0.3698   11.2051 H         1 RES1    0.0000
     56 H8A        3.3820   -0.6826   11.2891 H         1 RES1    0.0000
     57 H9A        2.6574   -0.2099   12.5956 H         1 RES1    0.0000
     58 H10A       4.9915    0.3350   13.4696 H         1 RES1    0.0000
     59 H11A       5.5505   -0.1098   12.0740 H         1 RES1    0.0000
     60 H12A       5.8845    1.3165   12.6340 H         1 RES1    0.0000
     61 H14A       3.5422    5.4732   10.0880 H         1 RES1    0.0000
     62 H15A       3.4581    7.5961    9.5674 H         1 RES1    0.0000
@<TRIPOS>BOND
     1    1    3 1
     2    2    4 1
     3    3    5 2
     4    4    5 1
     5    5   13 1
     6    6    3 1
     7    7    4 1
     8    8    6 1
     9    9    6 1
    10   10    7 1
    11   11    7 1
    12   12   13 1
    13   13   14 2
    14   14   15 1
    15   15   16 2
    16   16   17 1
    17   17   33 1
    18   18    8 1
    19   19    8 1
    20   20    8 1
    21   21    9 1
    22   22    9 1
    23   23    9 1
    24   24   10 1
    25   25   10 1
    26   26   10 1
    27   27   11 1
    28   28   11 1
    29   29   11 1
    30   30   12 1
    31   31   15 1
    32   32   16 1
    33   34   36 1
    34   35   37 1
    35   36   38 2
    36   37   38 1
    37   38   45 1
    38   39   36 1
    39   40   37 1
    40   41   39 1
    41   42   39 1
    42   43   40 1
    43   44   40 1
    44   45   12 2
    45   46   14 1
    46   47   46 2
    47   48   17 2
    48   49   41 1
    49   50   41 1
    50   51   41 1
    51   52   42 1
    52   53   42 1
    53   54   42 1
    54   55   43 1
    55   56   43 1
    56   57   43 1
    57   58   44 1
    58   59   44 1
    59   60   44 1
    60   61   47 1
    61   62   48 1
    62    6    7 1
    63   39   40 1
    64   45   46 1
    65   47   48 1
@<TRIPOS>SUBSTRUCTURE
     1 RES1 1

@<TRIPOS>CRYSIN
  16.0810   13.9020   11.7860  90.0000 120.7640  90.0000  15 1

