# MOL2 file generated by ConQuest
# Please check atom types

@<TRIPOS>MOLECULE
XEGTOS
    42    43     1
SMALL
NO_CHARGES
****
Generated from CSD

@<TRIPOS>ATOM
      1 O1        -1.5714    2.7148   11.9286 O.2       1 RES1    0.0000
      2 O2        -0.5373    4.6872   12.2321 O.3       1 RES1    0.0000
      3 O3         0.4198    5.7942    9.1770 O.2       1 RES1    0.0000
      4 O4        -1.5795    5.9901    9.9777 O.2       1 RES1    0.0000
      5 N1        -0.5787    5.3371    9.7189 N.pl3     1 RES1    0.0000
      6 C1        -0.6501    3.8362   10.0269 C.3       1 RES1    0.0000
      7 C2        -1.0131    3.6839   11.5027 C.2       1 RES1    0.0000
      8 C3        -0.6560    4.5557   13.6756 C.3       1 RES1    0.0000
      9 H1        -0.2567    3.7021   13.9799 H         1 RES1    0.0000
     10 H2        -1.6082    4.5757   13.9476 H         1 RES1    0.0000
     11 C4         0.0814    5.7175   14.2648 C.3       1 RES1    0.0000
     12 H3         1.0070    5.7145   13.9432 H         1 RES1    0.0000
     13 H4         0.0754    5.6466   15.2426 H         1 RES1    0.0000
     14 H5        -0.3559    6.5524   13.9961 H         1 RES1    0.0000
     15 C5        -1.7571    3.2695    9.1127 C.3       1 RES1    0.0000
     16 H6        -1.8604    2.3024    9.2965 H         1 RES1    0.0000
     17 H7        -2.6135    3.7118    9.3361 H         1 RES1    0.0000
     18 C6        -1.4785    3.4600    7.6405 C.ar      1 RES1    0.0000
     19 C7        -1.8362    4.6510    7.0121 C.ar      1 RES1    0.0000
     20 H8        -2.2750    5.3293    7.5112 H         1 RES1    0.0000
     21 C8        -1.5612    4.8609    5.6701 C.ar      1 RES1    0.0000
     22 H9        -1.8093    5.6793    5.2561 H         1 RES1    0.0000
     23 C9        -0.9260    3.8798    4.9357 C.ar      1 RES1    0.0000
     24 H10       -0.7318    4.0255    4.0169 H         1 RES1    0.0000
     25 C10       -0.5734    2.6859    5.5349 C.ar      1 RES1    0.0000
     26 H11       -0.1428    2.0088    5.0270 H         1 RES1    0.0000
     27 C11       -0.8487    2.4753    6.8812 C.ar      1 RES1    0.0000
     28 H12       -0.6056    1.6520    7.2880 H         1 RES1    0.0000
     29 C12        0.7049    3.1548    9.7703 C.3       1 RES1    0.0000
     30 H13        0.5438    2.1878    9.6312 H         1 RES1    0.0000
     31 H14        1.0796    3.5164    8.9280 H         1 RES1    0.0000
     32 C13        1.7507    3.3108   10.8596 C.ar      1 RES1    0.0000
     33 C14        1.8628    2.3273   11.8418 C.ar      1 RES1    0.0000
     34 H15        1.2985    1.5635   11.8115 H         1 RES1    0.0000
     35 C15        2.7915    2.4583   12.8633 C.ar      1 RES1    0.0000
     36 H16        2.8574    1.7861   13.5307 H         1 RES1    0.0000
     37 C16        3.6226    3.5625   12.9139 C.ar      1 RES1    0.0000
     38 H17        4.2512    3.6542   13.6202 H         1 RES1    0.0000
     39 C17        3.5347    4.5290   11.9345 C.ar      1 RES1    0.0000
     40 H18        4.1156    5.2807   11.9597 H         1 RES1    0.0000
     41 C18        2.6036    4.4101   10.9129 C.ar      1 RES1    0.0000
     42 H19        2.5476    5.0835   10.2449 H         1 RES1    0.0000
@<TRIPOS>BOND
     1    1    7 2
     2    2    7 1
     3    3    5 2
     4    4    5 2
     5    5    6 1
     6    6    7 1
     7    8    2 1
     8    9    8 1
     9   10    8 1
    10   11    8 1
    11   12   11 1
    12   13   11 1
    13   14   11 1
    14   15    6 1
    15   16   15 1
    16   17   15 1
    17   18   15 1
    18   19   18 ar
    19   20   19 1
    20   21   19 ar
    21   22   21 1
    22   23   21 ar
    23   24   23 1
    24   25   23 ar
    25   26   25 1
    26   27   18 ar
    27   28   27 1
    28   29    6 1
    29   30   29 1
    30   31   29 1
    31   32   29 1
    32   33   32 ar
    33   34   33 1
    34   35   33 ar
    35   36   35 1
    36   37   35 ar
    37   38   37 1
    38   39   37 ar
    39   40   39 1
    40   41   32 ar
    41   42   41 1
    42   25   27 ar
    43   39   41 ar
@<TRIPOS>SUBSTRUCTURE
     1 RES1 1

@<TRIPOS>CRYSIN
  18.0850    6.0670   15.9830  90.0000 113.2800  90.0000  14 1

