# MOL2 file generated by ConQuest
# Please check atom types

@<TRIPOS>MOLECULE
XEHHUN
    41    42     1
SMALL
NO_CHARGES
****
Generated from CSD

@<TRIPOS>ATOM
      1 O1         1.2567    5.7661    0.5459 O.2       1 RES1    0.0000
      2 O2        -2.4894    5.6003   -1.3925 O.2       1 RES1    0.0000
      3 O3        -1.5498    1.7011    7.7512 O.2       1 RES1    0.0000
      4 O4         0.5015    2.2065    8.1714 O.2       1 RES1    0.0000
      5 N1         0.0585    6.3638   -1.3125 N.am      1 RES1    0.0000
      6 H1        -0.7502    6.3374   -1.6572 H         1 RES1    0.0000
      7 N2        -1.0995    4.5326    1.5847 N.2       1 RES1    0.0000
      8 N3        -0.0169    4.4539    2.3559 N.pl3     1 RES1    0.0000
      9 H2         0.7580    4.7710    2.0862 H         1 RES1    0.0000
     10 N4        -0.4731    2.1755    7.4215 N.pl3     1 RES1    0.0000
     11 C1         1.0288    7.0025   -2.1043 C.ar      1 RES1    0.0000
     12 C2         0.5973    7.5973   -3.3023 C.ar      1 RES1    0.0000
     13 C3         1.5138    8.1686   -4.1256 C.ar      1 RES1    0.0000
     14 H3         1.2144    8.5651   -4.9353 H         1 RES1    0.0000
     15 C4         2.8797    8.1973   -3.8280 C.ar      1 RES1    0.0000
     16 H4         3.4960    8.6234   -4.4126 H         1 RES1    0.0000
     17 C5         3.3131    7.5905   -2.6648 C.ar      1 RES1    0.0000
     18 H5         4.2388    7.5753   -2.4563 H         1 RES1    0.0000
     19 C6         2.4009    7.0040   -1.8022 C.ar      1 RES1    0.0000
     20 H6         2.7073    6.5984   -1.0001 H         1 RES1    0.0000
     21 C7         0.1854    5.7872   -0.1073 C.2       1 RES1    0.0000
     22 C8        -1.0423    5.1380    0.4305 C.2       1 RES1    0.0000
     23 C9        -2.3631    5.1039   -0.2840 C.2       1 RES1    0.0000
     24 C10       -3.5302    4.4585    0.3913 C.3       1 RES1    0.0000
     25 H7        -4.3393    4.6038   -0.1435 H         1 RES1    0.0000
     26 H8        -3.6524    4.8520    1.2795 H         1 RES1    0.0000
     27 H9        -3.3664    3.4960    0.4789 H         1 RES1    0.0000
     28 C11       -0.1551    3.8531    3.6044 C.ar      1 RES1    0.0000
     29 C12        0.9529    3.8955    4.4625 C.ar      1 RES1    0.0000
     30 H10        1.7642    4.3049    4.1815 H         1 RES1    0.0000
     31 C13        0.8502    3.3378    5.7133 C.ar      1 RES1    0.0000
     32 H11        1.5891    3.3590    6.3100 H         1 RES1    0.0000
     33 C14       -0.3281    2.7498    6.0909 C.ar      1 RES1    0.0000
     34 C15       -1.4526    2.6969    5.2465 C.ar      1 RES1    0.0000
     35 H12       -2.2594    2.2815    5.5260 H         1 RES1    0.0000
     36 C16       -1.3370    3.2659    4.0108 C.ar      1 RES1    0.0000
     37 H13       -2.0815    3.2576    3.4216 H         1 RES1    0.0000
     38 C17       -0.8655    7.5519   -3.6588 C.3       1 RES1    0.0000
     39 H14       -0.9967    7.9385   -4.5501 H         1 RES1    0.0000
     40 H15       -1.3792    8.0664   -3.0002 H         1 RES1    0.0000
     41 H16       -1.1734    6.6219   -3.6573 H         1 RES1    0.0000
@<TRIPOS>BOND
     1    1   21 2
     2    2   23 2
     3    3   10 2
     4    4   10 2
     5    5    6 1
     6    7    8 1
     7    8    9 1
     8   10   33 1
     9   11    5 1
    10   12   11 ar
    11   13   12 ar
    12   14   13 1
    13   15   13 ar
    14   16   15 1
    15   17   15 ar
    16   18   17 1
    17   19   11 ar
    18   20   19 1
    19   21    5 1
    20   22    7 2
    21   23   22 1
    22   24   23 1
    23   25   24 1
    24   26   24 1
    25   27   24 1
    26   28    8 1
    27   29   28 ar
    28   30   29 1
    29   31   29 ar
    30   32   31 1
    31   33   31 ar
    32   34   33 ar
    33   35   34 1
    34   36   28 ar
    35   37   36 1
    36   38   12 1
    37   39   38 1
    38   40   38 1
    39   41   38 1
    40   17   19 ar
    41   21   22 1
    42   34   36 ar
@<TRIPOS>SUBSTRUCTURE
     1 RES1 1

@<TRIPOS>CRYSIN
  14.1110    7.5670   15.3380  90.0000  99.9670  90.0000 231 1

