# MOL2 file generated by ConQuest
# Please check atom types

@<TRIPOS>MOLECULE
XEHZIT
    24    25     1
SMALL
NO_CHARGES
****
Generated from CSD

@<TRIPOS>ATOM
      1 O1         1.0940    1.6717    6.8616 O.2       1 RES1    0.0000
      2 O2        -3.8988    1.5049    3.2271 O.2       1 RES1    0.0000
      3 N1        -0.1734    1.6350    7.0982 N.pl3     1 RES1    0.0000
      4 C1        -1.1322    1.6249    6.2035 C.2       1 RES1    0.0000
      5 C2        -2.4750    1.4164    6.5411 C.2       1 RES1    0.0000
      6 C3        -3.4136    1.3280    5.5433 C.2       1 RES1    0.0000
      7 C4        -3.0592    1.5314    4.1552 C.2       1 RES1    0.0000
      8 C5        -1.6504    1.7690    3.8640 C.2       1 RES1    0.0000
      9 C6        -0.7211    1.7942    4.8326 C.2       1 RES1    0.0000
     10 C7        -0.4326    1.6034    8.5753 C.ar      1 RES1    0.0000
     11 C8        -1.1574    2.6358    9.1697 C.ar      1 RES1    0.0000
     12 C9        -1.3641    2.6155   10.4941 C.ar      1 RES1    0.0000
     13 C10       -0.7466    1.6047   11.2524 C.ar      1 RES1    0.0000
     14 C11       -0.0535    0.5939   10.6660 C.ar      1 RES1    0.0000
     15 C12        0.0865    0.5812    9.2607 C.ar      1 RES1    0.0000
     16 H1        -2.7168    1.3356    7.4419 H         1 RES1    0.0000
     17 H2        -4.3181    1.1107    5.7708 H         1 RES1    0.0000
     18 H3        -1.4064    1.9231    2.9784 H         1 RES1    0.0000
     19 H4         0.2077    1.9395    4.6152 H         1 RES1    0.0000
     20 H5        -1.5274    3.3345    8.6319 H         1 RES1    0.0000
     21 H6        -1.8748    3.3029   10.9198 H         1 RES1    0.0000
     22 H7        -0.8142    1.6136   12.1805 H         1 RES1    0.0000
     23 H8         0.3385   -0.0872   11.2029 H         1 RES1    0.0000
     24 H9         0.5449   -0.1466    8.8260 H         1 RES1    0.0000
@<TRIPOS>BOND
     1    1    3 1
     2    2    7 2
     3    3    4 2
     4    4    5 1
     5    5    6 2
     6    6    7 1
     7    7    8 1
     8    8    9 2
     9    9    4 1
    10   10    3 1
    11   11   10 ar
    12   12   11 ar
    13   13   12 ar
    14   14   13 ar
    15   15   10 ar
    16   16    5 1
    17   17    6 1
    18   18    8 1
    19   19    9 1
    20   20   11 1
    21   21   12 1
    22   22   13 1
    23   23   14 1
    24   24   15 1
    25   14   15 ar
@<TRIPOS>SUBSTRUCTURE
     1 RES1 1

@<TRIPOS>CRYSIN
   7.5100   12.6355   10.3020  90.0000 101.0800  90.0000  14 2

