# MOL2 file generated by ConQuest
# Please check atom types

@<TRIPOS>MOLECULE
XEKDUP
    78    86     1
SMALL
NO_CHARGES
****
Generated from CSD

@<TRIPOS>ATOM
      1 C1         7.5187    8.6627    5.6504 C.ar      1 RES1    0.0000
      2 C2         7.0661    7.3905    5.9385 C.ar      1 RES1    0.0000
      3 H1         7.1962    6.6770    5.3255 H         1 RES1    0.0000
      4 C3         6.4177    7.1811    7.1461 C.ar      1 RES1    0.0000
      5 H2         6.0994    6.3114    7.3563 H         1 RES1    0.0000
      6 C4         6.2202    8.2154    8.0591 C.ar      1 RES1    0.0000
      7 C5         6.7191    9.4831    7.7264 C.ar      1 RES1    0.0000
      8 H3         6.6138   10.2006    8.3399 H         1 RES1    0.0000
      9 C6         7.3607    9.7112    6.5259 C.ar      1 RES1    0.0000
     10 H4         7.6864   10.5762    6.3076 H         1 RES1    0.0000
     11 C7         5.4311    8.0725    9.3164 C.2       1 RES1    0.0000
     12 C8         5.5362    6.9686   10.1480 C.2       1 RES1    0.0000
     13 C9         6.1535    5.6850    9.9031 C.2       1 RES1    0.0000
     14 H5         6.7858    5.4928    9.2198 H         1 RES1    0.0000
     15 C10        5.6816    4.8087   10.8072 C.2       1 RES1    0.0000
     16 H6         5.8667    3.8773   10.8184 H         1 RES1    0.0000
     17 C11        4.8475    5.5066   11.7622 C.2       1 RES1    0.0000
     18 C12        4.2825    4.9883   12.8955 C.2       1 RES1    0.0000
     19 C13        4.3713    3.5039   13.0954 C.ar      1 RES1    0.0000
     20 C14        5.5766    2.8221   13.2003 C.ar      1 RES1    0.0000
     21 H7         6.3931    3.2963   13.0985 H         1 RES1    0.0000
     22 C15        5.6058    1.4597   13.4516 C.ar      1 RES1    0.0000
     23 H8         6.4443    1.0191   13.5214 H         1 RES1    0.0000
     24 C16        4.4426    0.7249   13.6037 C.ar      1 RES1    0.0000
     25 C17        4.4669   -0.7437   13.9531 C.3       1 RES1    0.0000
     26 H9         3.9003   -1.2382   13.3247 H         1 RES1    0.0000
     27 H10        4.1289   -0.8684   14.8644 H         1 RES1    0.0000
     28 H11        5.3860   -1.0778   13.8978 H         1 RES1    0.0000
     29 C18        3.2381    1.3965   13.4726 C.ar      1 RES1    0.0000
     30 H12        2.4239    0.9118   13.5431 H         1 RES1    0.0000
     31 C19        3.2004    2.7639   13.2406 C.ar      1 RES1    0.0000
     32 H13        2.3606    3.2031   13.1791 H         1 RES1    0.0000
     33 C20        3.6825    5.7326   14.0216 C.ar      1 RES1    0.0000
     34 C21        3.8594    5.1752   15.2999 C.ar      1 RES1    0.0000
     35 H14        4.2839    4.3274   15.3555 H         1 RES1    0.0000
     36 C22        3.4602    5.7713   16.4836 C.ar      1 RES1    0.0000
     37 H15        3.6218    5.3322   17.3103 H         1 RES1    0.0000
     38 C23        2.8296    6.9947   16.4706 C.ar      1 RES1    0.0000
     39 H16        2.5454    7.4117   17.2747 H         1 RES1    0.0000
     40 C24        2.6262    7.5960   15.2314 C.ar      1 RES1    0.0000
     41 C25        3.0250    6.9745   14.0489 C.ar      1 RES1    0.0000
     42 C26        2.1481    8.9474   13.4647 C.ar      1 RES1    0.0000
     43 C27        2.0716    8.8648   14.8540 C.ar      1 RES1    0.0000
     44 C28        1.5383    9.8977   15.6176 C.ar      1 RES1    0.0000
     45 H17        1.4794    9.8308   16.5637 H         1 RES1    0.0000
     46 C29        1.0977   11.0206   14.9524 C.ar      1 RES1    0.0000
     47 H18        0.7521   11.7571   15.4422 H         1 RES1    0.0000
     48 C30        1.1591   11.0771   13.5716 C.ar      1 RES1    0.0000
     49 H19        0.8324   11.8619   13.1481 H         1 RES1    0.0000
     50 C31        1.6707   10.0555   12.7498 C.ar      1 RES1    0.0000
     51 C32        1.6378   10.3155   11.2936 C.2       1 RES1    0.0000
     52 C33        0.4963   11.1617   10.8367 C.ar      1 RES1    0.0000
     53 C34       -0.8118   10.7649   11.0984 C.ar      1 RES1    0.0000
     54 H20       -0.9701    9.9417   11.5464 H         1 RES1    0.0000
     55 C35       -1.8850   11.5483   10.7169 C.ar      1 RES1    0.0000
     56 H21       -2.7668   11.2491   10.9036 H         1 RES1    0.0000
     57 C36       -1.7043   12.7583   10.0696 C.ar      1 RES1    0.0000
     58 C37       -2.8973   13.6074    9.7059 C.3       1 RES1    0.0000
     59 H22       -2.7518   14.0159    8.8263 H         1 RES1    0.0000
     60 H23       -3.0136   14.3119   10.3769 H         1 RES1    0.0000
     61 H24       -3.7009   13.0474    9.6767 H         1 RES1    0.0000
     62 C38       -0.4077   13.1580    9.8135 C.ar      1 RES1    0.0000
     63 H25       -0.2565   13.9809    9.3654 H         1 RES1    0.0000
     64 C39        0.6794   12.3851   10.1947 C.ar      1 RES1    0.0000
     65 H26        1.5604   12.6940   10.0160 H         1 RES1    0.0000
     66 C40        2.5719    9.9133   10.3792 C.2       1 RES1    0.0000
     67 C41        2.5668   10.2310    8.9563 C.2       1 RES1    0.0000
     68 H27        1.8980   10.7167    8.4871 H         1 RES1    0.0000
     69 C42        3.6827    9.7089    8.4381 C.2       1 RES1    0.0000
     70 H28        3.9768    9.7821    7.5375 H         1 RES1    0.0000
     71 C43        4.3616    9.0039    9.5223 C.2       1 RES1    0.0000
     72 N1         8.1674    8.9166    4.3600 N.pl3     1 RES1    0.0000
     73 N2         4.8342    6.8315   11.3226 N.pl3     1 RES1    0.0000
     74 N3         3.7027    9.1507   10.6734 N.2       1 RES1    0.0000
     75 O1         8.6131   10.0442    4.1472 O.2       1 RES1    0.0000
     76 O2         8.2253    7.9997    3.5466 O.2       1 RES1    0.0000
     77 O3         2.7030    7.7735   12.9458 O.3       1 RES1    0.0000
     78 H29        4.2461    7.5642   11.6409 H         1 RES1    0.0000
@<TRIPOS>BOND
     1    1    2 ar
     2    2    3 1
     3    4    2 ar
     4    5    4 1
     5    6    4 ar
     6    7    6 ar
     7    8    7 1
     8    9    1 ar
     9   10    9 1
    10   11    6 1
    11   12   11 2
    12   13   12 1
    13   14   13 1
    14   15   13 2
    15   16   15 1
    16   17   15 1
    17   18   17 2
    18   19   18 1
    19   20   19 ar
    20   21   20 1
    21   22   20 ar
    22   23   22 1
    23   24   22 ar
    24   25   24 1
    25   26   25 1
    26   27   25 1
    27   28   25 1
    28   29   24 ar
    29   30   29 1
    30   31   19 ar
    31   32   31 1
    32   33   18 1
    33   34   33 ar
    34   35   34 1
    35   36   34 ar
    36   37   36 1
    37   38   36 ar
    38   39   38 1
    39   40   38 ar
    40   41   33 ar
    41   42   43 ar
    42   43   40 1
    43   44   43 ar
    44   45   44 1
    45   46   44 ar
    46   47   46 1
    47   48   46 ar
    48   49   48 1
    49   50   42 ar
    50   51   50 1
    51   52   51 1
    52   53   52 ar
    53   54   53 1
    54   55   53 ar
    55   56   55 1
    56   57   55 ar
    57   58   57 1
    58   59   58 1
    59   60   58 1
    60   61   58 1
    61   62   57 ar
    62   63   62 1
    63   64   52 ar
    64   65   64 1
    65   66   51 2
    66   67   66 1
    67   68   67 1
    68   69   67 2
    69   70   69 1
    70   71   11 1
    71   72    1 1
    72   73   12 1
    73   74   66 1
    74   75   72 2
    75   76   72 2
    76   77   41 1
    77   78   73 1
    78    7    9 ar
    79   17   73 1
    80   29   31 ar
    81   40   41 ar
    82   42   77 1
    83   48   50 ar
    84   62   64 ar
    85   69   71 1
    86   71   74 2
@<TRIPOS>SUBSTRUCTURE
     1 RES1 1

@<TRIPOS>CRYSIN
   7.9250   12.5953   15.5199  87.3250  87.5570  87.3680   2 1

