# MOL2 file generated by ConQuest
# Please check atom types

@<TRIPOS>MOLECULE
XEKGUS
    64    68     1
SMALL
NO_CHARGES
****
Generated from CSD

@<TRIPOS>ATOM
      1 N1         5.1178    4.3280    2.9720 N.am      1 RES1    0.0000
      2 O1         4.9861    5.7998    4.7082 O.2       1 RES1    0.0000
      3 O2         5.1575    2.8436    1.2754 O.2       1 RES1    0.0000
      4 C1         6.0343    3.7180    5.1462 C.ar      1 RES1    0.0000
      5 C2         7.1352    1.5310    5.4184 C.ar      1 RES1    0.0000
      6 C3         6.4314    2.4643    4.6253 C.ar      1 RES1    0.0000
      7 C4         6.0664    2.0845    3.3077 C.ar      1 RES1    0.0000
      8 C5         7.0440    3.1311    7.2466 C.ar      1 RES1    0.0000
      9 C6         4.5682    5.3534    2.0660 C.ar      1 RES1    0.0000
     10 N2         8.5105    1.2188    7.4278 N.pl3     1 RES1    0.0000
     11 H1         8.5172    1.3257    8.3008 H         1 RES1    0.0000
     12 O3         6.8371    4.6330    8.9714 O.2       1 RES1    0.0000
     13 O4         7.9906    2.8924    9.3428 O.2       1 RES1    0.0000
     14 C7         6.2824    4.0058    6.4501 C.ar      1 RES1    0.0000
     15 H2         5.9376    4.8057    6.8286 H         1 RES1    0.0000
     16 C8         5.4253    3.0904    2.4314 C.2       1 RES1    0.0000
     17 N3         7.2872    3.5811    8.5894 N.pl3     1 RES1    0.0000
     18 C9         3.5784    7.1951    0.2704 C.ar      1 RES1    0.0000
     19 C10        7.5880    1.9363    6.7414 C.ar      1 RES1    0.0000
     20 C11        3.2116    5.3557    1.8189 C.ar      1 RES1    0.0000
     21 C12        5.3345    4.7219    4.3152 C.2       1 RES1    0.0000
     22 C13        2.7462    6.3074    0.9000 C.ar      1 RES1    0.0000
     23 H3         1.8172    6.3375    0.7064 H         1 RES1    0.0000
     24 C14        7.3215    0.2243    4.9205 C.ar      1 RES1    0.0000
     25 H4         7.7365   -0.4282    5.4716 H         1 RES1    0.0000
     26 C15        9.4747    0.3055    6.8949 C.ar      1 RES1    0.0000
     27 C16        6.9184   -0.1233    3.6594 C.ar      1 RES1    0.0000
     28 H5         7.0439   -1.0101    3.3419 H         1 RES1    0.0000
     29 C17        9.4943   -0.9941    7.4199 C.ar      1 RES1    0.0000
     30 C18        5.4331    6.2319    1.4651 C.ar      1 RES1    0.0000
     31 C19       10.4345   -1.8791    6.9054 C.ar      1 RES1    0.0000
     32 H6        10.4770   -2.7590    7.2595 H         1 RES1    0.0000
     33 C20       10.3738    0.7358    5.9408 C.ar      1 RES1    0.0000
     34 C21        6.3249    0.8314    2.8483 C.ar      1 RES1    0.0000
     35 H7         6.0944    0.6052    1.9553 H         1 RES1    0.0000
     36 C22       11.2634   -0.2026    5.4420 C.ar      1 RES1    0.0000
     37 H8        11.8692    0.0645    4.7600 H         1 RES1    0.0000
     38 C23        4.9131    7.1525    0.5564 C.ar      1 RES1    0.0000
     39 H9         5.4994    7.7649    0.1273 H         1 RES1    0.0000
     40 C24        2.2877    4.3920    2.4559 C.3       1 RES1    0.0000
     41 H10        2.6376    3.4834    2.3460 H         1 RES1    0.0000
     42 H11        1.4061    4.4565    2.0320 H         1 RES1    0.0000
     43 H12        2.2077    4.5986    3.4100 H         1 RES1    0.0000
     44 C25        3.0330    8.2032   -0.7239 C.3       1 RES1    0.0000
     45 H13        2.6199    8.9493   -0.2390 H         1 RES1    0.0000
     46 H14        2.3610    7.7718   -1.2925 H         1 RES1    0.0000
     47 H15        3.7645    8.5414   -1.2820 H         1 RES1    0.0000
     48 C26       11.3103   -1.5216    5.8955 C.ar      1 RES1    0.0000
     49 C27        8.5032   -1.4299    8.4438 C.3       1 RES1    0.0000
     50 H16        8.4547   -0.7594    9.1572 H         1 RES1    0.0000
     51 H17        8.7805   -2.2902    8.8223 H         1 RES1    0.0000
     52 H18        7.6219   -1.5251    8.0269 H         1 RES1    0.0000
     53 C28       10.4174    2.1550    5.4315 C.3       1 RES1    0.0000
     54 H19       11.2914    2.3289    5.0234 H         1 RES1    0.0000
     55 H20       10.2767    2.7737    6.1780 H         1 RES1    0.0000
     56 H21        9.7125    2.2841    4.7635 H         1 RES1    0.0000
     57 C29        6.9139    6.2139    1.7704 C.3       1 RES1    0.0000
     58 H22        7.0559    6.4479    2.7123 H         1 RES1    0.0000
     59 H23        7.3731    6.8649    1.2000 H         1 RES1    0.0000
     60 H24        7.2719    5.3185    1.5995 H         1 RES1    0.0000
     61 C30       12.2724   -2.5039    5.3216 C.3       1 RES1    0.0000
     62 H25       12.4473   -2.2800    4.3850 H         1 RES1    0.0000
     63 H26       11.8905   -3.4049    5.3774 H         1 RES1    0.0000
     64 H27       13.1106   -2.4734    5.8275 H         1 RES1    0.0000
@<TRIPOS>BOND
     1    1    9 1
     2    2   21 2
     3    3   16 2
     4    4    6 ar
     5    5    6 ar
     6    6    7 ar
     7    7   16 1
     8    8   14 ar
     9    9   20 ar
    10   10   11 1
    11   12   17 2
    12   13   17 2
    13   14    4 ar
    14   15   14 1
    15   16    1 1
    16   17    8 1
    17   18   22 ar
    18   19    5 ar
    19   20   22 ar
    20   21    1 1
    21   22   23 1
    22   24    5 ar
    23   25   24 1
    24   26   10 1
    25   27   24 ar
    26   28   27 1
    27   29   26 ar
    28   30    9 ar
    29   31   29 ar
    30   32   31 1
    31   33   26 ar
    32   34    7 ar
    33   35   34 1
    34   36   33 ar
    35   37   36 1
    36   38   18 ar
    37   39   38 1
    38   40   20 1
    39   41   40 1
    40   42   40 1
    41   43   40 1
    42   44   18 1
    43   45   44 1
    44   46   44 1
    45   47   44 1
    46   48   31 ar
    47   49   29 1
    48   50   49 1
    49   51   49 1
    50   52   49 1
    51   53   33 1
    52   54   53 1
    53   55   53 1
    54   56   53 1
    55   57   30 1
    56   58   57 1
    57   59   57 1
    58   60   57 1
    59   61   48 1
    60   62   61 1
    61   63   61 1
    62   64   61 1
    63    4   21 1
    64    8   19 ar
    65   10   19 1
    66   27   34 ar
    67   30   38 ar
    68   36   48 ar
@<TRIPOS>SUBSTRUCTURE
     1 RES1 1

@<TRIPOS>CRYSIN
   7.9430    9.5900   17.6770  91.1320  98.5790 106.3240   2 1

