# MOL2 file generated by ConQuest
# Please check atom types

@<TRIPOS>MOLECULE
XEKLAB
    49    51     1
SMALL
NO_CHARGES
****
Generated from CSD

@<TRIPOS>ATOM
      1 O1        -1.7891    8.4403    3.9416 O.3       1 RES1    0.0000
      2 O2         4.0094    9.2460   -1.4371 O.2       1 RES1    0.0000
      3 O3         3.9053    7.6237   -2.8631 O.2       1 RES1    0.0000
      4 O4        -0.5663    4.0534   -0.6501 O.2       1 RES1    0.0000
      5 O5         1.1030    3.8746   -2.0165 O.2       1 RES1    0.0000
      6 N1        -0.5566    6.1878    2.6633 N.2       1 RES1    0.0000
      7 N2        -0.2236    5.6172    1.4478 N.pl3     1 RES1    0.0000
      8 H1        -0.5985    4.9035    1.1794 H         1 RES1    0.0000
      9 N3         3.5615    8.1640   -1.8219 N.pl3     1 RES1    0.0000
     10 N4         0.5009    4.4628   -1.1273 N.pl3     1 RES1    0.0000
     11 C1        -1.2243    7.5867    4.9333 C.3       1 RES1    0.0000
     12 H2        -0.2030    7.6143    4.8898 H         1 RES1    0.0000
     13 C2        -1.6644    8.1244    6.2813 C.3       1 RES1    0.0000
     14 H3        -2.7036    8.1666    6.2815 H         1 RES1    0.0000
     15 H4        -1.3204    9.0616    6.3842 H         1 RES1    0.0000
     16 C3        -1.1771    7.2569    7.4307 C.3       1 RES1    0.0000
     17 H5        -1.4648    7.6184    8.2768 H         1 RES1    0.0000
     18 H6        -0.1259    7.2906    7.4595 H         1 RES1    0.0000
     19 C4        -1.6492    5.7982    7.2954 C.3       1 RES1    0.0000
     20 H7        -2.6591    5.7332    7.3707 H         1 RES1    0.0000
     21 C5        -1.2484    5.2234    5.9177 C.3       1 RES1    0.0000
     22 H8        -0.2983    5.1442    5.8735 H         1 RES1    0.0000
     23 C6        -1.8013    3.8042    5.7145 C.3       1 RES1    0.0000
     24 H9        -2.7605    3.8425    5.8597 H         1 RES1    0.0000
     25 H10       -1.4885    3.2386    6.4563 H         1 RES1    0.0000
     26 C7        -1.4256    3.2208    4.3599 C.3       1 RES1    0.0000
     27 H11       -0.4056    3.0767    4.2987 H         1 RES1    0.0000
     28 H12       -1.8539    2.3055    4.2737 H         1 RES1    0.0000
     29 C8        -1.8815    4.1299    3.2111 C.3       1 RES1    0.0000
     30 H13       -1.6360    3.7691    2.3228 H         1 RES1    0.0000
     31 H14       -2.9050    4.1948    3.2344 H         1 RES1    0.0000
     32 C9        -1.3293    5.5157    3.4375 C.2       1 RES1    0.0000
     33 C10       -1.7145    6.1421    4.7588 C.3       1 RES1    0.0000
     34 H15       -2.7298    6.1508    4.7690 H         1 RES1    0.0000
     35 C11       -1.1039    4.9644    8.4133 C.2       1 RES1    0.0000
     36 H16       -0.1489    4.9919    8.4946 H         1 RES1    0.0000
     37 C12       -1.7937    4.2385    9.2678 C.2       1 RES1    0.0000
     38 H17       -1.3635    3.7133    9.8766 H         1 RES1    0.0000
     39 H18       -2.7533    4.2016    9.2009 H         1 RES1    0.0000
     40 C13        0.6696    6.2389    0.6412 C.ar      1 RES1    0.0000
     41 C14        1.2875    7.4503    1.0400 C.ar      1 RES1    0.0000
     42 H19        1.0755    7.7626    1.8899 H         1 RES1    0.0000
     43 C15        2.2066    8.0692    0.2394 C.ar      1 RES1    0.0000
     44 H20        2.5637    8.8657    0.5675 H         1 RES1    0.0000
     45 C16        2.5677    7.5057   -0.9836 C.ar      1 RES1    0.0000
     46 C17        2.0125    6.3203   -1.4149 C.ar      1 RES1    0.0000
     47 H21        2.2581    6.0025   -2.2007 H         1 RES1    0.0000
     48 C18        1.0670    5.7025   -0.6122 C.ar      1 RES1    0.0000
     49 H22       -1.3543    8.2591    3.2746 H         1 RES1    0.0000
@<TRIPOS>BOND
     1    1   11 1
     2    2    9 2
     3    3    9 2
     4    4   10 2
     5    5   10 2
     6    6    7 1
     7    7    8 1
     8    9   45 1
     9   10   48 1
    10   11   12 1
    11   13   11 1
    12   14   13 1
    13   15   13 1
    14   16   13 1
    15   17   16 1
    16   18   16 1
    17   19   16 1
    18   20   19 1
    19   21   19 1
    20   22   21 1
    21   23   21 1
    22   24   23 1
    23   25   23 1
    24   26   23 1
    25   27   26 1
    26   28   26 1
    27   29   26 1
    28   30   29 1
    29   31   29 1
    30   32    6 2
    31   33   11 1
    32   34   33 1
    33   35   19 1
    34   36   35 1
    35   37   35 2
    36   38   37 1
    37   39   37 1
    38   40    7 1
    39   41   40 ar
    40   42   41 1
    41   43   41 ar
    42   44   43 1
    43   45   43 ar
    44   46   45 ar
    45   47   46 1
    46   48   40 ar
    47   49    1 1
    48   21   33 1
    49   29   32 1
    50   32   33 1
    51   46   48 ar
@<TRIPOS>SUBSTRUCTURE
     1 RES1 1

@<TRIPOS>CRYSIN
   4.6914   13.6019   13.8958  90.0000  93.0900  90.0000   4 1

