# MOL2 file generated by ConQuest
# Please check atom types

@<TRIPOS>MOLECULE
XEKPUZ
    36    38     1
SMALL
NO_CHARGES
****
Generated from CSD

@<TRIPOS>ATOM
      1 N1        -0.2562   -0.8461  -10.6283 N.3       1 RES1    0.0000
      2 O1        -2.0002   -3.7761  -11.8955 O.2       1 RES1    0.0000
      3 O2        -2.4022   -2.6144  -10.0977 O.3       1 RES1    0.0000
      4 O3         0.2968    0.1894  -11.4549 O.3       1 RES1    0.0000
      5 O4        -1.3791    2.2777  -14.5820 O.3       1 RES1    0.0000
      6 H1        -1.8072    2.4967  -15.2469 H         1 RES1    0.0000
      7 C1        -1.7139   -2.8203  -11.1996 C.2       1 RES1    0.0000
      8 C2        -2.0002   -1.5541   -9.2016 C.3       1 RES1    0.0000
      9 H2        -1.3239   -1.8921   -8.5939 H         1 RES1    0.0000
     10 H3        -2.7652   -1.2807   -8.6723 H         1 RES1    0.0000
     11 C3        -1.4528   -0.3553   -9.9289 C.3       1 RES1    0.0000
     12 H4        -2.1105   -0.0964  -10.5059 H         1 RES1    0.0000
     13 C4        -1.1164    0.7394   -8.9568 C.ar      1 RES1    0.0000
     14 C5        -1.8232    1.9169   -8.9671 C.ar      1 RES1    0.0000
     15 H5        -2.5050    2.0436   -9.5853 H         1 RES1    0.0000
     16 C6        -1.5209    2.9208   -8.0503 C.ar      1 RES1    0.0000
     17 H6        -1.9952    3.7195   -8.0713 H         1 RES1    0.0000
     18 C7        -0.5344    2.7432   -7.1220 C.ar      1 RES1    0.0000
     19 H7        -0.3464    3.4138   -6.5057 H         1 RES1    0.0000
     20 C8         0.1684    1.5864   -7.1061 C.ar      1 RES1    0.0000
     21 H8         0.8457    1.4666   -6.4808 H         1 RES1    0.0000
     22 C9        -0.1158    0.5798   -8.0164 C.ar      1 RES1    0.0000
     23 H9         0.3715   -0.2121   -7.9929 H         1 RES1    0.0000
     24 C10       -0.5073    0.2699  -12.6404 C.3       1 RES1    0.0000
     25 H10       -1.2081    0.7712  -12.4506 H         1 RES1    0.0000
     26 C11        0.3253    0.9006  -13.7299 C.3       1 RES1    0.0000
     27 H11        0.7530    1.6938  -13.3731 H         1 RES1    0.0000
     28 H12        1.0252    0.2796  -13.9856 H         1 RES1    0.0000
     29 C12       -0.4336    1.2766  -14.9359 C.3       1 RES1    0.0000
     30 H13        0.1699    1.6153  -15.6144 H         1 RES1    0.0000
     31 H14       -0.8918    0.4999  -15.2948 H         1 RES1    0.0000
     32 C13       -0.9971   -1.1320  -12.8967 C.3       1 RES1    0.0000
     33 H15       -0.5610   -1.5162  -13.6736 H         1 RES1    0.0000
     34 H16       -1.9571   -1.1457  -13.0343 H         1 RES1    0.0000
     35 C14       -0.6106   -1.8908  -11.6101 C.3       1 RES1    0.0000
     36 H17        0.1053   -2.4512  -11.7807 H         1 RES1    0.0000
@<TRIPOS>BOND
     1    1    4 1
     2    2    7 2
     3    3    7 1
     4    4   24 1
     5    5    6 1
     6    7   35 1
     7    8    3 1
     8    9    8 1
     9   10    8 1
    10   11    1 1
    11   12   11 1
    12   13   11 1
    13   14   13 ar
    14   15   14 1
    15   16   14 ar
    16   17   16 1
    17   18   16 ar
    18   19   18 1
    19   20   18 ar
    20   21   20 1
    21   22   13 ar
    22   23   22 1
    23   24   25 1
    24   26   24 1
    25   27   26 1
    26   28   26 1
    27   29    5 1
    28   30   29 1
    29   31   29 1
    30   32   24 1
    31   33   32 1
    32   34   32 1
    33   35    1 1
    34   36   35 1
    35    8   11 1
    36   20   22 ar
    37   26   29 1
    38   32   35 1
@<TRIPOS>SUBSTRUCTURE
     1 RES1 1

@<TRIPOS>CRYSIN
   5.0130   13.7710   19.1400  90.0000  90.0000  90.0000  19 1

