# MOL2 file generated by ConQuest
# Please check atom types

@<TRIPOS>MOLECULE
XELBUL
    19    21     1
SMALL
NO_CHARGES
****
Generated from CSD

@<TRIPOS>ATOM
      1 O1         0.8575    6.5215   10.4920 O.3       1 RES1    0.0000
      2 N1        -0.2727    6.6252    9.5754 N.3       1 RES1    0.0000
      3 C1        -1.1878    7.6489   10.1604 C.3       1 RES1    0.0000
      4 C2        -0.4555    8.1896   11.4004 C.3       1 RES1    0.0000
      5 C3         0.9646    7.7632   11.1935 C.3       1 RES1    0.0000
      6 C4         1.6858    7.4729   12.4375 C.1       1 RES1    0.0000
      7 N2         2.2312    7.2529   13.4089 N.1       1 RES1    0.0000
      8 C5         0.1768    7.1638    8.2615 C.3       1 RES1    0.0000
      9 C6        -0.6889    6.4859    7.2052 C.3       1 RES1    0.0000
     10 C7         1.6323    6.9983    7.9916 C.3       1 RES1    0.0000
     11 O2        -0.1061    8.5846    8.3232 O.3       1 RES1    0.0000
     12 C8        -1.3111    8.7041    9.0616 C.3       1 RES1    0.0000
     13 C9        -2.5373    7.0632   10.5769 C.3       1 RES1    0.0000
     14 O3        -3.3262    6.7709    9.4384 O.3       1 RES1    0.0000
     15 C10       -4.0847    5.6162    9.7343 C.3       1 RES1    0.0000
     16 C11       -5.3402    5.9777   10.5249 C.3       1 RES1    0.0000
     17 C12       -4.3595    4.8953    8.4698 C.3       1 RES1    0.0000
     18 O4        -3.2100    4.8366   10.5413 O.3       1 RES1    0.0000
     19 C13       -2.4676    5.7472   11.3414 C.3       1 RES1    0.0000
@<TRIPOS>BOND
     1    1    2 1
     2    2    3 1
     3    3    4 1
     4    4    5 1
     5    5    1 1
     6    6    5 1
     7    7    6 3
     8    8    2 1
     9    9    8 1
    10   10    8 1
    11   11    8 1
    12   12    3 1
    13   13    3 1
    14   14   13 1
    15   15   14 1
    16   16   15 1
    17   17   15 1
    18   18   15 1
    19   19   13 1
    20   11   12 1
    21   18   19 1
@<TRIPOS>SUBSTRUCTURE
     1 RES1 1

@<TRIPOS>CRYSIN
  10.1007   10.4780   13.7007  90.0000  90.0000  90.0000  19 1

