# MOL2 file generated by ConQuest
# Please check atom types

@<TRIPOS>MOLECULE
XELBIZ
    25    27     1
SMALL
NO_CHARGES
****
Generated from CSD

@<TRIPOS>ATOM
      1 O1         1.0044   -2.2751    2.9506 O.3       1 RES1    0.0000
      2 N1         0.9615   -0.1370    1.9964 N.3       1 RES1    0.0000
      3 C1         0.7155   -1.5961    1.7251 C.3       1 RES1    0.0000
      4 C2         1.7173   -1.9794    0.6411 C.3       1 RES1    0.0000
      5 C3        -0.6911   -1.9352    1.3251 C.3       1 RES1    0.0000
      6 O2        -0.3333    0.4881    2.3732 O.3       1 RES1    0.0000
      7 C4         2.1095   -1.5871    3.5036 C.3       1 RES1    0.0000
      8 O3        -1.8499    2.5162    3.9337 O.2       1 RES1    0.0000
      9 C5         1.8048   -0.1078    3.2381 C.3       1 RES1    0.0000
     10 O4        -2.2073    0.5675    4.9458 O.3       1 RES1    0.0000
     11 C6         0.8737    0.4941    4.2769 C.2       1 RES1    0.0000
     12 O5         2.2178    0.2179    6.1782 O.2       1 RES1    0.0000
     13 C7         1.2158    0.6581    5.6820 C.2       1 RES1    0.0000
     14 O6         0.2845    1.3221    6.3370 O.3       1 RES1    0.0000
     15 C8         0.4346    1.4217    7.7793 C.3       1 RES1    0.0000
     16 C9        -0.2829    0.7681    3.6798 C.2       1 RES1    0.0000
     17 O7         3.9015    2.5334    1.8631 O.3       1 RES1    0.0000
     18 C10       -1.5316    1.4119    4.1922 C.2       1 RES1    0.0000
     19 O8         3.8461    0.2568    1.9871 O.3       1 RES1    0.0000
     20 C11       -3.3496    1.1065    5.6739 C.3       1 RES1    0.0000
     21 C12        3.0530    0.7584    3.0677 C.3       1 RES1    0.0000
     22 C13        2.8006    2.1958    2.6688 C.3       1 RES1    0.0000
     23 C14        4.5198    1.3670    1.3924 C.3       1 RES1    0.0000
     24 C15        5.9595    1.3663    1.8329 C.3       1 RES1    0.0000
     25 C16        4.3982    1.2697   -0.0985 C.3       1 RES1    0.0000
@<TRIPOS>BOND
     1    1    3 1
     2    2    3 1
     3    3    4 1
     4    5    3 1
     5    6    2 1
     6    7    1 1
     7    8   18 2
     8    9    2 1
     9   10   18 1
    10   11    9 1
    11   12   13 2
    12   13   11 1
    13   14   13 1
    14   15   14 1
    15   16    6 1
    16   17   22 1
    17   18   16 1
    18   19   21 1
    19   20   10 1
    20   21    9 1
    21   22   21 1
    22   23   17 1
    23   24   23 1
    24   25   23 1
    25    7    9 1
    26   11   16 2
    27   19   23 1
@<TRIPOS>SUBSTRUCTURE
     1 RES1 1

@<TRIPOS>CRYSIN
  10.3280    7.4864   12.2107  90.0000 108.2940  90.0000   4 1

