# MOL2 file generated by ConQuest
# Please check atom types

@<TRIPOS>MOLECULE
XELBOF
    44    48     2
SMALL
NO_CHARGES
****
Generated from CSD

@<TRIPOS>ATOM
      1 N1        -1.0558    0.3662    1.9168 N.3       1 RES1    0.0000
      2 O1        -1.8019   -0.3900    6.1197 O.3       1 RES1    0.0000
      3 C1        -3.1613    0.5103    7.8265 C.3       1 RES1    0.0000
      4 O2        -3.4465   -1.7023    5.3705 O.2       1 RES1    0.0000
      5 C2        -2.2541   -0.5273    7.5033 C.3       1 RES1    0.0000
      6 O3        -2.1472   -0.5934    1.5817 O.3       1 RES1    0.0000
      7 C3        -2.5273   -0.9597    5.1263 C.2       1 RES1    0.0000
      8 O4         0.6991   -1.0563    2.5066 O.3       1 RES1    0.0000
      9 C4        -2.0575   -0.5765    3.8470 C.2       1 RES1    0.0000
     10 C5        -2.6511   -1.0461    2.7493 C.2       1 RES1    0.0000
     11 O5        -1.9006    3.8454    3.5774 O.3       1 RES1    0.0000
     12 C6         0.2133   -0.2560    1.4253 C.3       1 RES1    0.0000
     13 C7         0.0422   -1.1529    0.2234 C.3       1 RES1    0.0000
     14 C8         1.1546    0.9054    1.1140 C.3       1 RES1    0.0000
     15 C9         0.4417   -0.3171    3.7010 C.3       1 RES1    0.0000
     16 C10       -0.9308    0.3459    3.4299 C.3       1 RES1    0.0000
     17 C11       -1.0872    1.7091    4.0316 C.3       1 RES1    0.0000
     18 O6        -0.0305    2.5382    3.5848 O.3       1 RES1    0.0000
     19 C12       -2.3187    2.4907    3.5833 C.3       1 RES1    0.0000
     20 C13        0.0514    4.6101    2.4321 C.3       1 RES1    0.0000
     21 C14       -0.1034    4.5372    4.9148 C.3       1 RES1    0.0000
     22 C15       -0.4516    3.8963    3.6250 C.3       1 RES1    0.0000
     23 O7        -2.1282    5.0051    9.4632 O.3       2 RES2    0.0000
     24 N2         0.1251    2.9434   12.9438 N.3       2 RES2    0.0000
     25 C16       -3.4426    4.3642    7.5301 C.3       2 RES2    0.0000
     26 O8        -0.4433    3.7471    8.6784 O.2       2 RES2    0.0000
     27 C17       -2.5152    5.3696    8.1258 C.3       2 RES2    0.0000
     28 C18       -1.0872    4.1811    9.5958 C.2       2 RES2    0.0000
     29 O9        -0.9780    3.9081   13.2238 O.3       2 RES2    0.0000
     30 C19       -0.8129    3.8369   10.9913 C.2       2 RES2    0.0000
     31 O10        1.9142    4.3252   12.4181 O.3       2 RES2    0.0000
     32 O11       -0.6815   -0.5544   11.2102 O.3       2 RES2    0.0000
     33 C20       -1.4166    4.3388   12.0413 C.2       2 RES2    0.0000
     34 O12        1.2141    0.7019   11.2400 O.3       2 RES2    0.0000
     35 C21        1.3825    3.5334   13.4844 C.3       2 RES2    0.0000
     36 C22        1.1689    4.4490   14.6729 C.3       2 RES2    0.0000
     37 C23        2.2928    2.3737   13.8270 C.3       2 RES2    0.0000
     38 C24        1.6907    3.6097   11.2400 C.3       2 RES2    0.0000
     39 C25        0.3098    2.9790   11.4351 C.3       2 RES2    0.0000
     40 C26        0.1328    1.5599   10.8528 C.3       2 RES2    0.0000
     41 C27       -1.0576    0.7850   11.3413 C.3       2 RES2    0.0000
     42 C28        0.7479   -0.6273   11.3487 C.3       2 RES2    0.0000
     43 C29        1.2545   -1.4497   10.2124 C.3       2 RES2    0.0000
     44 C30        1.1056   -1.1563   12.6862 C.3       2 RES2    0.0000
@<TRIPOS>BOND
     1    1    6 1
     2    2    5 1
     3    3    5 1
     4    4    7 2
     5    6   10 1
     6    7    2 1
     7    8   12 1
     8    9    7 1
     9   10    9 2
    10   11   19 1
    11   12    1 1
    12   13   12 1
    13   14   12 1
    14   15    8 1
    15   16    1 1
    16   17   16 1
    17   18   17 1
    18   19   17 1
    19   20   22 1
    20   21   22 1
    21   22   11 1
    22   23   27 1
    23   24   29 1
    24   25   27 1
    25   26   28 2
    26   28   23 1
    27   29   33 1
    28   30   28 1
    29   31   35 1
    30   32   41 1
    31   33   30 2
    32   34   40 1
    33   35   24 1
    34   36   35 1
    35   37   35 1
    36   38   31 1
    37   39   24 1
    38   40   39 1
    39   41   40 1
    40   42   32 1
    41   43   42 1
    42   44   42 1
    43    9   16 1
    44   15   16 1
    45   18   22 1
    46   30   39 1
    47   34   42 1
    48   38   39 1
@<TRIPOS>SUBSTRUCTURE
     1 RES1 1
     2 RES2 23

@<TRIPOS>CRYSIN
   6.5197   16.9550   15.0470  90.0000  98.1950  90.0000   4 1

