# MOL2 file generated by ConQuest
# Please check atom types

@<TRIPOS>MOLECULE
XELCAS
    19    21     1
SMALL
NO_CHARGES
****
Generated from CSD

@<TRIPOS>ATOM
      1 O1         3.0456    1.6583   27.6688 O.3       1 RES1    0.0000
      2 N1         3.3981    1.5345   26.2235 N.3       1 RES1    0.0000
      3 C1         4.6370    0.6842   26.1744 C.3       1 RES1    0.0000
      4 C2         4.8564    0.2284   27.6284 C.3       1 RES1    0.0000
      5 C3         3.5219    0.4750   28.2746 C.3       1 RES1    0.0000
      6 C4         2.5705   -0.6460   28.0727 C.1       1 RES1    0.0000
      7 N2         1.8588   -1.5229   27.9313 N.1       1 RES1    0.0000
      8 C5         3.8344    2.8864   25.7907 C.3       1 RES1    0.0000
      9 C6         3.5642    2.9877   24.2993 C.3       1 RES1    0.0000
     10 C7         3.1689    4.0265   26.5206 C.3       1 RES1    0.0000
     11 O2         5.2435    2.9321   26.0648 O.3       1 RES1    0.0000
     12 C8         5.7302    1.6475   25.6984 C.3       1 RES1    0.0000
     13 C9         4.4148   -0.5206   25.2743 C.3       1 RES1    0.0000
     14 O3         4.0983   -0.1055   23.9473 O.3       1 RES1    0.0000
     15 C10        4.5230   -1.1268   23.0415 C.3       1 RES1    0.0000
     16 C11        5.3338   -0.4833   21.9539 C.3       1 RES1    0.0000
     17 C12        3.3344   -1.8642   22.5020 C.3       1 RES1    0.0000
     18 O4         5.3089   -2.0344   23.8031 O.3       1 RES1    0.0000
     19 C13        5.6173   -1.4100   25.0436 C.3       1 RES1    0.0000
@<TRIPOS>BOND
     1    1    2 1
     2    2    3 1
     3    3    4 1
     4    4    5 1
     5    5    1 1
     6    6    5 1
     7    7    6 3
     8    8    2 1
     9    9    8 1
    10   10    8 1
    11   11    8 1
    12   12    3 1
    13   13    3 1
    14   14   13 1
    15   15   14 1
    16   16   15 1
    17   17   15 1
    18   18   15 1
    19   19   13 1
    20   11   12 1
    21   18   19 1
@<TRIPOS>SUBSTRUCTURE
     1 RES1 1

@<TRIPOS>CRYSIN
   5.7869    8.3038   28.8487  90.0000  90.0000  90.0000  19 1

