# MOL2 file generated by ConQuest
# Please check atom types

@<TRIPOS>MOLECULE
XELDUO
   109    90     3
SMALL
NO_CHARGES
****
Generated from CSD

@<TRIPOS>ATOM
      1 O1         3.0024    2.4778    0.6662 O.3       1 RES1    0.0000
      2 O2         3.7390    4.7940   -0.8763 O.3       1 RES1    0.0000
      3 O3         8.7627    1.0839   -1.6365 O.2       1 RES1    0.0000
      4 O4         9.9730   -0.5373   -2.3948 O.2       1 RES1    0.0000
      5 O5         8.9714   -2.5798   -6.5181 O.2       1 RES1    0.0000
      6 O6         7.0143   -2.3479   -7.4184 O.2       1 RES1    0.0000
      7 N1         4.7799    1.3676   -2.1127 N.2       1 RES1    0.0000
      8 N2         5.0269    1.8647   -2.4588 Du        3 SUP3    0.0000
      9 N3         6.1920    1.1535   -2.2827 N.3       1 RES1    0.0000
     10 N4         8.9467    0.1291   -2.3928 N.pl3     1 RES1    0.0000
     11 N5         7.8269   -2.1314   -6.5141 N.pl3     1 RES1    0.0000
     12 C1         3.0543    2.5018   -0.8143 C.3       1 RES1    0.0000
     13 C2         2.4070    2.8210   -0.5682 Du        3 SUP3    0.0000
     14 C3         1.9298    1.4797   -1.1884 C.3       1 RES1    0.0000
     15 C4         1.7240    0.6270    0.0560 C.3       1 RES1    0.0000
     16 C5         2.7747    1.1001    0.9703 C.3       1 RES1    0.0000
     17 C6         2.6621    3.9011   -1.2504 C.3       1 RES1    0.0000
     18 C7         3.4293    3.4480   -1.4905 Du        3 SUP3    0.0000
     19 C8         2.7205    3.9158   -2.8169 C.3       1 RES1    0.0000
     20 C9         3.7671    4.9625   -3.2710 C.3       1 RES1    0.0000
     21 C10        2.9382    5.4411   -3.0330 Du        3 SUP3    0.0000
     22 C11        3.9926    5.6854   -1.9486 C.3       1 RES1    0.0000
     23 C12        4.4867    2.1647   -1.1624 C.2       1 RES1    0.0000
     24 C13        4.7076    2.5938   -1.4685 Du        3 SUP3    0.0000
     25 C14        6.6114    0.3610   -3.2890 C.ar      1 RES1    0.0000
     26 C15        7.9037   -0.1871   -3.3651 C.ar      1 RES1    0.0000
     27 C16        8.2868   -1.0329   -4.3934 C.ar      1 RES1    0.0000
     28 C17        7.3924   -1.3065   -5.3977 C.ar      1 RES1    0.0000
     29 C18        6.1114   -0.7754   -5.3777 C.ar      1 RES1    0.0000
     30 C19        5.7194    0.0379   -4.3514 C.ar      1 RES1    0.0000
     31 O7        10.0444   -0.0812   10.8795 O.3       2 RES2    0.0000
     32 O8         9.1467    2.2675   12.3819 O.3       2 RES2    0.0000
     33 O9         7.9330    3.2401    6.2020 O.2       2 RES2    0.0000
     34 O10        7.8686    4.6912    4.6115 O.2       2 RES2    0.0000
     35 O11       11.4867    7.4651    3.5211 O.2       2 RES2    0.0000
     36 O12       13.3825    7.2509    4.5635 O.2       2 RES2    0.0000
     37 N6        10.4057    3.3406    9.2910 N.2       2 RES2    0.0000
     38 N7        10.5610    2.8195    9.0209 Du        3 SUP3    0.0000
     39 N8         9.7912    3.4720    8.0586 N.3       2 RES2    0.0000
     40 N9         8.4372    4.1732    5.5598 N.pl3     2 RES2    0.0000
     41 N10       12.1913    6.9873    4.4054 N.pl3     2 RES2    0.0000
     42 C20       10.8974    0.8357   11.4857 C.3       2 RES2    0.0000
     43 C21       10.7333    1.2663   10.8955 Du        3 SUP3    0.0000
     44 C22       12.2157    0.8234   10.6974 C.3       2 RES2    0.0000
     45 C23       12.1547   -0.5226    9.9852 C.3       2 RES2    0.0000
     46 C24       10.7207   -0.7414    9.8031 C.3       2 RES2    0.0000
     47 C25       10.3193    2.2474   11.4576 C.3       2 RES2    0.0000
     48 C26       10.5008    1.9753   12.2399 Du        3 SUP3    0.0000
     49 C27       11.2566    3.2919   12.1399 C.3       2 RES2    0.0000
     50 C28       10.3137    4.2714   12.7661 C.3       2 RES2    0.0000
     51 C29        9.0641    3.5617   12.9921 C.3       2 RES2    0.0000
     52 C30        9.7743    2.5791   10.1012 C.2       2 RES2    0.0000
     53 C31        9.9770    2.0309    9.8151 Du        3 SUP3    0.0000
     54 C32       10.3702    4.2845    7.1403 C.ar      2 RES2    0.0000
     55 C33        9.7398    4.6680    5.9379 C.ar      2 RES2    0.0000
     56 C34       10.3335    5.5632    5.0576 C.ar      2 RES2    0.0000
     57 C35       11.5769    6.0518    5.3477 C.ar      2 RES2    0.0000
     58 C36       12.2541    5.6691    6.4921 C.ar      2 RES2    0.0000
     59 C37       11.6639    4.8087    7.3703 C.ar      2 RES2    0.0000
     60 H1         6.6954    1.2346   -1.4685 H         1 RES1    0.0000
     61 H2         1.6341    3.4395   -0.4261 Du        3 SUP3    0.0000
     62 H3         1.0940    1.9529   -1.4285 H         1 RES1    0.0000
     63 H4         2.2084    0.9184   -1.9526 H         1 RES1    0.0000
     64 H5         1.0858    1.5941   -1.6925 Du        3 SUP3    0.0000
     65 H6         2.6169    1.0908   -1.7846 Du        3 SUP3    0.0000
     66 H7         0.8244    0.7723    0.4421 H         1 RES1    0.0000
     67 H8         1.8361   -0.3348   -0.1480 H         1 RES1    0.0000
     68 H9         2.4833    0.9996    1.9106 H         1 RES1    0.0000
     69 H10        3.6053    0.5767    0.8403 H         1 RES1    0.0000
     70 H11        1.7745    4.1879   -0.8903 H         1 RES1    0.0000
     71 H12        2.9728    3.0197   -3.1530 H         1 RES1    0.0000
     72 H13        1.8311    4.1469   -3.1870 H         1 RES1    0.0000
     73 H14        3.0911    3.4156   -3.5871 Du        3 SUP3    0.0000
     74 H15        1.7518    3.7225   -2.7629 Du        3 SUP3    0.0000
     75 H16        4.5957    4.5350   -3.6031 H         1 RES1    0.0000
     76 H17        3.4050    5.5686   -3.9653 H         1 RES1    0.0000
     77 H18        3.2840    5.6421   -3.9373 Du        3 SUP3    0.0000
     78 H19        2.1116    5.9598   -2.8689 Du        3 SUP3    0.0000
     79 H20        4.9259    6.0124   -1.9006 H         1 RES1    0.0000
     80 H21        3.3876    6.4662   -1.8866 H         1 RES1    0.0000
     81 H22        4.8989    5.5277   -2.3147 Du        3 SUP3    0.0000
     82 H23        3.9422    6.6216   -1.6305 Du        3 SUP3    0.0000
     83 H24        5.1608    2.6046   -0.5782 H         1 RES1    0.0000
     84 H25        9.1553   -1.4179   -4.4034 H         1 RES1    0.0000
     85 H26        5.5032   -0.9780   -6.0779 H         1 RES1    0.0000
     86 H27        4.8382    0.3927   -4.3454 H         1 RES1    0.0000
     87 H28        8.9012    3.1914    8.0226 H         2 RES2    0.0000
     88 H29       11.0693    0.5605   12.4320 H         2 RES2    0.0000
     89 H30       12.2546    1.5717   10.0492 H         2 RES2    0.0000
     90 H31       12.9977    0.8751   11.3016 H         2 RES2    0.0000
     91 H32       12.7067    1.4859   10.1492 Du        3 SUP3    0.0000
     92 H33       12.6718    0.7337   11.5717 Du        3 SUP3    0.0000
     93 H34       12.6228   -0.4855    9.1129 H         2 RES2    0.0000
     94 H35       12.5575   -1.2377   10.5374 H         2 RES2    0.0000
     95 H36       10.4259   -0.3695    8.9348 H         2 RES2    0.0000
     96 H37       10.5189   -1.7101    9.8151 H         2 RES2    0.0000
     97 H38       10.8348    1.4225   13.0021 Du        3 SUP3    0.0000
     98 H39       11.8271    2.8620   12.8261 H         2 RES2    0.0000
     99 H40       11.8370    3.7372   11.4717 H         2 RES2    0.0000
    100 H41       12.1120    3.2517   12.6380 Du        3 SUP3    0.0000
    101 H42       11.4408    3.5277   11.1976 Du        3 SUP3    0.0000
    102 H43       10.6808    4.6038   13.6243 H         2 RES2    0.0000
    103 H44       10.1680    5.0445   12.1659 H         2 RES2    0.0000
    104 H45        8.9006    3.4658   13.9624 H         2 RES2    0.0000
    105 H46        8.3115    4.0719   12.5980 H         2 RES2    0.0000
    106 H47        8.9130    1.9915    9.8591 H         2 RES2    0.0000
    107 H48        9.8829    5.8315    4.2654 H         2 RES2    0.0000
    108 H49       13.1263    6.0039    6.6641 H         2 RES2    0.0000
    109 H50       12.1342    4.5551    8.1566 H         2 RES2    0.0000
@<TRIPOS>BOND
     1    1   12 1
     2    2   17 1
     3    3   10 2
     4    4   10 2
     5    5   11 2
     6    6   11 2
     7    7    9 1
     8    9   25 1
     9   10   26 1
    10   11   28 1
    11   12   14 1
    12   14   15 1
    13   15   16 1
    14   16    1 1
    15   17   12 1
    16   19   17 1
    17   20   19 1
    18   22    2 1
    19   23    7 2
    20   25   26 ar
    21   26   27 ar
    22   27   28 ar
    23   28   29 ar
    24   29   30 ar
    25   30   25 ar
    26   31   42 1
    27   32   47 1
    28   33   40 2
    29   34   40 2
    30   35   41 2
    31   36   41 2
    32   37   39 1
    33   39   54 1
    34   40   55 1
    35   41   57 1
    36   42   44 1
    37   44   45 1
    38   45   46 1
    39   46   31 1
    40   47   42 1
    41   49   47 1
    42   50   49 1
    43   51   32 1
    44   52   37 2
    45   54   55 ar
    46   55   56 ar
    47   56   57 ar
    48   57   58 ar
    49   58   59 ar
    50   59   54 ar
    51   60    9 1
    52   62   14 1
    53   63   14 1
    54   66   15 1
    55   67   15 1
    56   68   16 1
    57   69   16 1
    58   70   17 1
    59   71   19 1
    60   72   19 1
    61   75   20 1
    62   76   20 1
    63   79   22 1
    64   80   22 1
    65   83   23 1
    66   84   27 1
    67   85   29 1
    68   86   30 1
    69   87   39 1
    70   88   42 1
    71   89   44 1
    72   90   44 1
    73   93   45 1
    74   94   45 1
    75   95   46 1
    76   96   46 1
    77   98   49 1
    78   99   49 1
    79  102   50 1
    80  103   50 1
    81  104   51 1
    82  105   51 1
    83  106   52 1
    84  107   56 1
    85  108   58 1
    86  109   59 1
    87   12   23 1
    88   20   22 1
    89   47   52 1
    90   50   51 1
@<TRIPOS>SUBSTRUCTURE
     1 RES1 1
     2 RES2 31
     3 SUP3 8

@<TRIPOS>CRYSIN
  10.3420    7.7310   20.3440  90.0000 100.4530  90.0000   4 1

