# MOL2 file generated by ConQuest
# Please check atom types

@<TRIPOS>MOLECULE
XELYUK
    60    61     1
SMALL
USER_CHARGES
****
Generated from CSD

@<TRIPOS>ATOM
      1 O1         2.2015    3.8239   10.7496 O.2       1 RES1   -1.0000
      2 N1         1.8591    4.6375   11.6728 N.pl3     1 RES1    1.0000
      3 C1         2.6208    5.9128   11.9362 C.3       1 RES1    0.0000
      4 O2        -0.2410    5.8391   14.0876 O.2       1 RES1    0.0000
      5 N2         0.6979    5.6233   13.2447 N.pl3     1 RES1    0.0000
      6 C2         4.1094    5.6227   11.9345 C.3       1 RES1    0.0000
      7 H1         4.3235    5.3626   10.9807 H         1 RES1    0.0000
      8 H2         4.1580    5.0034   12.8125 H         1 RES1    0.0000
      9 H3         4.6028    6.4029   12.1617 H         1 RES1    0.0000
     10 O3         0.1124    2.7905   13.6523 O.3       1 RES1    0.0000
     11 C3         2.2569    6.8388   10.7689 C.3       1 RES1    0.0000
     12 H4         2.4928    6.4153    9.8995 H         1 RES1    0.0000
     13 H5         2.8134    7.6166   10.8395 H         1 RES1    0.0000
     14 H6         1.0861    7.0345   10.8774 H         1 RES1    0.0000
     15 O4        -0.2704    1.9868   15.6656 O.2       1 RES1    0.0000
     16 C4         2.0066    6.3517   13.2836 C.3       1 RES1    0.0000
     17 C5         1.7708    7.8271   13.4685 C.3       1 RES1    0.0000
     18 H7         1.0757    8.0624   12.4406 H         1 RES1    0.0000
     19 H8         2.5859    8.2643   13.4564 H         1 RES1    0.0000
     20 H9         1.4481    7.8990   14.3861 H         1 RES1    0.0000
     21 C6         2.7586    5.7787   14.5108 C.3       1 RES1    0.0000
     22 H10        2.1825    5.9199   15.4157 H         1 RES1    0.0000
     23 H11        3.7133    6.2456   14.5893 H         1 RES1    0.0000
     24 H12        2.9892    4.7186   14.2863 H         1 RES1    0.0000
     25 C7         0.7272    4.5927   12.3825 C.2       1 RES1    0.0000
     26 C8        -0.2516    3.4963   12.4854 C.2       1 RES1    0.0000
     27 C9        -0.7354    2.5760   14.7384 C.2       1 RES1    0.0000
     28 C10       -2.1409    3.0657   14.5125 C.3       1 RES1    0.0000
     29 H13       -2.0180    3.9668   14.0797 H         1 RES1    0.0000
     30 C11       -2.9996    3.2627   15.7755 C.3       1 RES1    0.0000
     31 C12       -3.3492    1.9531   16.4727 C.3       1 RES1    0.0000
     32 H14       -3.8891    1.3623   15.9390 H         1 RES1    0.0000
     33 H15       -3.8581    2.1376   17.3164 H         1 RES1    0.0000
     34 H16       -2.5031    1.4428   16.7344 H         1 RES1    0.0000
     35 C13       -2.2580    4.1712   16.7613 C.3       1 RES1    0.0000
     36 H17       -2.8651    4.4399   17.5023 H         1 RES1    0.0000
     37 H18       -1.9446    4.9539   16.3763 H         1 RES1    0.0000
     38 H19       -1.4377    3.7786   17.1063 H         1 RES1    0.0000
     39 C14       -4.2791    3.9817   15.3430 C.3       1 RES1    0.0000
     40 H20       -4.6856    3.4442   14.6340 H         1 RES1    0.0000
     41 H21       -3.9615    4.8412   14.8647 H         1 RES1    0.0000
     42 H22       -4.9338    4.1761   16.1009 H         1 RES1    0.0000
     43 C15       -2.6489    2.1174   13.4671 C.2       1 RES1    0.0000
     44 H23       -3.2758    1.4924   13.7422 H         1 RES1    0.0000
     45 C16       -2.2156    2.1359   12.2230 C.2       1 RES1    0.0000
     46 H24       -2.5652    1.4936   11.5660 H         1 RES1    0.0000
     47 C17       -1.2774    3.1484   11.7083 C.2       1 RES1    0.0000
     48 C18       -1.6074    3.7191   10.3220 C.3       1 RES1    0.0000
     49 C19       -1.2267    2.6417    9.2948 C.3       1 RES1    0.0000
     50 H25       -1.4584    2.9476    8.4567 H         1 RES1    0.0000
     51 H26       -1.7273    1.8453    9.4760 H         1 RES1    0.0000
     52 H27       -0.1862    2.4398    9.3417 H         1 RES1    0.0000
     53 C20       -3.1030    4.0498   10.2562 C.3       1 RES1    0.0000
     54 H28       -3.2685    4.7929   11.0186 H         1 RES1    0.0000
     55 H29       -3.5478    3.1333   10.4057 H         1 RES1    0.0000
     56 H30       -3.2271    4.4709    9.4381 H         1 RES1    0.0000
     57 C21       -0.8461    4.9861    9.9742 C.3       1 RES1    0.0000
     58 H31       -0.9619    5.6722   10.6708 H         1 RES1    0.0000
     59 H32       -1.1585    5.3279    9.1144 H         1 RES1    0.0000
     60 H33        0.1448    4.7805    9.8823 H         1 RES1    0.0000
@<TRIPOS>BOND
     1    1    2 1
     2    2    3 1
     3    3    6 1
     4    4    5 1
     5    5   16 1
     6    6    7 1
     7    8    6 1
     8    9    6 1
     9   10   26 1
    10   11    3 1
    11   12   11 1
    12   13   11 1
    13   14   11 1
    14   15   27 2
    15   16    3 1
    16   17   16 1
    17   18   17 1
    18   19   17 1
    19   20   17 1
    20   21   16 1
    21   22   21 1
    22   23   21 1
    23   24   21 1
    24   25    2 2
    25   26   25 1
    26   27   10 1
    27   28   27 1
    28   29   28 1
    29   30   28 1
    30   31   30 1
    31   32   31 1
    32   33   31 1
    33   34   31 1
    34   35   30 1
    35   36   35 1
    36   37   35 1
    37   38   35 1
    38   39   30 1
    39   40   39 1
    40   41   39 1
    41   42   39 1
    42   43   28 1
    43   44   43 1
    44   45   43 2
    45   46   45 1
    46   47   26 2
    47   48   47 1
    48   49   48 1
    49   50   49 1
    50   51   49 1
    51   52   49 1
    52   53   48 1
    53   54   53 1
    54   55   53 1
    55   56   53 1
    56   57   48 1
    57   58   57 1
    58   59   57 1
    59   60   57 1
    60    5   25 1
    61   45   47 1
@<TRIPOS>SUBSTRUCTURE
     1 RES1 1

@<TRIPOS>CRYSIN
  10.3434   12.3847   34.4330  90.0000  90.0000  90.0000  61 1

