# MOL2 file generated by ConQuest
# Please check atom types

@<TRIPOS>MOLECULE
XELYOE
    82    84     1
SMALL
USER_CHARGES
****
Generated from CSD

@<TRIPOS>ATOM
      1 N1         2.2039   -1.3331    3.7195 N.pl3     1 RES1    0.0000
      2 O1         1.6027   -1.5752    4.8232 O.2       1 RES1    0.0000
      3 C1         1.6494   -1.7544    2.3843 C.3       1 RES1    0.0000
      4 N2         3.6561   -0.5079    2.3033 N.pl3     1 RES1    1.0000
      5 O2         4.6444    0.1625    1.8452 O.2       1 RES1   -1.0000
      6 C2         1.1667   -3.1944    2.4468 C.3       1 RES1    0.0000
      7 H1         0.3962   -3.2532    3.0338 H         1 RES1    0.0000
      8 H2         1.8777   -3.7593    2.7889 H         1 RES1    0.0000
      9 H3         0.9181   -3.4910    1.5575 H         1 RES1    0.0000
     10 O3         4.9694    2.7924    5.6791 O.3       1 RES1    0.0000
     11 N3         6.2138    3.0156    5.0168 N.3       1 RES1    0.0000
     12 C3         0.4646   -0.8263    2.1197 C.3       1 RES1    0.0000
     13 H4        -0.2625   -1.0499    2.7210 H         1 RES1    0.0000
     14 H5         0.1692   -0.9334    1.2021 H         1 RES1    0.0000
     15 H6         0.7346    0.0930    2.2670 H         1 RES1    0.0000
     16 O4         1.4817    2.9618    5.3726 O.2       1 RES1    0.0000
     17 N4         6.9743    3.8216    3.0582 N.2       1 RES1    0.0000
     18 C4         2.8772   -1.4948    1.4662 C.3       1 RES1    0.0000
     19 O5         2.8273    1.4242    4.6176 O.3       1 RES1    0.0000
     20 C5         2.5628   -0.8686    0.1121 C.3       1 RES1    0.0000
     21 H7         1.9892   -0.0965    0.2383 H         1 RES1    0.0000
     22 H8         2.1114   -1.5183   -0.4473 H         1 RES1    0.0000
     23 H9         3.3876   -0.5920   -0.3155 H         1 RES1    0.0000
     24 C6         3.7914   -2.7083    1.2873 C.3       1 RES1    0.0000
     25 H10        3.9749   -3.1049    2.1539 H         1 RES1    0.0000
     26 H11        4.6244   -2.4282    0.8773 H         1 RES1    0.0000
     27 H12        3.3553   -3.3615    0.7189 H         1 RES1    0.0000
     28 C7         3.2761   -0.5391    3.5885 C.2       1 RES1    0.0000
     29 C8         3.7504    0.3635    4.6374 C.2       1 RES1    0.0000
     30 C9         4.8458    0.3450    5.3922 C.2       1 RES1    0.0000
     31 C10        5.8892   -0.7736    5.4634 C.3       1 RES1    0.0000
     32 C11        5.5343   -1.9997    4.6353 C.3       1 RES1    0.0000
     33 H13        5.4407   -1.7455    3.7048 H         1 RES1    0.0000
     34 H14        4.6972   -2.3740    4.9548 H         1 RES1    0.0000
     35 H15        6.2378   -2.6624    4.7205 H         1 RES1    0.0000
     36 C12        6.0364   -1.2052    6.9316 C.3       1 RES1    0.0000
     37 H16        5.1906   -1.5548    7.2524 H         1 RES1    0.0000
     38 H17        6.2949   -0.4414    7.4694 H         1 RES1    0.0000
     39 H18        6.7159   -1.8938    6.9995 H         1 RES1    0.0000
     40 C13        7.2401   -0.2154    4.9761 C.3       1 RES1    0.0000
     41 H19        7.1644    0.0483    4.0455 H         1 RES1    0.0000
     42 H20        7.9242   -0.8981    5.0639 H         1 RES1    0.0000
     43 H21        7.4826    0.5567    5.5112 H         1 RES1    0.0000
     44 C14        5.0241    1.5144    6.3544 C.3       1 RES1    0.0000
     45 H22        5.8646    1.4607    6.7985 H         1 RES1    0.0000
     46 C15        6.8556    4.3043    5.4003 C.3       1 RES1    0.0000
     47 C16        7.5930    4.1195    6.7273 C.3       1 RES1    0.0000
     48 H23        6.9475    4.0418    7.4481 H         1 RES1    0.0000
     49 H24        8.1657    4.8857    6.8877 H         1 RES1    0.0000
     50 H25        8.1336    3.3144    6.6880 H         1 RES1    0.0000
     51 C17        5.8104    5.4083    5.5019 C.3       1 RES1    0.0000
     52 H26        5.3571    5.5048    4.6486 H         1 RES1    0.0000
     53 H27        6.2451    6.2440    5.7335 H         1 RES1    0.0000
     54 H28        5.1624    5.1788    6.1875 H         1 RES1    0.0000
     55 C18        7.7602    4.4538    4.1503 C.3       1 RES1    0.0000
     56 C19        9.0598    3.6369    4.2559 C.3       1 RES1    0.0000
     57 H29        9.5910    3.7688    3.4545 H         1 RES1    0.0000
     58 H30        8.8440    2.6965    4.3491 H         1 RES1    0.0000
     59 H31        9.5651    3.9312    5.0293 H         1 RES1    0.0000
     60 C20        8.0827    5.8968    3.7708 C.3       1 RES1    0.0000
     61 H32        7.2609    6.4076    3.7154 H         1 RES1    0.0000
     62 H33        8.5321    5.9121    2.9114 H         1 RES1    0.0000
     63 H34        8.6611    6.2864    4.4449 H         1 RES1    0.0000
     64 C21        6.1346    3.0661    3.6299 C.2       1 RES1    0.0000
     65 H35        5.4541    2.4258    3.1616 H         1 RES1    0.0000
     66 C22        3.9130    1.4776    7.3564 C.2       1 RES1    0.0000
     67 H36        4.1605    1.2205    8.2508 H         1 RES1    0.0000
     68 C23        2.6382    1.7207    7.0625 C.2       1 RES1    0.0000
     69 C24        1.4896    1.6615    8.0714 C.3       1 RES1    0.0000
     70 C25        0.3767    0.7868    7.4896 C.3       1 RES1    0.0000
     71 H37        0.0694    1.1688    6.6520 H         1 RES1    0.0000
     72 H38       -0.3635    0.7450    8.1164 H         1 RES1    0.0000
     73 H39        0.7186   -0.1071    7.3310 H         1 RES1    0.0000
     74 C26        2.2725    2.1190    5.6809 C.2       1 RES1    0.0000
     75 C27        0.9532    3.0682    8.3536 C.3       1 RES1    0.0000
     76 H40        0.6464    3.4698    7.5253 H         1 RES1    0.0000
     77 H41        1.6592    3.6134    8.7354 H         1 RES1    0.0000
     78 H42        0.2129    3.0131    8.9790 H         1 RES1    0.0000
     79 C28        1.9652    1.0469    9.3930 C.3       1 RES1    0.0000
     80 H43        2.3035    0.1530    9.2306 H         1 RES1    0.0000
     81 H44        1.2216    1.0028   10.0147 H         1 RES1    0.0000
     82 H45        2.6701    1.5960    9.7697 H         1 RES1    0.0000
@<TRIPOS>BOND
     1    1    2 1
     2    3    1 1
     3    4    5 1
     4    6    3 1
     5    7    6 1
     6    8    6 1
     7    9    6 1
     8   10   11 1
     9   11   46 1
    10   12    3 1
    11   13   12 1
    12   14   12 1
    13   15   12 1
    14   16   74 2
    15   17   55 1
    16   18    3 1
    17   19   29 1
    18   20   18 1
    19   21   20 1
    20   22   20 1
    21   23   20 1
    22   24   18 1
    23   25   24 1
    24   26   24 1
    25   27   24 1
    26   28    1 1
    27   29   28 1
    28   30   29 2
    29   31   30 1
    30   32   31 1
    31   33   32 1
    32   34   32 1
    33   35   32 1
    34   36   31 1
    35   37   36 1
    36   38   36 1
    37   39   36 1
    38   40   31 1
    39   41   40 1
    40   42   40 1
    41   43   40 1
    42   44   10 1
    43   45   44 1
    44   46   47 1
    45   47   48 1
    46   49   47 1
    47   50   47 1
    48   51   46 1
    49   52   51 1
    50   53   51 1
    51   54   51 1
    52   55   46 1
    53   56   55 1
    54   57   56 1
    55   58   56 1
    56   59   56 1
    57   60   55 1
    58   61   60 1
    59   62   60 1
    60   63   60 1
    61   64   11 1
    62   65   64 1
    63   66   44 1
    64   67   66 1
    65   68   66 2
    66   69   68 1
    67   70   69 1
    68   71   70 1
    69   72   70 1
    70   73   70 1
    71   74   19 1
    72   75   69 1
    73   76   75 1
    74   77   75 1
    75   78   75 1
    76   79   69 1
    77   80   79 1
    78   81   79 1
    79   82   79 1
    80    4   18 1
    81    4   28 2
    82   17   64 2
    83   30   44 1
    84   68   74 1
@<TRIPOS>SUBSTRUCTURE
     1 RES1 1

@<TRIPOS>CRYSIN
  19.4610   11.7700   13.4100  90.0000  96.9280  90.0000  14 1

