# MOL2 file generated by ConQuest
# Please check atom types

@<TRIPOS>MOLECULE
XELZEV
    22    24     1
SMALL
NO_CHARGES
****
Generated from CSD

@<TRIPOS>ATOM
      1 N1         3.9307    1.7790   -0.8116 N.2       1 RES1    0.0000
      2 O1         4.3142    2.3890   -1.9890 O.3       1 RES1    0.0000
      3 N2         5.6913    2.4476   -2.1304 N.2       1 RES1    0.0000
      4 C1         6.1626    1.8674   -1.0413 C.2       1 RES1    0.0000
      5 C2         5.0658    1.4561   -0.2198 C.2       1 RES1    0.0000
      6 C3         7.5160    1.6544   -0.6444 C.2       1 RES1    0.0000
      7 H1         8.2180    1.8527   -1.1361 H         1 RES1    0.0000
      8 C4         7.7158    1.0591    0.5748 C.2       1 RES1    0.0000
      9 C5         6.5935    0.6485    1.4023 C.2       1 RES1    0.0000
     10 H2         6.7772    0.2344    2.2278 H         1 RES1    0.0000
     11 C6         5.2935    0.8188    1.0345 C.2       1 RES1    0.0000
     12 H3         4.6099    0.5543    1.5776 H         1 RES1    0.0000
     13 C7         9.0825    0.8050    1.0791 C.ar      1 RES1    0.0000
     14 C8         9.3944    0.9900    2.4326 C.ar      1 RES1    0.0000
     15 H4         8.7280    1.2872    2.9825 H         1 RES1    0.0000
     16 N3        10.6104    0.7720    2.9564 N.ar      1 RES1    0.0000
     17 C9        11.5684    0.3371    2.1267 C.ar      1 RES1    0.0000
     18 H5        12.4232    0.1488    2.5566 H         1 RES1    0.0000
     19 C10       11.3636    0.1287    0.7641 C.ar      1 RES1    0.0000
     20 H6        12.0002   -0.1897    0.2399 H         1 RES1    0.0000
     21 C11       10.1059    0.3702    0.2315 C.ar      1 RES1    0.0000
     22 H7         9.9584    0.2530   -0.6418 H         1 RES1    0.0000
@<TRIPOS>BOND
     1    1    2 1
     2    2    3 1
     3    3    4 2
     4    4    5 1
     5    5    1 2
     6    6    4 1
     7    7    6 1
     8    8    6 2
     9    9    8 1
    10   10    9 1
    11   11    5 1
    12   12   11 1
    13   13    8 1
    14   14   13 ar
    15   15   14 1
    16   16   14 ar
    17   17   16 ar
    18   18   17 1
    19   19   17 ar
    20   20   19 1
    21   21   13 ar
    22   22   21 1
    23    9   11 2
    24   19   21 ar
@<TRIPOS>SUBSTRUCTURE
     1 RES1 1

@<TRIPOS>CRYSIN
  20.2365    3.7203   11.9970  90.0000  90.0000  90.0000  29 1

