# MOL2 file generated by ConQuest
# Please check atom types

@<TRIPOS>MOLECULE
XELZAR
    58    59     1
SMALL
USER_CHARGES
****
Generated from CSD

@<TRIPOS>ATOM
      1 O1        -0.0206    2.5280    7.6343 O.2       1 RES1    0.0000
      2 C1         1.0856    2.5280    7.1312 C.2       1 RES1    0.0000
      3 C2         1.3299    2.5280    5.6529 C.2       1 RES1    0.0000
      4 C3         0.1037    2.5280    4.7474 C.3       1 RES1    0.0000
      5 C4        -0.7285    1.2620    5.0338 C.3       1 RES1    0.0000
      6 H1        -1.0952    1.2235    5.9911 H         1 RES1    0.0000
      7 H2        -1.5324    1.2842    4.4167 H         1 RES1    0.0000
      8 H3        -0.2055    0.4550    4.8806 H         1 RES1    0.0000
      9 C5         0.4533    2.5280    3.2639 C.3       1 RES1    0.0000
     10 H4        -0.3819    2.5280    2.7684 H         1 RES1    0.0000
     11 H5         1.0165    1.6685    2.9902 H         1 RES1    0.0000
     12 C6         2.6297    2.5280    5.3053 C.2       1 RES1    0.0000
     13 C7         3.1651    2.5280    3.9243 C.2       1 RES1    0.0000
     14 N1         3.5530    1.4415    3.2650 N.pl3     1 RES1    1.0000
     15 O2         3.2961    0.2417    3.6195 O.2       1 RES1   -1.0000
     16 C8         4.2979    1.7442    2.0004 C.3       1 RES1    0.0000
     17 C9         5.6672    1.1062    2.1217 C.3       1 RES1    0.0000
     18 H6         6.2035    1.3044    1.3525 H         1 RES1    0.0000
     19 H7         6.1428    1.4561    3.0219 H         1 RES1    0.0000
     20 H8         5.5504    0.1315    2.2147 H         1 RES1    0.0000
     21 C10        3.5345    1.1204    0.8516 C.3       1 RES1    0.0000
     22 H9         3.9911    1.3843   -0.0412 H         1 RES1    0.0000
     23 H10        2.6136    1.4359    0.8400 H         1 RES1    0.0000
     24 H11        3.6207    0.1820    0.9457 H         1 RES1    0.0000
     25 C11        3.7342    2.5280    6.2764 C.2       1 RES1    0.0000
     26 H12        4.5832    2.5280    5.8431 H         1 RES1    0.0000
     27 C12        3.6491    2.5280    7.6056 C.2       1 RES1    0.0000
     28 C13        4.8400    2.5280    8.5523 C.3       1 RES1    0.0000
     29 C14        6.1607    2.5280    7.7736 C.3       1 RES1    0.0000
     30 H13        6.9015    2.5280    8.5270 H         1 RES1    0.0000
     31 H14        6.2526    1.6685    7.1639 H         1 RES1    0.0000
     32 C15        4.8046    1.2741    9.4293 C.3       1 RES1    0.0000
     33 H15        5.6100    1.3044   10.0084 H         1 RES1    0.0000
     34 H16        4.0024    1.3247   10.0379 H         1 RES1    0.0000
     35 H17        4.7980    0.4449    8.8545 H         1 RES1    0.0000
     36 C16        2.2790    2.5280    8.1276 C.2       1 RES1    0.0000
     37 O3         1.9962    2.5280    9.3204 O.2       1 RES1    0.0000
     38 C4C       -0.7285    3.7940    5.0338 C.3       1 RES1    0.0000
     39 H1C       -1.0952    3.8324    5.9911 H         1 RES1    0.0000
     40 H2C       -1.5324    3.7717    4.4167 H         1 RES1    0.0000
     41 H3C       -0.2055    4.6009    4.8806 H         1 RES1    0.0000
     42 H5C        1.0165    3.3875    2.9902 H         1 RES1    0.0000
     43 N1C        3.5530    3.6145    3.2650 N.3       1 RES1    1.0000
     44 O2C        3.2961    4.8143    3.6195 O.2       1 RES1   -1.0000
     45 C8C        4.2979    3.3117    2.0004 C.3       1 RES1    0.0000
     46 C9C        5.6672    3.9497    2.1217 C.3       1 RES1    0.0000
     47 H6C        6.2035    3.7515    1.3525 H         1 RES1    0.0000
     48 H7C        6.1428    3.5998    3.0219 H         1 RES1    0.0000
     49 H8C        5.5504    4.9245    2.2147 H         1 RES1    0.0000
     50 C10C       3.5345    3.9356    0.8516 C.3       1 RES1    0.0000
     51 H9C        3.9911    3.6716   -0.0412 H         1 RES1    0.0000
     52 H10C       2.6136    3.6201    0.8400 H         1 RES1    0.0000
     53 H11C       3.6207    4.8739    0.9457 H         1 RES1    0.0000
     54 H14C       6.2526    3.3875    7.1639 H         1 RES1    0.0000
     55 C15C       4.8046    3.7819    9.4293 C.3       1 RES1    0.0000
     56 H15C       5.6100    3.7515   10.0084 H         1 RES1    0.0000
     57 H16C       4.0024    3.7313   10.0379 H         1 RES1    0.0000
     58 H17C       4.7980    4.6110    8.8545 H         1 RES1    0.0000
@<TRIPOS>BOND
     1    1    2 2
     2    2    3 1
     3    3    4 1
     4    4    5 1
     5    5    6 1
     6    7    5 1
     7    8    5 1
     8    9    4 1
     9   10    9 1
    10   11    9 1
    11   12    3 2
    12   13   12 1
    13   14   13 2
    14   15   14 1
    15   16   14 1
    16   17   16 1
    17   18   17 1
    18   19   17 1
    19   20   17 1
    20   21   16 1
    21   22   21 1
    22   23   21 1
    23   24   21 1
    24   25   12 1
    25   26   25 1
    26   27   25 2
    27   28   27 1
    28   29   28 1
    29   30   29 1
    30   31   29 1
    31   32   28 1
    32   33   32 1
    33   34   32 1
    34   35   32 1
    35   36    2 1
    36   37   36 2
    37   38    4 1
    38   39   38 1
    39   40   38 1
    40   41   38 1
    41   42    9 1
    42   43   13 1
    43   44   43 1
    44   45   16 1
    45   46   45 1
    46   47   46 1
    47   48   46 1
    48   49   46 1
    49   50   45 1
    50   51   50 1
    51   52   50 1
    52   53   50 1
    53   54   29 1
    54   55   28 1
    55   56   55 1
    56   57   55 1
    57   58   55 1
    58   27   36 1
    59   43   45 1
@<TRIPOS>SUBSTRUCTURE
     1 RES1 1

@<TRIPOS>CRYSIN
   9.5529   10.1119   11.4360  90.0000 112.4900  90.0000  11 1

