# MOL2 file generated by ConQuest
# Please check atom types

@<TRIPOS>MOLECULE
XENCAV
    24    24     1
SMALL
NO_CHARGES
****
Generated from CSD

@<TRIPOS>ATOM
      1 O1         5.0830    7.7967    4.4213 O.2       1 RES1    0.0000
      2 O2         3.7030    6.3194    5.2100 O.2       1 RES1    0.0000
      3 O3         0.1247    7.6598    7.9707 O.2       1 RES1    0.0000
      4 O4        -0.3096    9.7330    8.4037 O.2       1 RES1    0.0000
      5 N1         0.3598    8.8537    7.8408 N.pl3     1 RES1    0.0000
      6 N2         4.0729    7.4756    5.0461 N.pl3     1 RES1    0.0000
      7 N3         1.0383   11.6614    7.2475 N.3       1 RES1    0.0000
      8 N4         1.4340   12.9652    6.9691 N.2       1 RES1    0.0000
      9 C1         1.7587   10.6274    6.7532 C.ar      1 RES1    0.0000
     10 C2         1.4712    9.2672    6.9918 C.ar      1 RES1    0.0000
     11 C3         2.2147    8.2441    6.4261 C.ar      1 RES1    0.0000
     12 H1         1.9957    7.3549    6.5856 H         1 RES1    0.0000
     13 C4         3.2789    8.5693    5.6273 C.ar      1 RES1    0.0000
     14 C5         3.6206    9.8816    5.3781 C.ar      1 RES1    0.0000
     15 H2         4.3538   10.0762    4.8392 H         1 RES1    0.0000
     16 C6         2.8867   10.8948    5.9187 C.ar      1 RES1    0.0000
     17 H3         3.1248   11.7755    5.7415 H         1 RES1    0.0000
     18 C7         0.6389   13.8651    7.3474 C.2       1 RES1    0.0000
     19 H4        -0.1573   13.6215    7.7610 H         1 RES1    0.0000
     20 C8         0.9390   15.3038    7.1507 C.3       1 RES1    0.0000
     21 H5         1.7798   15.3958    6.6966 H         1 RES1    0.0000
     22 H6         0.9861   15.7405    8.0042 H         1 RES1    0.0000
     23 H7         0.2448   15.7057    6.6244 H         1 RES1    0.0000
     24 H8         0.3261   11.4286    7.7416 H         1 RES1    0.0000
@<TRIPOS>BOND
     1    1    6 2
     2    2    6 2
     3    3    5 2
     4    4    5 2
     5    5   10 1
     6    6   13 1
     7    7    8 1
     8    8   18 2
     9    9    7 1
    10   10    9 ar
    11   11   10 ar
    12   12   11 1
    13   13   11 ar
    14   14   13 ar
    15   15   14 1
    16   16    9 ar
    17   17   16 1
    18   18   19 1
    19   20   18 1
    20   21   20 1
    21   22   20 1
    22   23   20 1
    23   24    7 1
    24   14   16 ar
@<TRIPOS>SUBSTRUCTURE
     1 RES1 1

@<TRIPOS>CRYSIN
   5.3530   10.8720   17.7250  90.0000  96.1600  90.0000  14 1

