# MOL2 file generated by ConQuest
# Please check atom types

@<TRIPOS>MOLECULE
XENFIF
    28    29     1
SMALL
USER_CHARGES
****
Generated from CSD

@<TRIPOS>ATOM
      1 O1         5.0741    3.5198    2.4383 O.2       1 RES1   -1.0000
      2 N1         4.9549    2.6879    1.4466 N.pl3     1 RES1    1.0000
      3 N2         7.3910    0.0533    1.5880 N.ar      1 RES1    0.0000
      4 C1         5.6831    1.6316    1.2420 C.2       1 RES1    0.0000
      5 H1         5.5110    1.1396    0.4479 H         1 RES1    0.0000
      6 C2         6.7334    1.1307    2.1083 C.ar      1 RES1    0.0000
      7 C3         7.0324    1.6461    3.3720 C.ar      1 RES1    0.0000
      8 H2         6.5746    2.4069    3.7074 H         1 RES1    0.0000
      9 C4         8.0122    1.0185    4.1245 C.ar      1 RES1    0.0000
     10 H3         8.2273    1.3451    4.9903 H         1 RES1    0.0000
     11 C5         8.6741   -0.0766    3.6179 C.ar      1 RES1    0.0000
     12 H4         9.3405   -0.5254    4.1247 H         1 RES1    0.0000
     13 C6         8.3332   -0.5043    2.3394 C.ar      1 RES1    0.0000
     14 H5         8.8065   -1.2451    1.9793 H         1 RES1    0.0000
     15 C7         3.8439    3.0056    0.5088 C.3       1 RES1    0.0000
     16 H6         3.8958    2.4136   -0.2825 H         1 RES1    0.0000
     17 H7         3.9266    3.9430    0.1990 H         1 RES1    0.0000
     18 C8         2.5232    2.8167    1.1963 C.ar      1 RES1    0.0000
     19 C9         1.8535    1.5994    1.0858 C.ar      1 RES1    0.0000
     20 H8         2.2154    0.9108    0.5388 H         1 RES1    0.0000
     21 C10        0.6741    1.3839    1.7621 C.ar      1 RES1    0.0000
     22 H9         0.2284    0.5476    1.6949 H         1 RES1    0.0000
     23 C11        0.1412    2.4036    2.5452 C.ar      1 RES1    0.0000
     24 H10       -0.6741    2.2636    3.0123 H         1 RES1    0.0000
     25 C12        0.7966    3.6287    2.6487 C.ar      1 RES1    0.0000
     26 H11        0.4248    4.3228    3.1798 H         1 RES1    0.0000
     27 C13        1.9815    3.8319    1.9810 C.ar      1 RES1    0.0000
     28 H12        2.4317    4.6661    2.0552 H         1 RES1    0.0000
@<TRIPOS>BOND
     1    1    2 1
     2    2    4 2
     3    3    6 ar
     4    4    5 1
     5    6    4 1
     6    7    6 ar
     7    8    7 1
     8    9    7 ar
     9   10    9 1
    10   11    9 ar
    11   12   11 1
    12   13    3 ar
    13   14   13 1
    14   15    2 1
    15   16   15 1
    16   17   15 1
    17   18   15 1
    18   19   18 ar
    19   20   19 1
    20   21   19 ar
    21   22   21 1
    22   23   21 ar
    23   24   23 1
    24   25   23 ar
    25   26   25 1
    26   27   18 ar
    27   28   27 1
    28   11   13 ar
    29   25   27 ar
@<TRIPOS>SUBSTRUCTURE
     1 RES1 1

@<TRIPOS>CRYSIN
  11.0330   11.1070   17.4140  90.0000  90.0000  90.0000  60 1

