# MOL2 file generated by ConQuest
# Please check atom types

@<TRIPOS>MOLECULE
XENGAZ
    35    36     1
SMALL
NO_CHARGES
****
Generated from CSD

@<TRIPOS>ATOM
      1 O1         3.9185   -0.9684    8.3614 O.2       1 RES1    0.0000
      2 O2         5.3186   -2.3982    9.0711 O.2       1 RES1    0.0000
      3 O3         2.4389    4.2607    2.1026 O.3       1 RES1    0.0000
      4 N1         5.0526   -1.3718    8.4875 N.pl3     1 RES1    0.0000
      5 N2         2.6442    2.6486    4.2110 N.2       1 RES1    0.0000
      6 C1         6.1554   -0.5584    7.9470 C.ar      1 RES1    0.0000
      7 C2         7.3766   -0.6745    8.5855 C.ar      1 RES1    0.0000
      8 H1         7.4890   -1.2890    9.2737 H         1 RES1    0.0000
      9 C3         8.4198    0.1217    8.1946 C.ar      1 RES1    0.0000
     10 H2         9.2436    0.0545    8.6219 H         1 RES1    0.0000
     11 C4         8.2473    1.0209    7.1705 C.ar      1 RES1    0.0000
     12 H3         8.9485    1.5742    6.9140 H         1 RES1    0.0000
     13 C5         7.0334    1.1006    6.5250 C.ar      1 RES1    0.0000
     14 H4         6.9414    1.6984    5.8177 H         1 RES1    0.0000
     15 C6         5.9360    0.3201    6.8897 C.ar      1 RES1    0.0000
     16 C7         4.6880    0.4180    6.1206 C.2       1 RES1    0.0000
     17 H5         4.1590   -0.3448    6.0611 H         1 RES1    0.0000
     18 C8         4.2593    1.5056    5.5079 C.2       1 RES1    0.0000
     19 H6         4.7591    2.2846    5.5984 H         1 RES1    0.0000
     20 C9         3.0628    1.5560    4.7073 C.2       1 RES1    0.0000
     21 H7         2.5870    0.7725    4.5503 H         1 RES1    0.0000
     22 C10        1.4350    2.6395    3.4655 C.ar      1 RES1    0.0000
     23 C11        0.3440    1.8494    3.7867 C.ar      1 RES1    0.0000
     24 H8         0.4054    1.2587    4.5021 H         1 RES1    0.0000
     25 C12       -0.8323    1.9206    3.0678 C.ar      1 RES1    0.0000
     26 H9        -1.5539    1.3788    3.2931 H         1 RES1    0.0000
     27 C13       -0.9269    2.7940    2.0233 C.ar      1 RES1    0.0000
     28 H10       -1.7206    2.8526    1.5409 H         1 RES1    0.0000
     29 C14        0.1446    3.5897    1.6765 C.ar      1 RES1    0.0000
     30 H11        0.0711    4.1728    0.9555 H         1 RES1    0.0000
     31 C15        1.3239    3.5281    2.3890 C.ar      1 RES1    0.0000
     32 C16        2.3779    5.1528    0.9921 C.3       1 RES1    0.0000
     33 H12        3.2179    5.6102    0.9032 H         1 RES1    0.0000
     34 H13        1.6778    5.7940    1.1346 H         1 RES1    0.0000
     35 H14        2.1981    4.6555    0.1911 H         1 RES1    0.0000
@<TRIPOS>BOND
     1    1    4 2
     2    2    4 2
     3    3   31 1
     4    4    6 1
     5    5   20 2
     6    6    7 ar
     7    7    8 1
     8    9    7 ar
     9   10    9 1
    10   11    9 ar
    11   12   11 1
    12   13   11 ar
    13   14   13 1
    14   15    6 ar
    15   16   15 1
    16   17   16 1
    17   18   16 2
    18   19   18 1
    19   20   18 1
    20   21   20 1
    21   22    5 1
    22   23   22 ar
    23   24   23 1
    24   25   23 ar
    25   26   25 1
    26   27   25 ar
    27   28   27 1
    28   29   27 ar
    29   30   29 1
    30   31   22 ar
    31   32    3 1
    32   33   32 1
    33   34   32 1
    34   35   32 1
    35   13   15 ar
    36   29   31 ar
@<TRIPOS>SUBSTRUCTURE
     1 RES1 1

@<TRIPOS>CRYSIN
  14.0515    5.0488   20.1180  90.0000  90.7060  90.0000  14 1

