# MOL2 file generated by ConQuest
# Please check atom types

@<TRIPOS>MOLECULE
XENJOQ
    38    39     1
SMALL
NO_CHARGES
****
Generated from CSD

@<TRIPOS>ATOM
      1 N1         5.3534   11.9639    2.2654 N.pl3     1 RES1    0.0000
      2 H1         5.3775   12.5869    2.8569 H         1 RES1    0.0000
      3 N2         8.4264    5.8782    1.7770 N.pl3     1 RES1    0.0000
      4 C1         4.6442   10.8329    2.5587 C.2       1 RES1    0.0000
      5 C2         4.7688    9.7442    1.7630 C.2       1 RES1    0.0000
      6 C3         5.8409    9.7399    0.6766 C.3       1 RES1    0.0000
      7 H2         5.4977    9.2480   -0.0980 H         1 RES1    0.0000
      8 C4         6.2088   11.1462    0.2321 C.2       1 RES1    0.0000
      9 C5         6.0318   12.1717    1.0867 C.2       1 RES1    0.0000
     10 C6         3.7310   10.9850    3.7310 C.3       1 RES1    0.0000
     11 H3         3.4822   11.9076    3.8244 H         1 RES1    0.0000
     12 H4         4.1814   10.6923    4.5269 H         1 RES1    0.0000
     13 H5         2.9440   10.4536    3.5939 H         1 RES1    0.0000
     14 C7         3.9564    8.5501    1.9509 C.2       1 RES1    0.0000
     15 C8         3.7264    7.6363    0.7937 C.3       1 RES1    0.0000
     16 H6         3.0277    7.0156    1.0103 H         1 RES1    0.0000
     17 H7         4.5343    7.1551    0.6004 H         1 RES1    0.0000
     18 H8         3.4702    8.1514    0.0248 H         1 RES1    0.0000
     19 C9         7.0643    9.0403    1.1798 C.2       1 RES1    0.0000
     20 C10        8.2324    9.4589    1.7055 C.2       1 RES1    0.0000
     21 H9         8.5011   10.3422    1.8204 H         1 RES1    0.0000
     22 C11        8.9682    8.3100    2.0476 C.2       1 RES1    0.0000
     23 H10        9.8135    8.2787    2.4346 H         1 RES1    0.0000
     24 C12        8.2031    7.2746    1.7010 C.2       1 RES1    0.0000
     25 C13        6.8407   11.3098   -1.0881 C.2       1 RES1    0.0000
     26 C14        6.9055   10.1355   -2.0047 C.3       1 RES1    0.0000
     27 H11        7.3747   10.3802   -2.8059 H         1 RES1    0.0000
     28 H12        6.0142    9.8551   -2.2290 H         1 RES1    0.0000
     29 H13        7.3673    9.4157   -1.5706 H         1 RES1    0.0000
     30 C15        6.4788   13.5886    0.8963 C.3       1 RES1    0.0000
     31 H14        6.1243   14.1339    1.6024 H         1 RES1    0.0000
     32 H15        6.1603   13.9136    0.0511 H         1 RES1    0.0000
     33 H16        7.4380   13.6260    0.9123 H         1 RES1    0.0000
     34 O1         3.4384    8.2718    3.0307 O.2       1 RES1    0.0000
     35 O2         7.0186    7.6652    1.1727 O.3       1 RES1    0.0000
     36 O3         7.5584    5.1133    1.4051 O.2       1 RES1    0.0000
     37 O4         9.5144    5.5313    2.2222 O.2       1 RES1    0.0000
     38 O5         7.3063   12.3646   -1.4722 O.2       1 RES1    0.0000
@<TRIPOS>BOND
     1    1    2 1
     2    3   24 1
     3    4    1 1
     4    5    4 2
     5    6    5 1
     6    7    6 1
     7    8    6 1
     8    9    1 1
     9   10    4 1
    10   11   10 1
    11   12   10 1
    12   13   10 1
    13   14    5 1
    14   15   14 1
    15   16   15 1
    16   17   15 1
    17   18   15 1
    18   19    6 1
    19   20   19 2
    20   21   20 1
    21   22   20 1
    22   23   22 1
    23   24   22 2
    24   25    8 1
    25   26   25 1
    26   27   26 1
    27   28   26 1
    28   29   26 1
    29   30    9 1
    30   31   30 1
    31   32   30 1
    32   33   30 1
    33   34   14 2
    34   35   19 1
    35   36    3 2
    36   37    3 2
    37   38   25 2
    38    8    9 2
    39   24   35 1
@<TRIPOS>SUBSTRUCTURE
     1 RES1 1

@<TRIPOS>CRYSIN
   8.7056   12.2393   13.8290  90.0000  93.6080  90.0000  14 1

