# MOL2 file generated by ConQuest
# Please check atom types

@<TRIPOS>MOLECULE
XENWAQ
   120   124     1
SMALL
NO_CHARGES
****
Generated from CSD

@<TRIPOS>ATOM
      1 C1         1.1984    3.6614    9.6895 C.ar      1 RES1    0.0000
      2 C2         0.8844    5.1240    9.9336 C.3       1 RES1    0.0000
      3 H1         0.6300    5.2488   10.8823 H         1 RES1    0.0000
      4 H2         0.1133    5.3893    9.3732 H         1 RES1    0.0000
      5 C3         2.0668    6.0180    9.6113 C.ar      1 RES1    0.0000
      6 C4         2.0249    6.9622    8.5856 C.ar      1 RES1    0.0000
      7 H3         1.2078    7.0977    8.1188 H         1 RES1    0.0000
      8 C5         3.1370    7.7112    8.2238 C.ar      1 RES1    0.0000
      9 C6         4.3264    7.4463    8.8921 C.ar      1 RES1    0.0000
     10 H4         5.1076    7.9203    8.6360 H         1 RES1    0.0000
     11 C7         4.4181    6.5156    9.9212 C.ar      1 RES1    0.0000
     12 C8         5.7649    6.1295   10.5029 C.3       1 RES1    0.0000
     13 H5         5.7609    6.2786   11.4825 H         1 RES1    0.0000
     14 H6         6.4745    6.6933   10.1065 H         1 RES1    0.0000
     15 C9         6.0433    4.6675   10.2070 C.ar      1 RES1    0.0000
     16 C10        5.9863    4.2155    8.8928 C.ar      1 RES1    0.0000
     17 H7         5.8624    4.8289    8.1786 H         1 RES1    0.0000
     18 C11        6.1126    2.8643    8.6414 C.ar      1 RES1    0.0000
     19 C12        6.2720    1.9317    9.6455 C.ar      1 RES1    0.0000
     20 H8         6.3354    1.0076    9.4369 H         1 RES1    0.0000
     21 C13        6.3384    2.3610   10.9672 C.ar      1 RES1    0.0000
     22 C14        6.4019    1.3544   12.1021 C.3       1 RES1    0.0000
     23 H9         7.0700    1.6502   12.7697 H         1 RES1    0.0000
     24 H10        6.6898    0.4747   11.7488 H         1 RES1    0.0000
     25 C15        5.0427    1.2160   12.7679 C.ar      1 RES1    0.0000
     26 C16        4.8182    1.6600   14.0665 C.ar      1 RES1    0.0000
     27 H11        5.5452    2.0186   14.5625 H         1 RES1    0.0000
     28 C17        3.5602    1.5948   14.6630 C.ar      1 RES1    0.0000
     29 C18        2.4958    1.1690   13.8724 C.ar      1 RES1    0.0000
     30 H12        1.6167    1.1858   14.2344 H         1 RES1    0.0000
     31 C19        2.6807    0.7183   12.5647 C.ar      1 RES1    0.0000
     32 C20        1.5025    0.3976   11.6714 C.3       1 RES1    0.0000
     33 H13        1.5876   -0.5278   11.3281 H         1 RES1    0.0000
     34 H14        0.6626    0.4558   12.1946 H         1 RES1    0.0000
     35 C21        1.4475    1.3669   10.5110 C.ar      1 RES1    0.0000
     36 C22        1.8908    0.9843    9.2566 C.ar      1 RES1    0.0000
     37 H15        2.1010    0.0754    9.0818 H         1 RES1    0.0000
     38 C23        2.0252    1.9309    8.2637 C.ar      1 RES1    0.0000
     39 C24        1.7084    3.2634    8.4607 C.ar      1 RES1    0.0000
     40 H16        1.8374    3.8967    7.7656 H         1 RES1    0.0000
     41 C25        1.0755    2.7013   10.7015 C.ar      1 RES1    0.0000
     42 C26        3.2564    5.8415   10.3097 C.ar      1 RES1    0.0000
     43 C27        6.2446    3.7322   11.2214 C.ar      1 RES1    0.0000
     44 C28        3.9813    0.6767   12.0626 C.ar      1 RES1    0.0000
     45 C29       -0.7816    3.0601   12.1234 C.3       1 RES1    0.0000
     46 H17       -1.1433    2.1831   11.8376 H         1 RES1    0.0000
     47 H18       -1.1986    3.7665   11.5693 H         1 RES1    0.0000
     48 C30       -1.0858    3.2941   13.5632 C.3       1 RES1    0.0000
     49 H19       -0.6321    4.1229   13.8600 H         1 RES1    0.0000
     50 H20       -0.7262    2.5430   14.0974 H         1 RES1    0.0000
     51 C31       -2.5711    3.4203   13.8226 C.3       1 RES1    0.0000
     52 H21       -2.9254    4.1863   13.3255 H         1 RES1    0.0000
     53 H22       -2.7254    3.5540   14.7805 H         1 RES1    0.0000
     54 H23       -3.0249    2.6030   13.5300 H         1 RES1    0.0000
     55 C32        3.3453    5.3984   12.6581 C.3       1 RES1    0.0000
     56 H24        4.1266    6.0010   12.7388 H         1 RES1    0.0000
     57 H25        3.4901    4.6370   13.2753 H         1 RES1    0.0000
     58 C33        2.1267    6.1415   13.0993 C.3       1 RES1    0.0000
     59 H26        1.3521    5.5246   13.1093 H         1 RES1    0.0000
     60 H27        1.9319    6.8664   12.4532 H         1 RES1    0.0000
     61 C34        2.3131    6.7370   14.4810 C.3       1 RES1    0.0000
     62 H28        2.4238    6.0164   15.1356 H         1 RES1    0.0000
     63 H29        1.5262    7.2725   14.7149 H         1 RES1    0.0000
     64 H30        3.1096    7.3085   14.4853 H         1 RES1    0.0000
     65 C35        7.6114    4.4941   12.9914 C.3       1 RES1    0.0000
     66 H31        7.9238    5.3139   12.5342 H         1 RES1    0.0000
     67 H32        8.2408    3.7596   12.7812 H         1 RES1    0.0000
     68 C36        7.5652    4.7227   14.4818 C.3       1 RES1    0.0000
     69 H33        7.1931    3.9156   14.9195 H         1 RES1    0.0000
     70 H34        8.4873    4.8512   14.8172 H         1 RES1    0.0000
     71 C37        6.7458    5.8965   14.8577 C.3       1 RES1    0.0000
     72 H35        6.9726    6.6522   14.2769 H         1 RES1    0.0000
     73 H36        6.9263    6.1364   15.7898 H         1 RES1    0.0000
     74 H37        5.7954    5.6789   14.7535 H         1 RES1    0.0000
     75 C38        4.4138   -1.2907   10.8362 C.3       1 RES1    0.0000
     76 H38        3.6565   -1.7307   11.2972 H         1 RES1    0.0000
     77 H39        5.2443   -1.4994   11.3339 H         1 RES1    0.0000
     78 C39        4.5208   -1.8005    9.4216 C.3       1 RES1    0.0000
     79 H40        5.3074   -1.3880    8.9833 H         1 RES1    0.0000
     80 H41        3.7129   -1.5320    8.9158 H         1 RES1    0.0000
     81 C40        4.6592   -3.3069    9.3784 C.3       1 RES1    0.0000
     82 H42        5.4798   -3.5729    9.8440 H         1 RES1    0.0000
     83 H43        4.7035   -3.6037    8.4449 H         1 RES1    0.0000
     84 H44        3.8854   -3.7185    9.8170 H         1 RES1    0.0000
     85 C41        3.0436    8.7978    7.1380 C.3       1 RES1    0.0000
     86 C42        2.1533    8.3778    6.0018 C.3       1 RES1    0.0000
     87 H45        1.2356    8.2681    6.3298 H         1 RES1    0.0000
     88 H46        2.4732    7.5278    5.6332 H         1 RES1    0.0000
     89 H47        2.1697    9.0649    5.3032 H         1 RES1    0.0000
     90 C43        4.3861    9.0992    6.5363 C.3       1 RES1    0.0000
     91 H48        4.7856    8.2715    6.1986 H         1 RES1    0.0000
     92 H49        4.9708    9.4882    7.2195 H         1 RES1    0.0000
     93 H50        4.2788    9.7350    5.7972 H         1 RES1    0.0000
     94 C44        2.3791   10.0023    7.7405 C.3       1 RES1    0.0000
     95 H51        2.0392   10.5798    7.0265 H         1 RES1    0.0000
     96 H52        3.0271   10.4975    8.2828 H         1 RES1    0.0000
     97 H53        1.6338    9.7144    8.3079 H         1 RES1    0.0000
     98 C45        3.3271    1.9958   16.1285 C.3       1 RES1    0.0000
     99 C46        2.6880    0.8397   16.8501 C.3       1 RES1    0.0000
    100 H54        3.3561    0.1371   16.9960 H         1 RES1    0.0000
    101 H55        1.9527    0.4815   16.3090 H         1 RES1    0.0000
    102 H56        2.3404    1.1447   17.7139 H         1 RES1    0.0000
    103 C47        4.5499    2.2928   16.8532 C.3       1 RES1    0.0000
    104 H57        4.9395    3.1239   16.5097 H         1 RES1    0.0000
    105 H58        5.1869    1.5577   16.7335 H         1 RES1    0.0000
    106 H59        4.3480    2.3973   17.8065 H         1 RES1    0.0000
    107 C48        2.3669    3.1016   16.2161 C.3       1 RES1    0.0000
    108 H60        2.0497    3.1856   17.1388 H         1 RES1    0.0000
    109 H61        1.6070    2.9234   15.6239 H         1 RES1    0.0000
    110 H62        2.8044    3.9361   15.9442 H         1 RES1    0.0000
    111 N1         2.5683    1.5057    6.9688 N.pl3     1 RES1    0.0000
    112 N2         6.0277    2.4001    7.2480 N.pl3     1 RES1    0.0000
    113 O1         0.6500    3.0823   11.9572 O.3       1 RES1    0.0000
    114 O2         3.2942    4.8904   11.3070 O.3       1 RES1    0.0000
    115 O3         6.2859    4.1524   12.5367 O.3       1 RES1    0.0000
    116 O4         4.2066    0.1283   10.8028 O.3       1 RES1    0.0000
    117 O5         2.9723    2.3740    6.2017 O.2       1 RES1    0.0000
    118 O6         2.6062    0.3042    6.7181 O.2       1 RES1    0.0000
    119 O7         6.0594    3.2308    6.3549 O.2       1 RES1    0.0000
    120 O8         5.9387    1.1889    7.0499 O.2       1 RES1    0.0000
@<TRIPOS>BOND
     1    1    2 1
     2    2    3 1
     3    4    2 1
     4    5    2 1
     5    6    5 ar
     6    7    6 1
     7    8    6 ar
     8    9    8 ar
     9   10    9 1
    10   11    9 ar
    11   12   11 1
    12   13   12 1
    13   14   12 1
    14   15   12 1
    15   16   15 ar
    16   17   16 1
    17   18   16 ar
    18   19   18 ar
    19   20   19 1
    20   21   19 ar
    21   22   21 1
    22   23   22 1
    23   24   22 1
    24   25   22 1
    25   26   25 ar
    26   27   26 1
    27   28   26 ar
    28   29   28 ar
    29   30   29 1
    30   31   29 ar
    31   32   31 1
    32   33   32 1
    33   34   32 1
    34   35   32 1
    35   36   35 ar
    36   37   36 1
    37   38   36 ar
    38   39    1 ar
    39   40   39 1
    40   41    1 ar
    41   42    5 ar
    42   43   15 ar
    43   44   25 ar
    44   45   46 1
    45   47   45 1
    46   48   45 1
    47   49   48 1
    48   50   48 1
    49   51   48 1
    50   52   51 1
    51   53   51 1
    52   54   51 1
    53   55   56 1
    54   57   55 1
    55   58   55 1
    56   59   58 1
    57   60   58 1
    58   61   58 1
    59   62   61 1
    60   63   61 1
    61   64   61 1
    62   65   66 1
    63   67   65 1
    64   68   65 1
    65   69   68 1
    66   70   68 1
    67   71   68 1
    68   72   71 1
    69   73   71 1
    70   74   71 1
    71   75   76 1
    72   77   75 1
    73   78   75 1
    74   79   78 1
    75   80   78 1
    76   81   78 1
    77   82   81 1
    78   83   81 1
    79   84   81 1
    80   85    8 1
    81   86   85 1
    82   87   86 1
    83   88   86 1
    84   89   86 1
    85   90   85 1
    86   91   90 1
    87   92   90 1
    88   93   90 1
    89   94   85 1
    90   95   94 1
    91   96   94 1
    92   97   94 1
    93   98   28 1
    94   99   98 1
    95  100   99 1
    96  101   99 1
    97  102   99 1
    98  103   98 1
    99  104  103 1
   100  105  103 1
   101  106  103 1
   102  107   98 1
   103  108  107 1
   104  109  107 1
   105  110  107 1
   106  111   38 1
   107  112   18 1
   108  113   41 1
   109  114   42 1
   110  115   43 1
   111  116   44 1
   112  117  111 2
   113  118  111 2
   114  119  112 2
   115  120  112 2
   116   11   42 ar
   117   21   43 ar
   118   31   44 ar
   119   35   41 ar
   120   38   39 ar
   121   45  113 1
   122   55  114 1
   123   65  115 1
   124   75  116 1
@<TRIPOS>SUBSTRUCTURE
     1 RES1 1

@<TRIPOS>CRYSIN
  13.7360   17.1360   23.2760  90.0000 123.9930  90.0000  14 1

