# MOL2 file generated by ConQuest
# Please check atom types

@<TRIPOS>MOLECULE
XEPACP
    40    41     1
SMALL
NO_CHARGES
****
Generated from CSD

@<TRIPOS>ATOM
      1 C1        12.4861   -3.6447   -1.2429 C.2       1 RES1    0.0000
      2 C2        19.0957   -3.5359    3.1064 C.2       1 RES1    0.0000
      3 C3        19.0814   -5.8621    2.1702 C.3       1 RES1    0.0000
      4 C4        20.2860   -6.6273    1.6718 C.3       1 RES1    0.0000
      5 C5        21.0968   -7.1831    2.8255 C.3       1 RES1    0.0000
      6 C6        21.4676   -6.0757    3.7935 C.3       1 RES1    0.0000
      7 C7        20.2515   -5.3409    4.2691 C.3       1 RES1    0.0000
      8 C8        12.2561   -2.5126   -2.2061 C.3       1 RES1    0.0000
      9 C9        13.7109   -3.6604   -0.3798 C.ar      1 RES1    0.0000
     10 C10       13.6649   -4.3341    0.8494 C.ar      1 RES1    0.0000
     11 C11       14.7603   -4.3696    1.6856 C.ar      1 RES1    0.0000
     12 C12       15.9333   -3.7189    1.3046 C.ar      1 RES1    0.0000
     13 C13       16.0080   -3.0584    0.0910 C.ar      1 RES1    0.0000
     14 C14       14.8839   -3.0378   -0.7434 C.ar      1 RES1    0.0000
     15 C15       18.1528   -3.1087    1.9911 C.3       1 RES1    0.0000
     16 H1        10.0625   -5.4382   -1.8383 H         1 RES1    0.0000
     17 H2        18.5236   -3.3413    1.1082 H         1 RES1    0.0000
     18 H3        18.5869   -5.4415    1.4071 H         1 RES1    0.0000
     19 H4        18.4575   -6.4954    2.6362 H         1 RES1    0.0000
     20 H5        20.8668   -6.0006    1.1321 H         1 RES1    0.0000
     21 H6        20.0071   -7.3686    1.0710 H         1 RES1    0.0000
     22 H7        21.9363   -7.5781    2.4421 H         1 RES1    0.0000
     23 H8        20.5706   -7.8667    3.2933 H         1 RES1    0.0000
     24 H9        22.1059   -5.4234    3.3903 H         1 RES1    0.0000
     25 H10       21.9104   -6.5341    4.5859 H         1 RES1    0.0000
     26 H11       20.4643   -4.6714    4.9238 H         1 RES1    0.0000
     27 H12       11.3361   -2.3534   -2.4176 H         1 RES1    0.0000
     28 H13       19.6708   -6.0781    4.7195 H         1 RES1    0.0000
     29 H14       12.8369   -2.6107   -3.0010 H         1 RES1    0.0000
     30 H15       12.5753   -1.6484   -1.7191 H         1 RES1    0.0000
     31 H16       12.8858   -4.9361    1.0375 H         1 RES1    0.0000
     32 H17       14.7804   -4.9567    2.4906 H         1 RES1    0.0000
     33 H18       16.8302   -2.5950   -0.2186 H         1 RES1    0.0000
     34 H19       15.0046   -2.8028   -1.7185 H         1 RES1    0.0000
     35 H20       17.9860   -2.1332    2.0767 H         1 RES1    0.0000
     36 N1        11.6811   -4.6145   -1.0435 N.2       1 RES1    0.0000
     37 N2        19.4752   -4.8223    3.1292 N.am      1 RES1    0.0000
     38 O1        10.5168   -4.5369   -1.8485 O.3       1 RES1    0.0000
     39 O2        16.9481   -3.8270    2.2229 O.3       1 RES1    0.0000
     40 O3        19.4666   -2.7286    3.9588 O.2       1 RES1    0.0000
@<TRIPOS>BOND
     1    1    8 1
     2    2   15 1
     3    3    4 1
     4    4    5 1
     5    5    6 1
     6    6    7 1
     7    7   26 1
     8    8   27 1
     9    9    1 1
    10   10    9 ar
    11   11   10 ar
    12   12   11 ar
    13   13   12 ar
    14   14    9 ar
    15   15   17 1
    16   16   38 1
    17   18    3 1
    18   19    3 1
    19   20    4 1
    20   21    4 1
    21   22    5 1
    22   23    5 1
    23   24    6 1
    24   25    6 1
    25   28    7 1
    26   29    8 1
    27   30    8 1
    28   31   10 1
    29   32   11 1
    30   33   13 1
    31   34   14 1
    32   35   15 1
    33   36    1 2
    34   37    2 1
    35   38   36 1
    36   39   12 1
    37   40    2 2
    38    3   37 1
    39    7   37 1
    40   13   14 ar
    41   15   39 1
@<TRIPOS>SUBSTRUCTURE
     1 RES1 1

@<TRIPOS>CRYSIN
  28.7500    8.2460    5.9900  90.0000  90.0000  90.0000  19 1

