# MOL2 file generated by ConQuest
# Please check atom types

@<TRIPOS>MOLECULE
XEPBIG
    61    65     1
SMALL
USER_CHARGES
****
Generated from CSD

@<TRIPOS>ATOM
      1 O1         3.6110    0.1651    4.7572 O.3       1 RES1    0.0000
      2 O2         7.9602    1.4614    2.1512 O.2       1 RES1    0.0000
      3 O3         8.0886    3.0438   -2.1151 O.3       1 RES1    0.0000
      4 O4         5.9832    2.3089   -1.7177 O.2       1 RES1   -1.0000
      5 N1         1.8284    0.0023    3.2159 N.pl3     1 RES1    0.0000
      6 N2         1.6026    0.1324    1.8624 N.2       1 RES1    0.0000
      7 N3         8.9963    2.8270   -0.2031 N.pl3     1 RES1    1.0000
      8 N4         9.2394    3.2500   -1.4108 N.2       1 RES1    0.0000
      9 C1         0.8803   -0.8985    5.2847 C.ar      1 RES1    0.0000
     10 H1         1.7337   -1.0772    5.6098 H         1 RES1    0.0000
     11 C2        -0.2366   -1.2225    6.0392 C.ar      1 RES1    0.0000
     12 H2        -0.1317   -1.6136    6.8774 H         1 RES1    0.0000
     13 C3        -1.4982   -0.9677    5.5544 C.ar      1 RES1    0.0000
     14 H3        -2.2453   -1.1837    6.0659 H         1 RES1    0.0000
     15 C4        -1.6553   -0.3971    4.3220 C.ar      1 RES1    0.0000
     16 H4        -2.5096   -0.2351    3.9919 H         1 RES1    0.0000
     17 C5        -0.5580   -0.0624    3.5698 C.ar      1 RES1    0.0000
     18 H5        -0.6696    0.3309    2.7343 H         1 RES1    0.0000
     19 C6         0.7156   -0.3096    4.0514 C.ar      1 RES1    0.0000
     20 C7         2.7667    0.4778    1.3347 C.2       1 RES1    0.0000
     21 C8         2.8312    0.7509   -0.1290 C.3       1 RES1    0.0000
     22 H6         3.4299    0.1263   -0.5443 H         1 RES1    0.0000
     23 H7         3.1493    1.6448   -0.2747 H         1 RES1    0.0000
     24 H8         1.9547    0.6573   -0.5116 H         1 RES1    0.0000
     25 C9         3.7751    0.5523    2.3208 C.2       1 RES1    0.0000
     26 C10        3.1288    0.2465    3.4929 C.2       1 RES1    0.0000
     27 C11        3.7775    1.3465    5.4848 C.ar      1 RES1    0.0000
     28 C12        3.6788    2.5965    4.9248 C.ar      1 RES1    0.0000
     29 H9         3.4992    2.6870    4.0171 H         1 RES1    0.0000
     30 C13        3.8488    3.7247    5.7159 C.ar      1 RES1    0.0000
     31 H10        3.7804    4.5737    5.3427 H         1 RES1    0.0000
     32 C14        4.1190    3.5771    7.0488 C.ar      1 RES1    0.0000
     33 H11        4.2302    4.3280    7.5856 H         1 RES1    0.0000
     34 C15        4.2279    2.3249    7.5957 C.ar      1 RES1    0.0000
     35 H12        4.4102    2.2427    8.5029 H         1 RES1    0.0000
     36 C16        4.0732    1.1777    6.8356 C.ar      1 RES1    0.0000
     37 C17        4.2029   -0.1978    7.4356 C.3       1 RES1    0.0000
     38 H13        3.3360   -0.6071    7.4898 H         1 RES1    0.0000
     39 H14        4.5786   -0.1286    8.3164 H         1 RES1    0.0000
     40 H15        4.7758   -0.7349    6.8825 H         1 RES1    0.0000
     41 C18        5.1720    0.8886    2.2280 C.2       1 RES1    0.0000
     42 H16        5.6821    0.7676    2.9964 H         1 RES1    0.0000
     43 C19        5.8086    1.3542    1.1593 C.2       1 RES1    0.0000
     44 H17        5.3357    1.4698    0.3654 H         1 RES1    0.0000
     45 C20        7.2373    1.6896    1.1955 C.2       1 RES1    0.0000
     46 C21        7.7261    2.3553   -0.0169 C.2       1 RES1    0.0000
     47 C22        7.0887    2.5143   -1.2598 C.2       1 RES1    0.0000
     48 C23       10.0885    2.9807    0.7283 C.ar      1 RES1    0.0000
     49 C24       11.3270    2.5326    0.3425 C.ar      1 RES1    0.0000
     50 H18       11.4454    2.0921   -0.4687 H         1 RES1    0.0000
     51 C25       12.3896    2.7540    1.1910 C.ar      1 RES1    0.0000
     52 H19       13.2334    2.4512    0.9425 H         1 RES1    0.0000
     53 C26       12.2451    3.4074    2.3918 C.ar      1 RES1    0.0000
     54 C27       10.9737    3.8358    2.7434 C.ar      1 RES1    0.0000
     55 H20       10.8511    4.2679    3.5584 H         1 RES1    0.0000
     56 C28        9.8929    3.6387    1.9244 C.ar      1 RES1    0.0000
     57 H21        9.0481    3.9423    2.1698 H         1 RES1    0.0000
     58 C29       13.4232    3.6258    3.2883 C.3       1 RES1    0.0000
     59 H22       13.7003    2.7859    3.6643 H         1 RES1    0.0000
     60 H23       13.1804    4.2283    3.9944 H         1 RES1    0.0000
     61 H24       14.1465    4.0024    2.7822 H         1 RES1    0.0000
@<TRIPOS>BOND
     1    1   26 1
     2    2   45 2
     3    3    8 1
     4    4   47 1
     5    5    6 1
     6    6   20 2
     7    7    8 2
     8    9   10 1
     9   11    9 ar
    10   12   11 1
    11   13   11 ar
    12   14   13 1
    13   15   13 ar
    14   16   15 1
    15   17   15 ar
    16   18   17 1
    17   19    5 1
    18   20   21 1
    19   21   22 1
    20   23   21 1
    21   24   21 1
    22   25   20 1
    23   26    5 1
    24   27    1 1
    25   28   27 ar
    26   29   28 1
    27   30   28 ar
    28   31   30 1
    29   32   30 ar
    30   33   32 1
    31   34   32 ar
    32   35   34 1
    33   36   27 ar
    34   37   36 1
    35   38   37 1
    36   39   37 1
    37   40   37 1
    38   41   25 1
    39   42   41 1
    40   43   41 2
    41   44   43 1
    42   45   43 1
    43   46    7 1
    44   47    3 1
    45   48    7 1
    46   49   48 ar
    47   50   49 1
    48   51   49 ar
    49   52   51 1
    50   53   51 ar
    51   54   53 ar
    52   55   54 1
    53   56   48 ar
    54   57   56 1
    55   58   53 1
    56   59   58 1
    57   60   58 1
    58   61   58 1
    59    9   19 ar
    60   17   19 ar
    61   25   26 2
    62   34   36 ar
    63   45   46 1
    64   46   47 2
    65   54   56 ar
@<TRIPOS>SUBSTRUCTURE
     1 RES1 1

@<TRIPOS>CRYSIN
  12.9021    7.6076   25.3110  90.0000  95.3380  90.0000  14 1

