# MOL2 file generated by ConQuest
# Please check atom types

@<TRIPOS>MOLECULE
XEPBIE
    89    91     1
SMALL
NO_CHARGES
****
Generated from CSD

@<TRIPOS>ATOM
      1 O1         1.9689    6.8346    0.8182 O.2       1 RES1    0.0000
      2 O2        -0.5541    7.0490   -2.0554 O.2       1 RES1    0.0000
      3 O3        -1.0544    8.0550    4.2642 O.3       1 RES1    0.0000
      4 O4        -4.0838    8.9908    0.5947 O.3       1 RES1    0.0000
      5 O5         1.9968    6.4398    4.9202 O.3       1 RES1    0.0000
      6 O6        -4.3253    8.6316   -2.9002 O.3       1 RES1    0.0000
      7 O7         6.2684    2.0117    3.1048 O.2       1 RES1    0.0000
      8 O8         0.0622    6.1888   -6.5986 O.2       1 RES1    0.0000
      9 O9        -1.3735    6.7507   -8.0760 O.2       1 RES1    0.0000
     10 N1         0.6253    6.8770    2.6401 N.am      1 RES1    0.0000
     11 N2        -2.4215    7.8801   -1.1139 N.am      1 RES1    0.0000
     12 N3         5.6843    3.7168    1.7497 N.am      1 RES1    0.0000
     13 N4        -1.0162    6.6688   -6.9199 N.pl3     1 RES1    0.0000
     14 C1        -2.6320    8.5526    2.4889 C.ar      1 RES1    0.0000
     15 H1        -3.2289    8.9565    3.0759 H         1 RES1    0.0000
     16 C2        -1.4478    8.0402    2.9669 C.ar      1 RES1    0.0000
     17 C3        -0.5475    7.4426    2.0876 C.ar      1 RES1    0.0000
     18 C4        -0.8565    7.3661    0.7381 C.ar      1 RES1    0.0000
     19 H2        -0.2583    6.9621    0.1512 H         1 RES1    0.0000
     20 C5        -2.0446    7.8857    0.2557 C.ar      1 RES1    0.0000
     21 C6        -2.9400    8.4728    1.1450 C.ar      1 RES1    0.0000
     22 C7         1.7758    6.5798    1.9998 C.2       1 RES1    0.0000
     23 C8         2.8265    5.8321    2.7813 C.ar      1 RES1    0.0000
     24 C9         3.7697    5.1580    2.0276 C.ar      1 RES1    0.0000
     25 H3         3.7285    5.2246    1.1005 H         1 RES1    0.0000
     26 C10        4.7736    4.3884    2.5912 C.ar      1 RES1    0.0000
     27 C11        4.8310    4.3036    3.9752 C.ar      1 RES1    0.0000
     28 H4         5.4946    3.7927    4.3798 H         1 RES1    0.0000
     29 C12        3.9096    4.9733    4.7533 C.ar      1 RES1    0.0000
     30 H5         3.9616    4.9085    5.6793 H         1 RES1    0.0000
     31 C13        2.9096    5.7391    4.1797 C.ar      1 RES1    0.0000
     32 C14       -1.6873    7.4770   -2.1543 C.2       1 RES1    0.0000
     33 C15       -2.2917    7.5858   -3.5450 C.ar      1 RES1    0.0000
     34 C16       -1.4840    7.1175   -4.5610 C.ar      1 RES1    0.0000
     35 H6        -0.6505    6.7602   -4.3565 H         1 RES1    0.0000
     36 C17       -1.8946    7.1733   -5.8694 C.ar      1 RES1    0.0000
     37 C18       -3.1203    7.6826   -6.2107 C.ar      1 RES1    0.0000
     38 H7        -3.3898    7.7044   -7.1011 H         1 RES1    0.0000
     39 C19       -3.9362    8.1541   -5.2358 C.ar      1 RES1    0.0000
     40 H8        -4.7704    8.4957   -5.4648 H         1 RES1    0.0000
     41 C20       -3.5499    8.1368   -3.8907 C.ar      1 RES1    0.0000
     42 C21       -2.2567    8.1976    5.3169 C.3       1 RES1    0.0000
     43 H9        -3.1158    7.9485    4.9423 H         1 RES1    0.0000
     44 H10       -2.0944    7.7080    6.1384 H         1 RES1    0.0000
     45 C22       -2.1225    9.5118    5.4670 C.3       1 RES1    0.0000
     46 H11       -1.2228    9.7147    5.7327 H         1 RES1    0.0000
     47 H12       -2.7331    9.8209    6.1406 H         1 RES1    0.0000
     48 H13       -2.3154    9.9506    4.6344 H         1 RES1    0.0000
     49 C23       -5.2793    8.9589    1.4173 C.3       1 RES1    0.0000
     50 H14       -5.9745    9.4854    0.9916 H         1 RES1    0.0000
     51 H15       -5.0855    9.3607    2.2788 H         1 RES1    0.0000
     52 C24       -5.7694    7.5713    1.6208 C.3       1 RES1    0.0000
     53 H16       -5.8895    7.1465    0.7681 H         1 RES1    0.0000
     54 H17       -6.6068    7.5932    2.0888 H         1 RES1    0.0000
     55 H18       -5.1266    7.0784    2.1354 H         1 RES1    0.0000
     56 C25        2.0899    6.4097    6.3585 C.3       1 RES1    0.0000
     57 H19        2.9409    6.7781    6.6431 H         1 RES1    0.0000
     58 H20        2.0321    5.4948    6.6742 H         1 RES1    0.0000
     59 C26        0.9774    7.2120    6.9232 C.3       1 RES1    0.0000
     60 H21        0.1323    6.8362    6.6309 H         1 RES1    0.0000
     61 H22        1.0336    8.1194    6.5853 H         1 RES1    0.0000
     62 C27        1.0100    7.2410    8.4373 C.3       1 RES1    0.0000
     63 H23        1.1049    6.3340    8.7685 H         1 RES1    0.0000
     64 H24        1.7878    7.7449    8.7263 H         1 RES1    0.0000
     65 C28       -0.2281    7.8575    9.0398 C.3       1 RES1    0.0000
     66 H25       -0.3365    8.7499    8.7029 H         1 RES1    0.0000
     67 H26       -0.1391    7.8834    9.9947 H         1 RES1    0.0000
     68 H27       -0.9948    7.3309    8.8030 H         1 RES1    0.0000
     69 C29       -5.4696    9.4233   -3.2504 C.3       1 RES1    0.0000
     70 H28       -6.1722    8.8537   -3.5995 H         1 RES1    0.0000
     71 H29       -5.2290   10.0664   -3.9363 H         1 RES1    0.0000
     72 C30       -5.9481   10.1355   -2.0298 C.3       1 RES1    0.0000
     73 H30       -6.3159    9.4894   -1.4073 H         1 RES1    0.0000
     74 H31       -5.1959   10.5700   -1.5985 H         1 RES1    0.0000
     75 C31       -6.9774   11.1484   -2.3422 C.3       1 RES1    0.0000
     76 H32       -7.7448   10.7073   -2.7391 H         1 RES1    0.0000
     77 H33       -6.6225   11.7712   -2.9947 H         1 RES1    0.0000
     78 C32       -7.4269   11.9146   -1.1183 C.3       1 RES1    0.0000
     79 H34       -7.9199   11.3295   -0.5380 H         1 RES1    0.0000
     80 H35       -7.9868   12.6462   -1.3862 H         1 RES1    0.0000
     81 H36       -6.6577   12.2527   -0.6536 H         1 RES1    0.0000
     82 C33        6.3676    2.5920    2.0287 C.2       1 RES1    0.0000
     83 C34        7.2318    2.0527    0.9349 C.3       1 RES1    0.0000
     84 H37        8.1333    1.9663    1.2528 H         1 RES1    0.0000
     85 H38        7.2132    2.6539    0.1868 H         1 RES1    0.0000
     86 H39        6.9044    1.1928    0.6625 H         1 RES1    0.0000
     87 H40        0.5309    6.7911    3.4905 H         1 RES1    0.0000
     88 H41       -3.2159    8.1276   -1.2450 H         1 RES1    0.0000
     89 H42        5.8770    4.1250    0.9893 H         1 RES1    0.0000
@<TRIPOS>BOND
     1    1   22 2
     2    2   32 2
     3    3   16 1
     4    4   21 1
     5    5   31 1
     6    6   41 1
     7    7   82 2
     8    8   13 2
     9    9   13 2
    10   10   17 1
    11   11   20 1
    12   12   26 1
    13   13   36 1
    14   14   15 1
    15   16   14 ar
    16   17   16 ar
    17   18   17 ar
    18   19   18 1
    19   20   18 ar
    20   21   14 ar
    21   22   10 1
    22   23   22 1
    23   24   23 ar
    24   25   24 1
    25   26   24 ar
    26   27   26 ar
    27   28   27 1
    28   29   27 ar
    29   30   29 1
    30   31   23 ar
    31   32   11 1
    32   33   32 1
    33   34   33 ar
    34   35   34 1
    35   36   34 ar
    36   37   36 ar
    37   38   37 1
    38   39   37 ar
    39   40   39 1
    40   41   33 ar
    41   42    3 1
    42   43   42 1
    43   44   42 1
    44   45   42 1
    45   46   45 1
    46   47   45 1
    47   48   45 1
    48   49    4 1
    49   50   49 1
    50   51   49 1
    51   52   49 1
    52   53   52 1
    53   54   52 1
    54   55   52 1
    55   56    5 1
    56   57   56 1
    57   58   56 1
    58   59   56 1
    59   60   59 1
    60   61   59 1
    61   62   59 1
    62   63   62 1
    63   64   62 1
    64   65   62 1
    65   66   65 1
    66   67   65 1
    67   68   65 1
    68   69    6 1
    69   70   69 1
    70   71   69 1
    71   72   69 1
    72   73   72 1
    73   74   72 1
    74   75   72 1
    75   76   75 1
    76   77   75 1
    77   78   75 1
    78   79   78 1
    79   80   78 1
    80   81   78 1
    81   82   12 1
    82   83   82 1
    83   84   83 1
    84   85   83 1
    85   86   83 1
    86   87   10 1
    87   88   11 1
    88   89   12 1
    89   20   21 ar
    90   29   31 ar
    91   39   41 ar
@<TRIPOS>SUBSTRUCTURE
     1 RES1 1

@<TRIPOS>CRYSIN
  12.5610   12.6365   12.8160 116.8380  92.6240 109.6010   2 1

