# MOL2 file generated by ConQuest
# Please check atom types

@<TRIPOS>MOLECULE
XEQHUX
    49    53     1
SMALL
NO_CHARGES
****
Generated from CSD

@<TRIPOS>ATOM
      1 O1         4.5171    0.2467    4.6117 O.3       1 RES1    0.0000
      2 O2         4.1955   -3.2105    1.7826 O.3       1 RES1    0.0000
      3 O3         8.5580    0.5383    2.4145 O.3       1 RES1    0.0000
      4 N1         8.5550    1.4840    3.5711 N.3       1 RES1    0.0000
      5 C1         7.2601    1.2593    4.3057 C.3       1 RES1    0.0000
      6 H1         6.7554    2.1190    4.3817 H         1 RES1    0.0000
      7 C2         6.5160    0.3013    3.4147 C.ar      1 RES1    0.0000
      8 C3         5.2138   -0.2280    3.5455 C.ar      1 RES1    0.0000
      9 C4         4.8201   -1.1603    2.6012 C.ar      1 RES1    0.0000
     10 C5         3.5637   -2.0256    2.3184 C.3       1 RES1    0.0000
     11 H2         2.9504   -2.1712    3.0950 H         1 RES1    0.0000
     12 C6         2.9181   -1.4488    1.0564 C.2       1 RES1    0.0000
     13 H3         2.0982   -0.9731    0.9951 H         1 RES1    0.0000
     14 C7         3.7464   -1.7542    0.0693 C.2       1 RES1    0.0000
     15 H4         3.6473   -1.5372   -0.8507 H         1 RES1    0.0000
     16 C8         4.8975   -2.5275    0.7177 C.3       1 RES1    0.0000
     17 H5         5.4359   -3.1066    0.1070 H         1 RES1    0.0000
     18 C9         5.6903   -1.5078    1.5518 C.ar      1 RES1    0.0000
     19 C10        6.9595   -0.9883    1.3942 C.ar      1 RES1    0.0000
     20 H6         7.5328   -1.2351    0.6768 H         1 RES1    0.0000
     21 C11        7.3287   -0.0673    2.3802 C.ar      1 RES1    0.0000
     22 C12        7.5452    0.7030    5.6882 C.ar      1 RES1    0.0000
     23 C13        6.9092    1.2254    6.8066 C.ar      1 RES1    0.0000
     24 H7         6.2923    1.9414    6.7063 H         1 RES1    0.0000
     25 C14        7.1681    0.7079    8.0695 C.ar      1 RES1    0.0000
     26 H8         6.7202    1.0655    8.8276 H         1 RES1    0.0000
     27 C15        8.0659   -0.3134    8.2286 C.ar      1 RES1    0.0000
     28 H9         8.2449   -0.6605    9.0951 H         1 RES1    0.0000
     29 C16        8.7120   -0.8397    7.1206 C.ar      1 RES1    0.0000
     30 H10        9.3419   -1.5429    7.2306 H         1 RES1    0.0000
     31 C17        8.4438   -0.3461    5.8564 C.ar      1 RES1    0.0000
     32 H11        8.8750   -0.7248    5.0986 H         1 RES1    0.0000
     33 C18        8.7078    2.8485    2.9781 C.3       1 RES1    0.0000
     34 C19        3.1986   -0.2531    4.8487 C.3       1 RES1    0.0000
     35 H12        2.6351   -0.0715    4.0687 H         1 RES1    0.0000
     36 H13        2.8180    0.1888    5.6363 H         1 RES1    0.0000
     37 H14        3.2389   -1.2198    5.0050 H         1 RES1    0.0000
     38 C20        8.8158    3.8145    4.1647 C.3       1 RES1    0.0000
     39 H15        7.9697    3.8194    4.6599 H         1 RES1    0.0000
     40 H16        9.0064    4.7170    3.8360 H         1 RES1    0.0000
     41 H17        9.5397    3.5237    4.7589 H         1 RES1    0.0000
     42 C21       10.0375    2.8503    2.2256 C.3       1 RES1    0.0000
     43 H18       10.7590    2.5907    2.8355 H         1 RES1    0.0000
     44 H19       10.2131    3.7487    1.8752 H         1 RES1    0.0000
     45 H20        9.9930    2.2130    1.4820 H         1 RES1    0.0000
     46 C22        7.5586    3.2512    2.0507 C.3       1 RES1    0.0000
     47 H21        7.4996    2.6140    1.3081 H         1 RES1    0.0000
     48 H22        7.7232    4.1504    1.6986 H         1 RES1    0.0000
     49 H23        6.7172    3.2472    2.5520 H         1 RES1    0.0000
@<TRIPOS>BOND
     1    1    8 1
     2    2   10 1
     3    3    4 1
     4    4    5 1
     5    5    6 1
     6    7    5 1
     7    8    7 ar
     8    9    8 ar
     9   10    9 1
    10   11   10 1
    11   12   10 1
    12   13   12 1
    13   14   12 2
    14   15   14 1
    15   16    2 1
    16   17   16 1
    17   18    9 ar
    18   19   18 ar
    19   20   19 1
    20   21    3 1
    21   22    5 1
    22   23   22 ar
    23   24   23 1
    24   25   23 ar
    25   26   25 1
    26   27   25 ar
    27   28   27 1
    28   29   27 ar
    29   30   29 1
    30   31   22 ar
    31   32   31 1
    32   33    4 1
    33   34    1 1
    34   35   34 1
    35   36   34 1
    36   37   34 1
    37   38   33 1
    38   39   38 1
    39   40   38 1
    40   41   38 1
    41   42   33 1
    42   43   42 1
    43   44   42 1
    44   45   42 1
    45   46   33 1
    46   47   46 1
    47   48   46 1
    48   49   46 1
    49    7   21 ar
    50   14   16 1
    51   16   18 1
    52   19   21 ar
    53   29   31 ar
@<TRIPOS>SUBSTRUCTURE
     1 RES1 1

@<TRIPOS>CRYSIN
   8.5401    8.0357   26.7630  90.0000  91.7730  90.0000 231 1

