# MOL2 file generated by ConQuest
# Please check atom types

@<TRIPOS>MOLECULE
XEQTOE
    32    33     1
SMALL
NO_CHARGES
****
Generated from CSD

@<TRIPOS>ATOM
      1 O1         1.0516   -0.9969    7.4285 O.2       1 RES1    0.0000
      2 N1         1.5529   -2.1902    5.5811 N.am      1 RES1    0.0000
      3 N2         4.7767   -2.9049    4.1075 N.ar      1 RES1    0.0000
      4 C1         3.8532   -2.4712    4.9656 C.ar      1 RES1    0.0000
      5 N3         2.0754   -3.3407    3.6490 N.ar      1 RES1    0.0000
      6 O2         5.4371   -1.6098    6.4761 O.2       1 RES1    0.0000
      7 N4         3.2528   -1.2969    6.9470 N.am      1 RES1    0.0000
      8 C2         4.2830   -1.7837    6.1622 C.2       1 RES1    0.0000
      9 O3         6.4767   -5.2621    0.6781 O.3       1 RES1    0.0000
     10 C3         2.5042   -2.6788    4.7257 C.ar      1 RES1    0.0000
     11 C4         4.3835   -3.5588    3.0344 C.ar      1 RES1    0.0000
     12 C5         1.9037   -1.4681    6.7036 C.2       1 RES1    0.0000
     13 C6         3.0104   -3.7968    2.8024 C.ar      1 RES1    0.0000
     14 N5         5.3219   -5.0061    1.4383 N.2       1 RES1    0.0000
     15 C7         5.4861   -3.9543    2.1358 C.2       1 RES1    0.0000
     16 C8         3.6458   -0.6010    8.1683 C.3       1 RES1    0.0000
     17 H1         3.9391   -1.2414    8.8209 H         1 RES1    0.0000
     18 H2         2.8947   -0.1130    8.5140 H         1 RES1    0.0000
     19 H3         4.3615    0.0082    7.9735 H         1 RES1    0.0000
     20 C9         2.4804   -4.5328    1.6155 C.3       1 RES1    0.0000
     21 H4         2.6657   -5.4693    1.7107 H         1 RES1    0.0000
     22 H5         2.9043   -4.2027    0.8192 H         1 RES1    0.0000
     23 H6         1.5322   -4.3985    1.5520 H         1 RES1    0.0000
     24 C10        0.1345   -2.4291    5.3298 C.3       1 RES1    0.0000
     25 H7        -0.1647   -1.8573    4.6181 H         1 RES1    0.0000
     26 H8        -0.3673   -2.2390    6.1252 H         1 RES1    0.0000
     27 H9         0.0034   -3.3460    5.0793 H         1 RES1    0.0000
     28 C11        6.6996   -3.1071    2.0882 C.3       1 RES1    0.0000
     29 H10        7.4306   -3.5721    2.5017 H         1 RES1    0.0000
     30 H11        6.5355   -2.2866    2.5591 H         1 RES1    0.0000
     31 H12        6.9193   -2.9134    1.1737 H         1 RES1    0.0000
     32 H13        6.2878   -6.0469    0.0353 H         1 RES1    0.0000
@<TRIPOS>BOND
     1    1   12 2
     2    2   10 1
     3    3    4 ar
     4    4    8 1
     5    5   10 ar
     6    6    8 2
     7    7    8 1
     8    9   14 1
     9   10    4 ar
    10   11    3 ar
    11   12    2 1
    12   13    5 ar
    13   14   15 2
    14   15   11 1
    15   16    7 1
    16   17   16 1
    17   18   16 1
    18   19   16 1
    19   20   13 1
    20   21   20 1
    21   22   20 1
    22   23   20 1
    23   24    2 1
    24   25   24 1
    25   26   24 1
    26   27   24 1
    27   28   15 1
    28   29   28 1
    29   30   28 1
    30   31   28 1
    31   32    9 1
    32    7   12 1
    33   11   13 ar
@<TRIPOS>SUBSTRUCTURE
     1 RES1 1

@<TRIPOS>CRYSIN
   8.1400    8.3040    9.3650  94.1000 106.4300 110.5900   2 1

