# MOL2 file generated by ConQuest
# Please check atom types

@<TRIPOS>MOLECULE
XEQXUP
    54    57     1
SMALL
NO_CHARGES
****
Generated from CSD

@<TRIPOS>ATOM
      1 O1         8.0914   12.3373    6.3855 O.2       1 RES1    0.0000
      2 O2         6.1548   12.5580    5.4244 O.2       1 RES1    0.0000
      3 O3         4.6036    9.2283    2.3566 O.2       1 RES1    0.0000
      4 O4         5.9680    7.7106    1.6053 O.2       1 RES1    0.0000
      5 O5        11.3114    8.9821    4.5946 O.2       1 RES1    0.0000
      6 O6        10.3694    7.2410    3.5193 O.3       1 RES1    0.0000
      7 O7        13.4667    4.3635    3.2957 O.3       1 RES1    0.0000
      8 O8        14.8747    3.2645    0.9076 O.3       1 RES1    0.0000
      9 N1         7.2389   12.0030    5.5630 N.pl3     1 RES1    0.0000
     10 N2         5.7007    8.6814    2.3090 N.pl3     1 RES1    0.0000
     11 C1         7.5236   10.8196    4.7294 C.ar      1 RES1    0.0000
     12 C2         6.5165   10.3558    3.9005 C.ar      1 RES1    0.0000
     13 C3         6.7775    9.2174    3.1722 C.ar      1 RES1    0.0000
     14 C4         7.9895    8.5537    3.2271 C.ar      1 RES1    0.0000
     15 C5         8.9960    9.0651    4.0503 C.ar      1 RES1    0.0000
     16 C6         8.7608   10.2042    4.8207 C.ar      1 RES1    0.0000
     17 C7        10.3556    8.4403    4.1041 C.2       1 RES1    0.0000
     18 C8        11.6686    6.5887    3.3846 C.3       1 RES1    0.0000
     19 C9        11.4124    5.3369    2.5828 C.3       1 RES1    0.0000
     20 C10       12.6938    4.6643    2.1323 C.3       1 RES1    0.0000
     21 C11       12.4719    3.4201    1.2815 C.ar      1 RES1    0.0000
     22 C12       11.2060    2.9130    0.9632 C.ar      1 RES1    0.0000
     23 C13       11.0512    1.7893    0.1681 C.ar      1 RES1    0.0000
     24 C14       12.1634    1.1389   -0.3268 C.ar      1 RES1    0.0000
     25 C15       13.4376    1.6310   -0.0455 C.ar      1 RES1    0.0000
     26 C16       13.5800    2.7710    0.7318 C.ar      1 RES1    0.0000
     27 C17       15.3721    3.2281    2.2630 C.3       1 RES1    0.0000
     28 C18       16.8919    3.2030    2.1685 C.3       1 RES1    0.0000
     29 C19       17.5246    3.2197    3.5469 C.3       1 RES1    0.0000
     30 C20       17.0506    4.3999    4.3767 C.3       1 RES1    0.0000
     31 C21       15.5246    4.3902    4.4747 C.3       1 RES1    0.0000
     32 C22       14.8841    4.3883    3.0964 C.3       1 RES1    0.0000
     33 H1         5.6809   10.8029    3.8375 H         1 RES1    0.0000
     34 H2         8.1338    7.7655    2.7159 H         1 RES1    0.0000
     35 H3         9.4331   10.5489    5.3944 H         1 RES1    0.0000
     36 H4        12.0394    6.3636    4.2740 H         1 RES1    0.0000
     37 H5        12.3083    7.1797    2.9143 H         1 RES1    0.0000
     38 H6        10.8708    5.5676    1.7869 H         1 RES1    0.0000
     39 H7        10.8890    4.7013    3.1325 H         1 RES1    0.0000
     40 H8        13.2095    5.3223    1.5838 H         1 RES1    0.0000
     41 H9        10.4334    3.3503    1.3025 H         1 RES1    0.0000
     42 H10       10.1800    1.4667   -0.0373 H         1 RES1    0.0000
     43 H11       12.0600    0.3573   -0.8590 H         1 RES1    0.0000
     44 H12       14.2051    1.1879   -0.3863 H         1 RES1    0.0000
     45 H13       15.0660    2.3772    2.6914 H         1 RES1    0.0000
     46 H14       17.1779    2.3885    1.6842 H         1 RES1    0.0000
     47 H15       17.2023    3.9899    1.6538 H         1 RES1    0.0000
     48 H16       18.5098    3.2626    3.4535 H         1 RES1    0.0000
     49 H17       17.3006    2.3790    4.0184 H         1 RES1    0.0000
     50 H18       17.3522    5.2447    3.9589 H         1 RES1    0.0000
     51 H19       17.4429    4.3480    5.2847 H         1 RES1    0.0000
     52 H20       15.2323    3.5863    4.9731 H         1 RES1    0.0000
     53 H21       15.2215    5.1874    4.9766 H         1 RES1    0.0000
     54 H22       15.1275    5.2401    2.6319 H         1 RES1    0.0000
@<TRIPOS>BOND
     1    1    9 2
     2    2    9 2
     3    3   10 2
     4    4   10 2
     5    5   17 2
     6    6   17 1
     7    7   20 1
     8    8   26 1
     9    9   11 1
    10   10   13 1
    11   11   12 ar
    12   12   13 ar
    13   13   14 ar
    14   14   15 ar
    15   15   16 ar
    16   16   11 ar
    17   17   15 1
    18   18    6 1
    19   19   18 1
    20   20   19 1
    21   21   20 1
    22   22   21 ar
    23   23   22 ar
    24   24   23 ar
    25   25   24 ar
    26   26   21 ar
    27   27    8 1
    28   28   27 1
    29   29   28 1
    30   30   29 1
    31   31   30 1
    32   32    7 1
    33   33   12 1
    34   34   14 1
    35   35   16 1
    36   36   18 1
    37   37   18 1
    38   38   19 1
    39   39   19 1
    40   40   20 1
    41   41   22 1
    42   42   23 1
    43   43   24 1
    44   44   25 1
    45   45   27 1
    46   46   28 1
    47   47   28 1
    48   48   29 1
    49   49   29 1
    50   50   30 1
    51   51   30 1
    52   52   31 1
    53   53   31 1
    54   54   32 1
    55   25   26 ar
    56   27   32 1
    57   31   32 1
@<TRIPOS>SUBSTRUCTURE
     1 RES1 1

@<TRIPOS>CRYSIN
   9.3770   10.2920   12.4670  75.4940  70.7020  64.5020   2 1

