# MOL2 file generated by ConQuest
# Please check atom types

@<TRIPOS>MOLECULE
XEQXOH
    58    61     1
SMALL
USER_CHARGES
****
Generated from CSD

@<TRIPOS>ATOM
      1 O1         3.3178    2.9022    8.8204 O.2       1 RES1   -1.0000
      2 O2         4.2013    2.1389   12.2934 O.3       1 RES1    0.0000
      3 O3         0.2536    1.2572   11.4681 O.3       1 RES1    0.0000
      4 O4         1.7115    4.2930   12.5886 O.3       1 RES1    0.0000
      5 N1         2.5730    2.8939    9.8663 N.pl3     1 RES1    1.0000
      6 C1         1.8113    3.8423   10.3018 C.2       1 RES1    0.0000
      7 H1         1.6907    4.6564    9.8697 H         1 RES1    0.0000
      8 C2         1.1467    3.4705   11.5878 C.3       1 RES1    0.0000
      9 H2         0.1802    3.6223   11.5283 H         1 RES1    0.0000
     10 C3         1.4444    1.9652   11.7295 C.3       1 RES1    0.0000
     11 H3         1.7703    1.7641   12.6323 H         1 RES1    0.0000
     12 C4         2.5260    1.6533   10.6885 C.3       1 RES1    0.0000
     13 H4         2.2044    0.9219   10.1216 H         1 RES1    0.0000
     14 C5         3.8643    1.2959   11.1871 C.3       1 RES1    0.0000
     15 H5         3.8725    0.3672   11.4688 H         1 RES1    0.0000
     16 H6         4.5185    1.4052   10.4803 H         1 RES1    0.0000
     17 C6         5.4529    1.8582   12.8265 C.3       1 RES1    0.0000
     18 H7         6.1412    2.2193   12.2474 H         1 RES1    0.0000
     19 H8         5.5758    0.8976   12.8773 H         1 RES1    0.0000
     20 C7         5.5875    2.4477   14.1825 C.ar      1 RES1    0.0000
     21 C8         4.6747    3.3575   14.6829 C.ar      1 RES1    0.0000
     22 H9         3.9349    3.5972   14.1738 H         1 RES1    0.0000
     23 C9         4.8564    3.9174   15.9461 C.ar      1 RES1    0.0000
     24 H10        4.2531    4.5517   16.2611 H         1 RES1    0.0000
     25 C10        5.8937    3.5479   16.7107 C.ar      1 RES1    0.0000
     26 H11        5.9869    3.9045   17.5645 H         1 RES1    0.0000
     27 C11        6.8155    2.6511   16.2471 C.ar      1 RES1    0.0000
     28 H12        7.5435    2.4105   16.7720 H         1 RES1    0.0000
     29 C12        6.6561    2.1093   14.9908 C.ar      1 RES1    0.0000
     30 H13        7.2841    1.4993   14.6777 H         1 RES1    0.0000
     31 C13        1.0278    4.2611   13.8378 C.3       1 RES1    0.0000
     32 H14        1.2841    3.4690   14.3347 H         1 RES1    0.0000
     33 H15        0.0693    4.2323   13.6891 H         1 RES1    0.0000
     34 C14        1.3900    5.4979   14.6164 C.ar      1 RES1    0.0000
     35 C15        0.5277    5.9220   15.6347 C.ar      1 RES1    0.0000
     36 H16       -0.2368    5.4334   15.8377 H         1 RES1    0.0000
     37 C16        0.8293    7.0882   16.3398 C.ar      1 RES1    0.0000
     38 H17        0.2686    7.3652   17.0274 H         1 RES1    0.0000
     39 C17        1.9200    7.8197   16.0389 C.ar      1 RES1    0.0000
     40 H18        2.1011    8.6012   16.5095 H         1 RES1    0.0000
     41 C18        2.7577    7.4115   15.0433 C.ar      1 RES1    0.0000
     42 H19        3.5158    7.9100   14.8439 H         1 RES1    0.0000
     43 C19        2.4810    6.2529   14.3295 C.ar      1 RES1    0.0000
     44 H20        3.0522    5.9911   13.6436 H         1 RES1    0.0000
     45 C20        0.3447   -0.1176   11.8660 C.3       1 RES1    0.0000
     46 H21        0.3416   -0.1813   12.8335 H         1 RES1    0.0000
     47 H22        1.1739   -0.5000   11.5388 H         1 RES1    0.0000
     48 C21       -0.8117   -0.8665   11.3079 C.ar      1 RES1    0.0000
     49 C22       -1.7264   -1.4985   12.1407 C.ar      1 RES1    0.0000
     50 H23       -1.6354   -1.4530   13.0645 H         1 RES1    0.0000
     51 C23       -2.7996   -2.2125   11.5546 C.ar      1 RES1    0.0000
     52 H24       -3.4209   -2.6427   12.0969 H         1 RES1    0.0000
     53 C24       -2.9216   -2.2702   10.2283 C.ar      1 RES1    0.0000
     54 H25       -3.6434   -2.7269    9.8592 H         1 RES1    0.0000
     55 C25       -2.0181   -1.6768    9.3973 C.ar      1 RES1    0.0000
     56 H26       -2.1127   -1.7466    8.4752 H         1 RES1    0.0000
     57 C26       -0.9747   -0.9811    9.9309 C.ar      1 RES1    0.0000
     58 H27       -0.3603   -0.5744    9.3640 H         1 RES1    0.0000
@<TRIPOS>BOND
     1    1    5 1
     2    2   14 1
     3    3   10 1
     4    4    8 1
     5    5    6 2
     6    6    7 1
     7    8    6 1
     8    9    8 1
     9   10    8 1
    10   11   10 1
    11   12    5 1
    12   13   12 1
    13   14   12 1
    14   15   14 1
    15   16   14 1
    16   17    2 1
    17   18   17 1
    18   19   17 1
    19   20   17 1
    20   21   20 ar
    21   22   21 1
    22   23   21 ar
    23   24   23 1
    24   25   23 ar
    25   26   25 1
    26   27   25 ar
    27   28   27 1
    28   29   20 ar
    29   30   29 1
    30   31    4 1
    31   32   31 1
    32   33   31 1
    33   34   31 1
    34   35   34 ar
    35   36   35 1
    36   37   35 ar
    37   38   37 1
    38   39   37 ar
    39   40   39 1
    40   41   39 ar
    41   42   41 1
    42   43   34 ar
    43   44   43 1
    44   45    3 1
    45   46   45 1
    46   47   45 1
    47   48   45 1
    48   49   48 ar
    49   50   49 1
    50   51   49 ar
    51   52   51 1
    52   53   51 ar
    53   54   53 1
    54   55   53 ar
    55   56   55 1
    56   57   48 ar
    57   58   57 1
    58   10   12 1
    59   27   29 ar
    60   41   43 ar
    61   55   57 ar
@<TRIPOS>SUBSTRUCTURE
     1 RES1 1

@<TRIPOS>CRYSIN
   8.3581    7.5875   17.7297  90.0000  99.3070  90.0000   4 1

