# MOL2 file generated by ConQuest
# Please check atom types

@<TRIPOS>MOLECULE
XERFUV
    37    38     1
SMALL
NO_CHARGES
****
Generated from CSD

@<TRIPOS>ATOM
      1 O1         6.4566   -0.6207    4.6671 O.2       1 RES1    0.0000
      2 O2        -0.6716   -0.4589    9.2150 O.3       1 RES1    0.0000
      3 O3         0.7459    0.4909   12.0790 O.2       1 RES1    0.0000
      4 N1         6.0005    1.3666    5.6540 N.am      1 RES1    0.0000
      5 N2         0.4851   -0.5521    8.4146 N.2       1 RES1    0.0000
      6 N3        -1.2709   -0.5055   12.0790 N.am      1 RES1    0.0000
      7 C1         7.8910    1.2240    4.1860 C.3       1 RES1    0.0000
      8 C2         6.7316    0.5649    4.8492 C.2       1 RES1    0.0000
      9 C3         4.8148    1.0713    6.3734 C.ar      1 RES1    0.0000
     10 C4         4.3762    2.0137    7.2749 C.ar      1 RES1    0.0000
     11 C5         3.2087    1.8245    7.9830 C.ar      1 RES1    0.0000
     12 C6         2.4513    0.6773    7.8166 C.ar      1 RES1    0.0000
     13 C7         2.9141   -0.2806    6.9197 C.ar      1 RES1    0.0000
     14 C8         4.0742   -0.0923    6.1980 C.ar      1 RES1    0.0000
     15 C9         1.1932    0.4991    8.5563 C.2       1 RES1    0.0000
     16 C10        0.6128    1.4881    9.5027 C.3       1 RES1    0.0000
     17 C11       -0.5554    0.7121   10.0737 C.3       1 RES1    0.0000
     18 C12       -0.3095    0.2194   11.4968 C.2       1 RES1    0.0000
     19 C13       -1.0088   -1.0905   13.3897 C.3       1 RES1    0.0000
     20 C14       -2.5506   -0.8172   11.4676 C.3       1 RES1    0.0000
     21 H1         6.2965    2.1691    5.7439 H         1 RES1    0.0000
     22 H2         8.3471    0.5859    3.6307 H         1 RES1    0.0000
     23 H3         8.4951    1.5576    4.8514 H         1 RES1    0.0000
     24 H4         7.5782    1.9516    3.6442 H         1 RES1    0.0000
     25 H5         4.8742    2.7880    7.4097 H         1 RES1    0.0000
     26 H6         2.9249    2.4781    8.5810 H         1 RES1    0.0000
     27 H7         2.4290   -1.0658    6.8028 H         1 RES1    0.0000
     28 H8         4.3600   -0.7413    5.5955 H         1 RES1    0.0000
     29 H9         0.3155    2.2880    9.0419 H         1 RES1    0.0000
     30 H10        1.2479    1.7331   10.1929 H         1 RES1    0.0000
     31 H11       -1.3750    1.2486   10.0355 H         1 RES1    0.0000
     32 H12       -0.1345   -0.8291   13.6887 H         1 RES1    0.0000
     33 H13       -1.0534   -2.0476   13.3267 H         1 RES1    0.0000
     34 H14       -1.6669   -0.7797   14.0169 H         1 RES1    0.0000
     35 H15       -2.6128   -0.3839   10.6133 H         1 RES1    0.0000
     36 H16       -3.2594   -0.5073   12.0363 H         1 RES1    0.0000
     37 H17       -2.6270   -1.7669   11.3529 H         1 RES1    0.0000
@<TRIPOS>BOND
     1    1    8 2
     2    2    5 1
     3    3   18 2
     4    4    8 1
     5    5   15 2
     6    6   18 1
     7    7    8 1
     8    9    4 1
     9   10    9 ar
    10   11   10 ar
    11   12   11 ar
    12   13   12 ar
    13   14    9 ar
    14   15   12 1
    15   16   15 1
    16   17    2 1
    17   18   17 1
    18   19    6 1
    19   20    6 1
    20   21    4 1
    21   22    7 1
    22   23    7 1
    23   24    7 1
    24   25   10 1
    25   26   11 1
    26   27   13 1
    27   28   14 1
    28   29   16 1
    29   30   16 1
    30   31   17 1
    31   32   19 1
    32   33   19 1
    33   34   19 1
    34   35   20 1
    35   36   20 1
    36   37   20 1
    37   13   14 ar
    38   16   17 1
@<TRIPOS>SUBSTRUCTURE
     1 RES1 1

@<TRIPOS>CRYSIN
   6.7566    9.1409   22.4810  90.0000  90.0000  90.0000  19 1

