# MOL2 file generated by ConQuest
# Please check atom types

@<TRIPOS>MOLECULE
XERJIN
    49    51     1
SMALL
NO_CHARGES
****
Generated from CSD

@<TRIPOS>ATOM
      1 O1         4.7823    9.6874    3.6818 O.2       1 RES1    0.0000
      2 O2         7.2725    7.3352    6.3478 O.3       1 RES1    0.0000
      3 O3         8.2941    8.8554    7.6599 O.2       1 RES1    0.0000
      4 O4         7.1549    2.8075   11.5016 O.2       1 RES1    0.0000
      5 O5         8.7543    3.8939   12.4521 O.2       1 RES1    0.0000
      6 N1         7.9005    3.7614   11.5743 N.pl3     1 RES1    0.0000
      7 C1         6.5616    9.2918    2.1626 C.3       1 RES1    0.0000
      8 C2         5.7484    9.0034    3.4020 C.2       1 RES1    0.0000
      9 C3         6.1343    7.8660    4.3342 C.3       1 RES1    0.0000
     10 C4         7.2804    8.3015    5.2429 C.3       1 RES1    0.0000
     11 C5         8.6781    8.3303    4.6195 C.3       1 RES1    0.0000
     12 C6         8.7676    8.5120    3.0894 C.3       1 RES1    0.0000
     13 C7         8.5983    7.2542    2.3080 C.2       1 RES1    0.0000
     14 C8         7.5899    7.0987    1.4229 C.2       1 RES1    0.0000
     15 C9         6.5181    8.0987    1.1940 C.3       1 RES1    0.0000
     16 C10        8.0165    9.7067    2.4806 C.3       1 RES1    0.0000
     17 C11        8.0359   10.9468    3.3929 C.3       1 RES1    0.0000
     18 C12        8.7238   10.1086    1.1703 C.3       1 RES1    0.0000
     19 C13        9.6067    6.1644    2.5042 C.3       1 RES1    0.0000
     20 C14        7.8278    7.7611    7.5018 C.2       1 RES1    0.0000
     21 C15        7.7976    6.6931    8.5522 C.ar      1 RES1    0.0000
     22 C16        8.4135    6.9754    9.7770 C.ar      1 RES1    0.0000
     23 C17        8.4463    6.0195   10.7711 C.ar      1 RES1    0.0000
     24 C18        7.8415    4.8039   10.5275 C.ar      1 RES1    0.0000
     25 C19        7.2063    4.4942    9.3390 C.ar      1 RES1    0.0000
     26 C20        7.1938    5.4636    8.3468 C.ar      1 RES1    0.0000
     27 H1         6.1296   10.0652    1.6992 H         1 RES1    0.0000
     28 H2         6.4115    7.0784    3.8036 H         1 RES1    0.0000
     29 H3         5.3530    7.6072    4.8849 H         1 RES1    0.0000
     30 H4         7.0734    9.2091    5.6081 H         1 RES1    0.0000
     31 H5         9.1343    7.4833    4.8540 H         1 RES1    0.0000
     32 H6         9.1869    9.0653    5.0448 H         1 RES1    0.0000
     33 H7         9.7289    8.7463    2.9422 H         1 RES1    0.0000
     34 H8         7.5660    6.2970    0.9141 H         1 RES1    0.0000
     35 H9         5.6397    7.6503    1.2812 H         1 RES1    0.0000
     36 H10        6.5914    8.4385    0.2671 H         1 RES1    0.0000
     37 H11        7.6258   11.7037    2.9240 H         1 RES1    0.0000
     38 H12        8.9627   11.1686    3.6219 H         1 RES1    0.0000
     39 H13        7.5326   10.7584    4.2125 H         1 RES1    0.0000
     40 H14        8.2124   10.8169    0.7269 H         1 RES1    0.0000
     41 H15        8.7833    9.3291    0.5779 H         1 RES1    0.0000
     42 H16        9.6260   10.4349    1.3721 H         1 RES1    0.0000
     43 H17        9.3798    5.4021    1.9318 H         1 RES1    0.0000
     44 H18        9.6044    5.8815    3.4419 H         1 RES1    0.0000
     45 H19       10.4976    6.4977    2.2662 H         1 RES1    0.0000
     46 H20        8.8088    7.8268    9.9260 H         1 RES1    0.0000
     47 H21        8.8745    6.1935   11.5997 H         1 RES1    0.0000
     48 H22        6.7936    3.6486    9.2064 H         1 RES1    0.0000
     49 H23        6.7666    5.2812    7.5181 H         1 RES1    0.0000
@<TRIPOS>BOND
     1    1    8 2
     2    2   10 1
     3    3   20 2
     4    4    6 2
     5    5    6 2
     6    6   24 1
     7    7    8 1
     8    8    9 1
     9    9   10 1
    10   10   11 1
    11   11   12 1
    12   12   13 1
    13   13   14 2
    14   14   15 1
    15   15    7 1
    16   16    7 1
    17   17   16 1
    18   18   16 1
    19   19   13 1
    20   20    2 1
    21   21   20 1
    22   22   21 ar
    23   23   22 ar
    24   24   23 ar
    25   25   24 ar
    26   26   21 ar
    27   27    7 1
    28   28    9 1
    29   29    9 1
    30   30   10 1
    31   31   11 1
    32   32   11 1
    33   33   12 1
    34   34   14 1
    35   35   15 1
    36   36   15 1
    37   37   17 1
    38   38   17 1
    39   39   17 1
    40   40   18 1
    41   41   18 1
    42   42   18 1
    43   43   19 1
    44   44   19 1
    45   45   19 1
    46   46   22 1
    47   47   23 1
    48   48   25 1
    49   49   26 1
    50   12   16 1
    51   25   26 ar
@<TRIPOS>SUBSTRUCTURE
     1 RES1 1

@<TRIPOS>CRYSIN
   7.0110    7.2920   18.3570  83.0990  83.9570  73.5640   2 1

