# MOL2 file generated by ConQuest
# Please check atom types

@<TRIPOS>MOLECULE
XERMUC
    70    52     2
SMALL
NO_CHARGES
****
Generated from CSD

@<TRIPOS>ATOM
      1 O1         0.9855    6.2607    5.7435 O.2       1 RES1    0.0000
      2 O2         2.9334    6.9437    6.1105 O.2       1 RES1    0.0000
      3 N1         1.7507    7.0117    6.2574 N.pl3     1 RES1    0.0000
      4 O3         2.2838    8.6699    7.8537 O.3       1 RES1    0.0000
      5 N2         2.7135    9.6342    6.9403 N.2       1 RES1    0.0000
      6 C1         4.3894    9.2003    9.7642 C.ar      1 RES1    0.0000
      7 H1         3.7464    8.5292    9.7403 H         1 RES1    0.0000
      8 C2         5.2884    9.2826   10.8757 C.ar      1 RES1    0.0000
      9 H2         5.2474    8.6687   11.5740 H         1 RES1    0.0000
     10 C3         6.2343   10.3209   10.8774 C.ar      1 RES1    0.0000
     11 H3         6.8210   10.4079   11.5928 H         1 RES1    0.0000
     12 C4         6.3025   11.1970    9.8428 C.ar      1 RES1    0.0000
     13 H4         6.9440   11.8693    9.8598 H         1 RES1    0.0000
     14 C5         5.4521   11.1160    8.7791 C.ar      1 RES1    0.0000
     15 C6         5.3214   11.9087    7.5771 C.ar      1 RES1    0.0000
     16 C7         6.0162   13.0316    7.1401 C.ar      1 RES1    0.0000
     17 H5         6.6632   13.4238    7.6813 H         1 RES1    0.0000
     18 C8         5.7314   13.5656    5.8801 C.ar      1 RES1    0.0000
     19 H6         6.2270   14.2868    5.5625 H         1 RES1    0.0000
     20 C9         4.7344   13.0399    5.1135 C.ar      1 RES1    0.0000
     21 H7         4.5341   13.4214    4.2905 H         1 RES1    0.0000
     22 C10        4.0155   11.9361    5.5574 C.ar      1 RES1    0.0000
     23 H8         3.3323   11.5773    5.0383 H         1 RES1    0.0000
     24 C11        4.3393   11.3734    6.8003 C.ar      1 RES1    0.0000
     25 C12        3.7212   10.2601    7.4901 C.2       1 RES1    0.0000
     26 C13        4.4670   10.0908    8.7518 C.ar      1 RES1    0.0000
     27 C14        0.0419    9.5710    5.2808 C.ar      1 RES1    0.0000
     28 H9         0.8384    9.6986    4.8198 H         1 RES1    0.0000
     29 C15       -1.1236   10.1158    4.8164 C.ar      1 RES1    0.0000
     30 H10       -1.1127   10.6320    4.0430 H         1 RES1    0.0000
     31 C16       -2.3129    9.9096    5.4788 C.ar      1 RES1    0.0000
     32 H11       -3.1024   10.2577    5.1322 H         1 RES1    0.0000
     33 C17       -2.3385    9.1944    6.6432 C.ar      1 RES1    0.0000
     34 H12       -3.1383    9.0811    7.1059 H         1 RES1    0.0000
     35 C18       -1.1670    8.6412    7.1315 C.ar      1 RES1    0.0000
     36 C19       -0.8788    7.8545    8.3215 C.ar      1 RES1    0.0000
     37 C20       -1.7000    7.4349    9.3579 C.ar      1 RES1    0.0000
     38 H13       -2.6020    7.6638    9.3733 H         1 RES1    0.0000
     39 C21       -1.1561    6.6767   10.3550 C.ar      1 RES1    0.0000
     40 H14       -1.6998    6.4026   11.0584 H         1 RES1    0.0000
     41 C22        0.1698    6.3024   10.3584 C.ar      1 RES1    0.0000
     42 H15        0.5080    5.7720   11.0430 H         1 RES1    0.0000
     43 C23        0.9999    6.7292    9.3220 C.ar      1 RES1    0.0000
     44 H16        1.8987    6.4896    9.3033 H         1 RES1    0.0000
     45 C24        0.4638    7.5076    8.3352 C.ar      1 RES1    0.0000
     46 C25        1.1437    8.1418    7.1588 C.3       1 RES1    0.0000
     47 C26        0.0198    8.8379    6.4332 C.ar      1 RES1    0.0000
     48 O4         2.0800    9.2861    7.2220 Du        2 SUP2    0.0000
     49 N3         3.0018    8.9881    8.2891 Du        2 SUP2    0.0000
     50 C27        4.9887    9.0120   10.4762 Du        2 SUP2    0.0000
     51 H17        4.3990    8.2991   10.5684 Du        2 SUP2    0.0000
     52 C28        6.0201    9.2254   11.4374 Du        2 SUP2    0.0000
     53 H18        6.1108    8.6567   12.1682 Du        2 SUP2    0.0000
     54 C29        6.8721   10.2815   11.2701 Du        2 SUP2    0.0000
     55 H19        7.5448   10.4162   11.8984 Du        2 SUP2    0.0000
     56 C30        6.7740   11.1732   10.1842 Du        2 SUP2    0.0000
     57 H20        7.3563   11.8908   10.0852 Du        2 SUP2    0.0000
     58 C31        5.7462   10.9193    9.2589 Du        2 SUP2    0.0000
     59 C32        5.3955   11.6309    8.0654 Du        2 SUP2    0.0000
     60 C33        5.9700   12.7014    7.4388 Du        2 SUP2    0.0000
     61 H21        6.7426   13.0805    7.7906 Du        2 SUP2    0.0000
     62 C34        5.4153   13.2271    6.2864 Du        2 SUP2    0.0000
     63 H22        5.7838   13.9888    5.9040 Du        2 SUP2    0.0000
     64 C35        4.2997   12.6180    5.6940 Du        2 SUP2    0.0000
     65 H23        3.9427   12.9422    4.8983 Du        2 SUP2    0.0000
     66 C36        3.7482   11.5236    6.3240 Du        2 SUP2    0.0000
     67 H24        3.0068   11.1112    5.9449 Du        2 SUP2    0.0000
     68 C37        4.2508   11.0289    7.4798 Du        2 SUP2    0.0000
     69 C38        3.9084    9.8989    8.3386 Du        2 SUP2    0.0000
     70 C39        4.8818    9.8488    9.4381 Du        2 SUP2    0.0000
@<TRIPOS>BOND
     1    1    3 2
     2    2    3 2
     3    3   46 1
     4    4    5 1
     5    5   25 2
     6    6    7 1
     7    8    6 ar
     8    9    8 1
     9   10    8 ar
    10   11   10 1
    11   12   10 ar
    12   13   12 1
    13   14   12 ar
    14   15   14 1
    15   16   15 ar
    16   17   16 1
    17   18   16 ar
    18   19   18 1
    19   20   18 ar
    20   21   20 1
    21   22   20 ar
    22   23   22 1
    23   24   15 ar
    24   25   24 1
    25   26    6 ar
    26   27   28 1
    27   29   27 ar
    28   30   29 1
    29   31   29 ar
    30   32   31 1
    31   33   31 ar
    32   34   33 1
    33   35   33 ar
    34   36   35 1
    35   37   36 ar
    36   38   37 1
    37   39   37 ar
    38   40   39 1
    39   41   39 ar
    40   42   41 1
    41   43   41 ar
    42   44   43 1
    43   45   36 ar
    44   46    4 1
    45   47   27 ar
    46   14   26 ar
    47   22   24 ar
    48   25   26 1
    49   35   47 ar
    50   43   45 ar
    51   45   46 1
    52   46   47 1
@<TRIPOS>SUBSTRUCTURE
     1 RES1 1
     2 SUP2 48

@<TRIPOS>CRYSIN
   9.8776   11.9206   17.4262  90.0000 101.5500  90.0000 231 1

