# MOL2 file generated by ConQuest
# Please check atom types

@<TRIPOS>MOLECULE
XERSOD
    27    28     1
SMALL
NO_CHARGES
****
Generated from CSD

@<TRIPOS>ATOM
      1 O1         1.4377   30.5976    3.6279 O.3       1 RES1    0.0000
      2 H1         0.8457   31.1162    3.9218 H         1 RES1    0.0000
      3 O2         0.3223   28.5820    5.0081 O.2       1 RES1    0.0000
      4 C1         4.3769   30.7362    4.3565 C.ar      1 RES1    0.0000
      5 H2         4.3791   30.2979    3.5144 H         1 RES1    0.0000
      6 N1         2.0968   29.9796    4.7054 N.am      1 RES1    0.0000
      7 C2         2.2889   28.1492    6.2777 C.ar      1 RES1    0.0000
      8 C3         3.2532   30.6704    5.1782 C.ar      1 RES1    0.0000
      9 C4         1.4794   28.9288    5.2899 C.2       1 RES1    0.0000
     10 C5         3.2291   31.3184    6.4056 C.ar      1 RES1    0.0000
     11 H3         2.4583   31.2739    6.9594 H         1 RES1    0.0000
     12 C6         1.7063   27.8131    7.5023 C.ar      1 RES1    0.0000
     13 H4         0.8383   28.1307    7.7181 H         1 RES1    0.0000
     14 C7         3.5533   27.6761    5.9600 C.ar      1 RES1    0.0000
     15 H5         3.9550   27.9064    5.1308 H         1 RES1    0.0000
     16 C8         2.3952   27.0144    8.4039 C.ar      1 RES1    0.0000
     17 H6         2.0071   26.8001    9.2436 H         1 RES1    0.0000
     18 C9         3.6591   26.5258    8.0746 C.ar      1 RES1    0.0000
     19 H7         4.1251   25.9635    8.6822 H         1 RES1    0.0000
     20 C10        4.3441   32.0316    6.8107 C.ar      1 RES1    0.0000
     21 H8         4.3421   32.4772    7.6498 H         1 RES1    0.0000
     22 C11        4.2299   26.8604    6.8622 C.ar      1 RES1    0.0000
     23 H9         5.0941   26.5303    6.6417 H         1 RES1    0.0000
     24 C12        5.4679   32.0986    5.9901 C.ar      1 RES1    0.0000
     25 H10        6.2284   32.5984    6.2679 H         1 RES1    0.0000
     26 C13        5.4832   31.4418    4.7731 C.ar      1 RES1    0.0000
     27 H11        6.2579   31.4769    4.2239 H         1 RES1    0.0000
@<TRIPOS>BOND
     1    1    2 1
     2    3    9 2
     3    4    5 1
     4    6    1 1
     5    7    9 1
     6    8    4 ar
     7    9    6 1
     8   10    8 ar
     9   11   10 1
    10   12    7 ar
    11   13   12 1
    12   14    7 ar
    13   15   14 1
    14   16   12 ar
    15   17   16 1
    16   18   16 ar
    17   19   18 1
    18   20   10 ar
    19   21   20 1
    20   22   14 ar
    21   23   22 1
    22   24   20 ar
    23   25   24 1
    24   26    4 ar
    25   27   26 1
    26    6    8 1
    27   18   22 ar
    28   24   26 ar
@<TRIPOS>SUBSTRUCTURE
     1 RES1 1

@<TRIPOS>CRYSIN
  24.6570   30.3100    5.7870  90.0000  90.0000  90.0000  43 1

