# MOL2 file generated by ConQuest
# Please check atom types

@<TRIPOS>MOLECULE
XESBAZ
    53    56     1
SMALL
NO_CHARGES
****
Generated from CSD

@<TRIPOS>ATOM
      1 O1         4.9245    5.7518    8.5028 O.2       1 RES1    0.0000
      2 C1         1.6106    4.3087    8.6260 C.3       1 RES1    0.0000
      3 H1         1.2335    5.1494    8.2944 H         1 RES1    0.0000
      4 N1         1.8126    3.4383    7.4519 N.pl3     1 RES1    0.0000
      5 C2         0.6286    3.7491    9.6192 C.ar      1 RES1    0.0000
      6 C3         2.9615    4.6561    9.2982 C.3       1 RES1    0.0000
      7 H2         3.2273    3.8620    9.8092 H         1 RES1    0.0000
      8 C4         2.7990    5.7647   10.2966 C.ar      1 RES1    0.0000
      9 C5         3.5132    1.7153    7.9511 C.ar      1 RES1    0.0000
     10 C6         4.0819    4.9162    8.2918 C.2       1 RES1    0.0000
     11 C7         2.6911    0.6059    7.9655 C.ar      1 RES1    0.0000
     12 H3         1.9262    0.6017    7.4362 H         1 RES1    0.0000
     13 C8        -0.5246    4.4482    9.9206 C.ar      1 RES1    0.0000
     14 H4        -0.7126    5.2346    9.4619 H         1 RES1    0.0000
     15 C9         0.8595    2.5754   10.3032 C.ar      1 RES1    0.0000
     16 H5         1.6279    2.0839   10.1237 H         1 RES1    0.0000
     17 C10       -0.0373    2.1183   11.2532 C.ar      1 RES1    0.0000
     18 H6         0.1323    1.3143   11.6882 H         1 RES1    0.0000
     19 C11        3.0943    5.5803   11.6240 C.ar      1 RES1    0.0000
     20 H7         3.3780    4.7428   11.9149 H         1 RES1    0.0000
     21 O2        -0.1591    3.9630    6.7784 O.2       1 RES1    0.0000
     22 C12       -1.1744    2.8284   11.5650 C.ar      1 RES1    0.0000
     23 C13        3.1390    2.8991    7.0824 C.3       1 RES1    0.0000
     24 H8         3.0666    2.5666    6.1638 H         1 RES1    0.0000
     25 C14        2.3866    7.0125    9.9022 C.ar      1 RES1    0.0000
     26 H9         2.1908    7.1640    9.0060 H         1 RES1    0.0000
     27 C15        2.9740   -0.4864    8.7386 C.ar      1 RES1    0.0000
     28 H10        2.4019   -1.2192    8.7242 H         1 RES1    0.0000
     29 C16        4.9425    0.5667    9.4895 C.ar      1 RES1    0.0000
     30 H11        5.7218    0.5585    9.9966 H         1 RES1    0.0000
     31 C17        4.1040    4.0846    7.0522 C.3       1 RES1    0.0000
     32 H12        5.0042    3.7511    6.9160 H         1 RES1    0.0000
     33 H13        3.8817    4.6479    6.2949 H         1 RES1    0.0000
     34 C18        4.6644    1.6626    8.7046 C.ar      1 RES1    0.0000
     35 H14        5.2607    2.3764    8.6823 H         1 RES1    0.0000
     36 C19        4.0987   -0.5155    9.5419 C.ar      1 RES1    0.0000
     37 N2         0.8838    3.3480    6.5202 N.2       1 RES1    0.0000
     38 C20        2.2565    8.0446   10.8037 C.ar      1 RES1    0.0000
     39 H15        1.9652    8.8807   10.5181 H         1 RES1    0.0000
     40 C21       -1.3951    4.0047   10.8771 C.ar      1 RES1    0.0000
     41 H16       -2.1538    4.5074   11.0684 H         1 RES1    0.0000
     42 C22        2.9808    6.5991   12.5295 C.ar      1 RES1    0.0000
     43 H17        3.1911    6.4512   13.4231 H         1 RES1    0.0000
     44 C23       -2.1377    2.3346   12.6146 C.3       1 RES1    0.0000
     45 H18       -3.0216    2.2902   12.2412 H         1 RES1    0.0000
     46 H19       -2.1350    2.9373   13.3615 H         1 RES1    0.0000
     47 H20       -1.8706    1.4599   12.9081 H         1 RES1    0.0000
     48 C24        2.5570    7.8386   12.1232 C.ar      1 RES1    0.0000
     49 H21        2.4735    8.5306   12.7378 H         1 RES1    0.0000
     50 C25        4.3801   -1.6904   10.4368 C.3       1 RES1    0.0000
     51 H22        5.3048   -1.9382   10.3595 H         1 RES1    0.0000
     52 H23        3.8284   -2.4311   10.1761 H         1 RES1    0.0000
     53 H24        4.1880   -1.4535   11.3475 H         1 RES1    0.0000
@<TRIPOS>BOND
     1    1   10 2
     2    2    3 1
     3    4    2 1
     4    5    2 1
     5    6    2 1
     6    7    6 1
     7    8    6 1
     8    9   11 ar
     9   10    6 1
    10   11   12 1
    11   13    5 ar
    12   14   13 1
    13   15    5 ar
    14   16   15 1
    15   17   15 ar
    16   18   17 1
    17   19    8 ar
    18   20   19 1
    19   21   37 2
    20   22   17 ar
    21   23    4 1
    22   24   23 1
    23   25    8 ar
    24   26   25 1
    25   27   11 ar
    26   28   27 1
    27   29   30 1
    28   31   10 1
    29   32   31 1
    30   33   31 1
    31   34    9 ar
    32   35   34 1
    33   36   27 ar
    34   37    4 1
    35   38   25 ar
    36   39   38 1
    37   40   13 ar
    38   41   40 1
    39   42   19 ar
    40   43   42 1
    41   44   22 1
    42   45   44 1
    43   46   44 1
    44   47   44 1
    45   48   38 ar
    46   49   48 1
    47   50   36 1
    48   51   50 1
    49   52   50 1
    50   53   50 1
    51    9   23 1
    52   22   40 ar
    53   23   31 1
    54   29   34 ar
    55   29   36 ar
    56   42   48 ar
@<TRIPOS>SUBSTRUCTURE
     1 RES1 1

@<TRIPOS>CRYSIN
   8.0968   10.0788   13.1960  83.2090  88.4810  78.2350   2 1

