# MOL2 file generated by ConQuest
# Please check atom types

@<TRIPOS>MOLECULE
XESCEG
    51    52     1
SMALL
NO_CHARGES
****
Generated from CSD

@<TRIPOS>ATOM
      1 C1        -1.5651    7.2916    7.0661 C.3       1 RES1    0.0000
      2 H1        -1.6755    7.8326    6.2801 H         1 RES1    0.0000
      3 H2        -1.2707    7.8422    7.7951 H         1 RES1    0.0000
      4 H3        -2.4038    6.8819    7.2927 H         1 RES1    0.0000
      5 C2        -0.5389    6.2191    6.7990 C.ar      1 RES1    0.0000
      6 C3        -0.2047    5.2991    7.7711 C.ar      1 RES1    0.0000
      7 H4        -0.6256    5.3452    8.6008 H         1 RES1    0.0000
      8 C4         0.7325    4.3120    7.5466 C.ar      1 RES1    0.0000
      9 H5         0.9408    3.7115    8.2253 H         1 RES1    0.0000
     10 C5         1.3679    4.2074    6.3151 C.ar      1 RES1    0.0000
     11 C6         1.0281    5.1332    5.3365 C.ar      1 RES1    0.0000
     12 H6         1.4373    5.0871    4.5035 H         1 RES1    0.0000
     13 C7         0.0986    6.1116    5.5741 C.ar      1 RES1    0.0000
     14 H7        -0.1069    6.7160    4.8986 H         1 RES1    0.0000
     15 C8         2.3781    3.1637    6.0086 C.2       1 RES1    0.0000
     16 C9         3.1378    2.5584    7.1985 C.3       1 RES1    0.0000
     17 H8         2.5044    2.2467    7.8783 H         1 RES1    0.0000
     18 C10        3.0967   -0.6715    7.1843 C.3       1 RES1    0.0000
     19 C11        3.1066   -1.7891    8.2002 C.3       1 RES1    0.0000
     20 H9         2.6457   -2.5594    7.8313 H         1 RES1    0.0000
     21 H10        2.6235   -1.5042    8.9916 H         1 RES1    0.0000
     22 C12        4.5600   -2.2016    8.6052 C.3       1 RES1    0.0000
     23 H11        4.5249   -2.8971    9.2817 H         1 RES1    0.0000
     24 H12        5.0249   -2.5565    7.8324 H         1 RES1    0.0000
     25 C13        5.2933   -1.0341    9.1328 C.3       1 RES1    0.0000
     26 H13        6.2040   -1.3008    9.3386 H         1 RES1    0.0000
     27 H14        4.8747   -0.7473    9.9604 H         1 RES1    0.0000
     28 C14        5.3309    0.1660    8.1421 C.3       1 RES1    0.0000
     29 C15        3.5318   -1.1809    5.7963 C.3       1 RES1    0.0000
     30 H15        3.5237   -0.4518    5.1712 H         1 RES1    0.0000
     31 H16        2.9238   -1.8629    5.5007 H         1 RES1    0.0000
     32 H17        4.4175   -1.5445    5.8521 H         1 RES1    0.0000
     33 C16        1.6510   -0.1544    7.0792 C.3       1 RES1    0.0000
     34 H18        1.6110    0.5593    6.4388 H         1 RES1    0.0000
     35 H19        1.3637    0.1688    7.9363 H         1 RES1    0.0000
     36 H20        1.0753   -0.8691    6.7979 H         1 RES1    0.0000
     37 C17        5.8400    1.3612    8.9314 C.3       1 RES1    0.0000
     38 H21        5.8771    2.1306    8.3578 H         1 RES1    0.0000
     39 H22        6.7158    1.1703    9.2708 H         1 RES1    0.0000
     40 H23        5.2445    1.5368    9.6637 H         1 RES1    0.0000
     41 C18        6.2871   -0.0911    6.9632 C.3       1 RES1    0.0000
     42 H24        5.9767   -0.8451    6.4575 H         1 RES1    0.0000
     43 H25        7.1689   -0.2715    7.2993 H         1 RES1    0.0000
     44 H26        6.3136    0.6849    6.3972 H         1 RES1    0.0000
     45 N1         2.6632    2.8213    4.8428 N.2       1 RES1    0.0000
     46 H27        2.8753    2.5661    3.9736 H         1 RES1    0.0000
     47 N2         4.0197    3.6875    7.7732 N.pl3     1 RES1    0.0000
     48 N3         3.9053    0.4307    7.7886 N.3       1 RES1    0.0000
     49 O1         3.7899    4.0453    8.9216 O.2       1 RES1    0.0000
     50 O2         4.8813    4.1384    7.0530 O.2       1 RES1    0.0000
     51 O3         3.9308    1.5118    6.7738 O.3       1 RES1    0.0000
@<TRIPOS>BOND
     1    1    2 1
     2    3    1 1
     3    4    1 1
     4    5    1 1
     5    6    5 ar
     6    7    6 1
     7    8    6 ar
     8    9    8 1
     9   10    8 ar
    10   11   10 ar
    11   12   11 1
    12   13    5 ar
    13   14   13 1
    14   15   10 1
    15   16   15 1
    16   17   16 1
    17   18   19 1
    18   19   20 1
    19   21   19 1
    20   22   19 1
    21   23   22 1
    22   24   22 1
    23   25   22 1
    24   26   25 1
    25   27   25 1
    26   28   25 1
    27   29   18 1
    28   30   29 1
    29   31   29 1
    30   32   29 1
    31   33   18 1
    32   34   33 1
    33   35   33 1
    34   36   33 1
    35   37   28 1
    36   38   37 1
    37   39   37 1
    38   40   37 1
    39   41   28 1
    40   42   41 1
    41   43   41 1
    42   44   41 1
    43   45   15 2
    44   46   45 1
    45   47   16 1
    46   48   18 1
    47   49   47 2
    48   50   47 2
    49   51   16 1
    50   11   13 ar
    51   28   48 1
    52   48   51 1
@<TRIPOS>SUBSTRUCTURE
     1 RES1 1

@<TRIPOS>CRYSIN
  17.6776    9.5929   11.2126  90.0000 102.5030  90.0000  14 1

