# MOL2 file generated by ConQuest
# Please check atom types

@<TRIPOS>MOLECULE
XESLUE
    56    59     1
SMALL
NO_CHARGES
****
Generated from CSD

@<TRIPOS>ATOM
      1 C1         7.4927    5.7247    0.1744 C.2       1 RES1    0.0000
      2 C2         8.8187    5.8327    0.9186 C.3       1 RES1    0.0000
      3 H1         9.0089    6.8094    1.0190 H         1 RES1    0.0000
      4 C3         8.7698    5.2535    2.3343 C.3       1 RES1    0.0000
      5 H2         8.5919    4.2743    2.2382 H         1 RES1    0.0000
      6 C4         7.5681    5.8482    3.0960 C.3       1 RES1    0.0000
      7 H3         7.5119    5.3975    3.9869 H         1 RES1    0.0000
      8 C5         6.2500    5.6086    2.3610 C.3       1 RES1    0.0000
      9 H4         6.0033    4.6523    2.5185 H         1 RES1    0.0000
     10 C6         5.1179    6.4528    2.9374 C.ar      1 RES1    0.0000
     11 C7         4.9014    6.4168    4.3239 C.ar      1 RES1    0.0000
     12 H5         5.4193    5.8335    4.8657 H         1 RES1    0.0000
     13 C8         3.9431    7.2201    4.9075 C.ar      1 RES1    0.0000
     14 C9         3.1994    8.1110    4.1034 C.ar      1 RES1    0.0000
     15 C10        3.3740    8.0995    2.7365 C.ar      1 RES1    0.0000
     16 H6         2.8451    8.6705    2.1914 H         1 RES1    0.0000
     17 C11        4.3209    7.2561    2.1392 C.ar      1 RES1    0.0000
     18 C12        4.4257    7.1947    0.6352 C.3       1 RES1    0.0000
     19 H7         4.9679    7.9564    0.3070 H         1 RES1    0.0000
     20 H8         3.5232    7.2635    0.2358 H         1 RES1    0.0000
     21 C13        5.0721    5.8908    0.2154 C.3       1 RES1    0.0000
     22 H9         4.4901    5.1284    0.4605 H         1 RES1    0.0000
     23 H10        5.2086    5.8793   -0.7653 H         1 RES1    0.0000
     24 C14        9.8904    5.2797    0.0016 C.2       1 RES1    0.0000
     25 C15       10.6980    3.3139   -1.0158 C.3       1 RES1    0.0000
     26 H11       10.1536    3.1462   -1.8132 H         1 RES1    0.0000
     27 H12       11.0510    2.4640   -0.6763 H         1 RES1    0.0000
     28 H13       11.4426    3.9078   -1.2459 H         1 RES1    0.0000
     29 C16       10.0630    5.3852    3.1219 C.ar      1 RES1    0.0000
     30 C17       10.9937    6.3775    2.8580 C.ar      1 RES1    0.0000
     31 H14       10.8350    7.0009    2.1581 H         1 RES1    0.0000
     32 C18       12.1628    6.4659    3.6144 C.ar      1 RES1    0.0000
     33 H15       12.8001    7.1424    3.4218 H         1 RES1    0.0000
     34 C19       12.3963    5.5734    4.6423 C.ar      1 RES1    0.0000
     35 H16       13.1918    5.6355    5.1571 H         1 RES1    0.0000
     36 C20       11.4653    4.5901    4.9197 C.ar      1 RES1    0.0000
     37 H17       11.6179    3.9790    5.6310 H         1 RES1    0.0000
     38 C21       10.3085    4.4944    4.1602 C.ar      1 RES1    0.0000
     39 H18        9.6774    3.8113    4.3517 H         1 RES1    0.0000
     40 C22        4.3594    6.3129    7.0687 C.3       1 RES1    0.0000
     41 H19        4.2251    5.4049    6.7256 H         1 RES1    0.0000
     42 H20        4.0268    6.3652    7.9893 H         1 RES1    0.0000
     43 H21        5.3143    6.5297    7.0527 H         1 RES1    0.0000
     44 C23        1.6466    9.9090    3.9931 C.3       1 RES1    0.0000
     45 H22        2.2991   10.4948    3.5575 H         1 RES1    0.0000
     46 H23        1.0664   10.4432    4.5742 H         1 RES1    0.0000
     47 H24        1.1021    9.4616    3.3127 H         1 RES1    0.0000
     48 N1         6.3606    5.7820    0.9042 N.am      1 RES1    0.0000
     49 N2         7.7985    7.3240    3.3314 N.pl3     1 RES1    0.0000
     50 O1         7.4996    5.6756   -1.0488 O.2       1 RES1    0.0000
     51 O2         9.8688    3.9471    0.0182 O.3       1 RES1    0.0000
     52 O3        10.6428    5.9448   -0.6492 O.2       1 RES1    0.0000
     53 O4         7.6740    8.0930    2.3863 O.2       1 RES1    0.0000
     54 O5         8.0969    7.6717    4.4570 O.2       1 RES1    0.0000
     55 O6         3.6413    7.2479    6.2446 O.3       1 RES1    0.0000
     56 O7         2.3336    8.9274    4.7756 O.3       1 RES1    0.0000
@<TRIPOS>BOND
     1    1    2 1
     2    2    3 1
     3    4    2 1
     4    5    4 1
     5    6    4 1
     6    7    6 1
     7    8    6 1
     8    9    8 1
     9   10    8 1
    10   11   10 ar
    11   12   11 1
    12   13   11 ar
    13   14   13 ar
    14   15   14 ar
    15   16   15 1
    16   17   10 ar
    17   18   17 1
    18   19   18 1
    19   20   18 1
    20   21   18 1
    21   22   21 1
    22   23   21 1
    23   24    2 1
    24   25   26 1
    25   27   25 1
    26   28   25 1
    27   29    4 1
    28   30   29 ar
    29   31   30 1
    30   32   30 ar
    31   33   32 1
    32   34   32 ar
    33   35   34 1
    34   36   34 ar
    35   37   36 1
    36   38   29 ar
    37   39   38 1
    38   40   41 1
    39   42   40 1
    40   43   40 1
    41   44   45 1
    42   46   44 1
    43   47   44 1
    44   48    1 1
    45   49    6 1
    46   50    1 2
    47   51   24 1
    48   52   24 2
    49   53   49 2
    50   54   49 2
    51   55   13 1
    52   56   14 1
    53    8   48 1
    54   15   17 ar
    55   21   48 1
    56   25   51 1
    57   36   38 ar
    58   40   55 1
    59   44   56 1
@<TRIPOS>SUBSTRUCTURE
     1 RES1 1

@<TRIPOS>CRYSIN
  12.1135    8.1805   22.5942  90.0000 100.0410  90.0000  14 1

