# MOL2 file generated by ConQuest
# Please check atom types

@<TRIPOS>MOLECULE
XESMOZ
    37    38     1
SMALL
NO_CHARGES
****
Generated from CSD

@<TRIPOS>ATOM
      1 O1         4.5010    1.0359    6.0216 O.2       1 RES1    0.0000
      2 C1         4.2531    2.1624    6.3720 C.2       1 RES1    0.0000
      3 O2         4.1368    3.1946    5.5331 O.3       1 RES1    0.0000
      4 C2         4.3026    2.8961    4.1236 C.3       1 RES1    0.0000
      5 C3         3.9850    2.6131    7.8105 C.3       1 RES1    0.0000
      6 C4         4.1573    1.4033    8.7687 C.3       1 RES1    0.0000
      7 C5         3.6271    1.6447   10.1576 C.2       1 RES1    0.0000
      8 C6         2.6173    0.9625   10.7385 C.2       1 RES1    0.0000
      9 O3         2.4074    1.3942   12.0216 O.3       1 RES1    0.0000
     10 C7         3.3227    2.3840   12.2380 C.2       1 RES1    0.0000
     11 C8         4.0852    2.5781   11.1476 C.2       1 RES1    0.0000
     12 C9         5.6183    0.9282    8.8468 C.3       1 RES1    0.0000
     13 N1         5.6390   -0.4100    9.5195 N.pl3     1 RES1    0.0000
     14 O4         6.1975   -0.5008   10.6014 O.2       1 RES1    0.0000
     15 O5         5.0901   -1.3408    8.9567 O.2       1 RES1    0.0000
     16 C10        4.9182    3.8031    8.1028 C.2       1 RES1    0.0000
     17 O6         6.1351    3.7111    8.2799 O.2       1 RES1    0.0000
     18 N2         4.2091    4.9336    8.0821 N.am      1 RES1    0.0000
     19 C11        2.8095    4.7610    7.7224 C.3       1 RES1    0.0000
     20 C12        2.5754    3.2540    7.8805 C.3       1 RES1    0.0000
     21 C13        4.8297    6.2460    8.0977 C.3       1 RES1    0.0000
     22 H1         4.2347    3.7554    3.6698 H         1 RES1    0.0000
     23 H2         5.1786    2.4883    3.9768 H         1 RES1    0.0000
     24 H3         3.5725    2.3068    3.8297 H         1 RES1    0.0000
     25 H4         3.6545    0.6566    8.3677 H         1 RES1    0.0000
     26 H5         2.0719    0.2520   10.3554 H         1 RES1    0.0000
     27 H6         3.3363    2.8339   13.0899 H         1 RES1    0.0000
     28 H7         4.7947    3.2270   11.0536 H         1 RES1    0.0000
     29 H8         6.1598    1.5192    9.3887 H         1 RES1    0.0000
     30 H9         5.9933    0.8136    7.9436 H         1 RES1    0.0000
     31 H10        2.2184    5.2861    8.3177 H         1 RES1    0.0000
     32 H11        2.6726    5.0457    6.7870 H         1 RES1    0.0000
     33 H12        2.1835    3.0671    8.7604 H         1 RES1    0.0000
     34 H13        2.0001    2.9044    7.1739 H         1 RES1    0.0000
     35 H14        4.3329    6.8312    8.6761 H         1 RES1    0.0000
     36 H15        5.7451    6.1444    8.4205 H         1 RES1    0.0000
     37 H16        4.8461    6.6181    7.1954 H         1 RES1    0.0000
@<TRIPOS>BOND
     1    1    2 2
     2    2    3 1
     3    3    4 1
     4    4   22 1
     5    5    2 1
     6    6    5 1
     7    7    6 1
     8    8    7 2
     9    9    8 1
    10   10    9 1
    11   11    7 1
    12   12    6 1
    13   13   12 1
    14   14   13 2
    15   15   13 2
    16   16    5 1
    17   17   16 2
    18   18   16 1
    19   19   18 1
    20   20    5 1
    21   21   18 1
    22   23    4 1
    23   24    4 1
    24   25    6 1
    25   26    8 1
    26   27   10 1
    27   28   11 1
    28   29   12 1
    29   30   12 1
    30   31   19 1
    31   32   19 1
    32   33   20 1
    33   34   20 1
    34   35   21 1
    35   36   21 1
    36   37   21 1
    37   10   11 2
    38   19   20 1
@<TRIPOS>SUBSTRUCTURE
     1 RES1 1

@<TRIPOS>CRYSIN
   6.6527   14.3997   14.2861  90.0000  91.7612  90.0000 231 1

