# MOL2 file generated by ConQuest
# Please check atom types

@<TRIPOS>MOLECULE
XESMIT
    53    57     1
SMALL
NO_CHARGES
****
Generated from CSD

@<TRIPOS>ATOM
      1 O1         3.2380   -0.3258    4.9611 O.2       1 RES1    0.0000
      2 O2         5.6332   -0.7509    2.6552 O.2       1 RES1    0.0000
      3 O3         7.8037    4.0268    6.0833 O.2       1 RES1    0.0000
      4 O4         8.5883    2.0098    5.9327 O.2       1 RES1    0.0000
      5 N1         4.7304    0.5426    6.4188 N.am      1 RES1    0.0000
      6 N2         3.8474    0.5122    1.9916 N.am      1 RES1    0.0000
      7 N3         7.6688    2.8188    5.9215 N.pl3     1 RES1    0.0000
      8 C1         4.2246    0.3766    5.1813 C.2       1 RES1    0.0000
      9 C2         4.8456    1.1426    4.0128 C.3       1 RES1    0.0000
     10 C3         6.2944    1.5895    4.3215 C.3       1 RES1    0.0000
     11 H1         6.8400    0.7590    4.4344 H         1 RES1    0.0000
     12 C4         6.2706    2.3007    5.6788 C.3       1 RES1    0.0000
     13 H2         5.6158    3.0563    5.6658 H         1 RES1    0.0000
     14 C5         5.9266    1.3124    6.8056 C.3       1 RES1    0.0000
     15 H3         6.6878    0.6700    6.8924 H         1 RES1    0.0000
     16 C6         5.7273    1.9862    8.1658 C.ar      1 RES1    0.0000
     17 C7         6.7784    2.7054    8.7364 C.ar      1 RES1    0.0000
     18 H4         7.6014    2.7765    8.2661 H         1 RES1    0.0000
     19 C8         6.6496    3.3159    9.9673 C.ar      1 RES1    0.0000
     20 H5         7.3798    3.8002   10.3350 H         1 RES1    0.0000
     21 C9         5.4633    3.2233   10.6625 C.ar      1 RES1    0.0000
     22 H6         5.3641    3.6534   11.5047 H         1 RES1    0.0000
     23 C10        4.4199    2.4972   10.1208 C.ar      1 RES1    0.0000
     24 H7         3.6002    2.4377   10.5984 H         1 RES1    0.0000
     25 C11        4.5403    1.8497    8.8930 C.ar      1 RES1    0.0000
     26 C12        3.4589    0.9123    8.4246 C.3       1 RES1    0.0000
     27 H8         2.7710    1.4161    7.9221 H         1 RES1    0.0000
     28 H9         3.0228    0.4845    9.2033 H         1 RES1    0.0000
     29 C13        4.0752   -0.1438    7.5351 C.3       1 RES1    0.0000
     30 H10        4.7369   -0.6754    8.0455 H         1 RES1    0.0000
     31 H11        3.3755   -0.7558    7.1961 H         1 RES1    0.0000
     32 C14        4.8476    0.1772    2.8210 C.2       1 RES1    0.0000
     33 C15        2.9890    1.5711    2.5123 C.3       1 RES1    0.0000
     34 H12        2.1619    1.1964    2.9064 H         1 RES1    0.0000
     35 H13        2.7439    2.2126    1.7984 H         1 RES1    0.0000
     36 C16        3.8470    2.2390    3.5772 C.3       1 RES1    0.0000
     37 H14        3.2926    2.5353    4.3419 H         1 RES1    0.0000
     38 H15        4.3238    3.0230    3.2054 H         1 RES1    0.0000
     39 C17        3.4918   -0.2914    0.8454 C.3       1 RES1    0.0000
     40 H16        4.2213   -0.9133    0.6430 H         1 RES1    0.0000
     41 H17        3.3363    0.2916    0.0736 H         1 RES1    0.0000
     42 H18        2.6760   -0.7976    1.0416 H         1 RES1    0.0000
     43 C18        6.9312    2.3942    3.2035 C.ar      1 RES1    0.0000
     44 C19        6.8479    3.7834    3.1159 C.ar      1 RES1    0.0000
     45 H19        6.3591    4.2687    3.7701 H         1 RES1    0.0000
     46 C20        7.4753    4.4620    2.0782 C.ar      1 RES1    0.0000
     47 H20        7.4295    5.4104    2.0381 H         1 RES1    0.0000
     48 C21        8.1664    3.7622    1.1028 C.ar      1 RES1    0.0000
     49 H21        8.5783    4.2258    0.3844 H         1 RES1    0.0000
     50 C22        8.2530    2.3813    1.1818 C.ar      1 RES1    0.0000
     51 H22        8.7215    1.8953    0.5125 H         1 RES1    0.0000
     52 C23        7.6594    1.7119    2.2321 C.ar      1 RES1    0.0000
     53 H23        7.7491    0.7686    2.2943 H         1 RES1    0.0000
@<TRIPOS>BOND
     1    1    8 2
     2    2   32 2
     3    3    7 2
     4    4    7 2
     5    5    8 1
     6    6   32 1
     7    7   12 1
     8    8    9 1
     9    9   10 1
    10   10   11 1
    11   12   10 1
    12   13   12 1
    13   14    5 1
    14   15   14 1
    15   16   14 1
    16   17   16 ar
    17   18   17 1
    18   19   17 ar
    19   20   19 1
    20   21   19 ar
    21   22   21 1
    22   23   21 ar
    23   24   23 1
    24   25   16 ar
    25   26   25 1
    26   27   26 1
    27   28   26 1
    28   29    5 1
    29   30   29 1
    30   31   29 1
    31   32    9 1
    32   33    6 1
    33   34   33 1
    34   35   33 1
    35   36    9 1
    36   37   36 1
    37   38   36 1
    38   39    6 1
    39   40   39 1
    40   41   39 1
    41   42   39 1
    42   43   10 1
    43   44   43 ar
    44   45   44 1
    45   46   44 ar
    46   47   46 1
    47   48   46 ar
    48   49   48 1
    49   50   48 ar
    50   51   50 1
    51   52   43 ar
    52   53   52 1
    53   12   14 1
    54   23   25 ar
    55   26   29 1
    56   33   36 1
    57   50   52 ar
@<TRIPOS>SUBSTRUCTURE
     1 RES1 1

@<TRIPOS>CRYSIN
  15.0761   10.7200   23.7260  90.0000  90.0000  90.0000  61 1

