# MOL2 file generated by ConQuest
# Please check atom types

@<TRIPOS>MOLECULE
XESSAS
    46    48     1
SMALL
NO_CHARGES
****
Generated from CSD

@<TRIPOS>ATOM
      1 C1         8.5902    5.6495    5.6723 C.ar      1 RES1    0.0000
      2 C2         7.7006    6.4167    4.9325 C.ar      1 RES1    0.0000
      3 C3         6.3617    6.0743    5.0390 C.ar      1 RES1    0.0000
      4 C4         5.9066    5.0342    5.8326 C.ar      1 RES1    0.0000
      5 C5         6.8386    4.3164    6.5794 C.ar      1 RES1    0.0000
      6 C6         8.2047    4.6120    6.4958 C.ar      1 RES1    0.0000
      7 N1        10.0288    5.9564    5.5504 N.pl3     1 RES1    0.0000
      8 O1        10.8262    5.2010    6.0977 O.2       1 RES1    0.0000
      9 O2        10.3519    6.9424    4.8920 O.2       1 RES1    0.0000
     10 N2         5.3752    6.8698    4.2801 N.pl3     1 RES1    0.0000
     11 O3         5.7773    7.8687    3.6943 O.2       1 RES1    0.0000
     12 O4         4.2098    6.4847    4.2819 O.2       1 RES1    0.0000
     13 C7         6.4174    3.2078    7.5056 C.2       1 RES1    0.0000
     14 O5         7.1800    2.6389    8.2445 O.2       1 RES1    0.0000
     15 O6         5.1167    2.9396    7.3793 O.3       1 RES1    0.0000
     16 C8         4.5520    1.9504    8.3344 C.3       1 RES1    0.0000
     17 C9         3.3166    1.3032    7.7065 C.3       1 RES1    0.0000
     18 C10        2.0862    1.8990    8.4539 C.3       1 RES1    0.0000
     19 C11        2.7181    2.6770    9.5738 C.2       1 RES1    0.0000
     20 C12        4.0393    2.6857    9.5240 C.2       1 RES1    0.0000
     21 C13        1.2710    2.7908    7.5441 C.2       1 RES1    0.0000
     22 O7         1.6357    3.8679    7.1574 O.2       1 RES1    0.0000
     23 O8         0.1140    2.2475    7.1721 O.3       1 RES1    0.0000
     24 C14       -0.6690    3.0595    6.2521 C.3       1 RES1    0.0000
     25 C15       -1.9446    2.3382    5.9013 C.ar      1 RES1    0.0000
     26 C16       -2.4712    1.3310    6.6791 C.ar      1 RES1    0.0000
     27 C17       -3.6649    0.6987    6.3022 C.ar      1 RES1    0.0000
     28 C18       -4.3156    1.0895    5.1524 C.ar      1 RES1    0.0000
     29 C19       -3.8010    2.1116    4.3826 C.ar      1 RES1    0.0000
     30 C20       -2.6273    2.7326    4.7546 C.ar      1 RES1    0.0000
     31 H1         7.9776    7.1211    4.3179 H         1 RES1    0.0000
     32 H2         4.9595    4.8761    5.8834 H         1 RES1    0.0000
     33 H3         8.8493    4.0626    6.9831 H         1 RES1    0.0000
     34 H4         5.2956    1.3439    8.5469 H         1 RES1    0.0000
     35 H5         3.2457    1.5704    6.7615 H         1 RES1    0.0000
     36 H6         3.3745    0.3759    7.9275 H         1 RES1    0.0000
     37 H7         1.5939    1.2306    8.7749 H         1 RES1    0.0000
     38 H8         2.2519    3.0997   10.1835 H         1 RES1    0.0000
     39 H9         4.6116    3.1357   10.1350 H         1 RES1    0.0000
     40 H10       -0.1769    3.1872    5.4338 H         1 RES1    0.0000
     41 H11       -0.8750    3.9132    6.7599 H         1 RES1    0.0000
     42 H12       -2.0273    1.0710    7.4391 H         1 RES1    0.0000
     43 H13       -4.0174    0.0154    6.9701 H         1 RES1    0.0000
     44 H14       -5.1149    0.6951    4.8193 H         1 RES1    0.0000
     45 H15       -4.2413    2.3531    3.5417 H         1 RES1    0.0000
     46 H16       -2.2572    3.5425    4.2047 H         1 RES1    0.0000
@<TRIPOS>BOND
     1    1    2 ar
     2    2    3 ar
     3    3    4 ar
     4    4    5 ar
     5    5    6 ar
     6    6    1 ar
     7    7    1 1
     8    8    7 2
     9    9    7 2
    10   10    3 1
    11   11   10 2
    12   12   10 2
    13   13    5 1
    14   14   13 2
    15   15   13 1
    16   16   15 1
    17   17   16 1
    18   18   17 1
    19   19   18 1
    20   20   16 1
    21   21   18 1
    22   22   21 2
    23   23   21 1
    24   24   23 1
    25   25   24 1
    26   26   25 ar
    27   27   26 ar
    28   28   27 ar
    29   29   28 ar
    30   30   25 ar
    31   31    2 1
    32   32    4 1
    33   33    6 1
    34   34   16 1
    35   35   17 1
    36   36   17 1
    37   37   18 1
    38   38   19 1
    39   39   20 1
    40   40   24 1
    41   41   24 1
    42   42   26 1
    43   43   27 1
    44   44   28 1
    45   45   29 1
    46   46   30 1
    47   19   20 2
    48   29   30 ar
@<TRIPOS>SUBSTRUCTURE
     1 RES1 1

@<TRIPOS>CRYSIN
  22.3370    5.1490   16.8640  90.0000 106.4700  90.0000  14 1

