# MOL2 file generated by ConQuest
# Please check atom types

@<TRIPOS>MOLECULE
XESTEV
    55    56     1
SMALL
NO_CHARGES
****
Generated from CSD

@<TRIPOS>ATOM
      1 O1        -0.8086   -3.8283  -11.7545 O.3       1 RES1    0.0000
      2 O2         0.1574   -3.9237   -9.0494 O.3       1 RES1    0.0000
      3 O3        -3.3727   -2.9069  -10.9164 O.3       1 RES1    0.0000
      4 C1        -2.4853   -3.5641   -9.9954 C.3       1 RES1    0.0000
      5 H1        -3.0216   -4.0835   -9.3613 H         1 RES1    0.0000
      6 C2        -1.5371   -4.5067  -10.7112 C.3       1 RES1    0.0000
      7 H2        -2.0383   -5.2601  -11.0888 H         1 RES1    0.0000
      8 C3        -1.7385   -2.4829   -9.2271 C.3       1 RES1    0.0000
      9 H3        -1.2740   -1.8730   -9.8362 H         1 RES1    0.0000
     10 C4         3.0089   -8.1377   -9.1205 C.ar      1 RES1    0.0000
     11 N1         1.4641   -6.3202   -9.5665 N.3       1 RES1    0.0000
     12 H4         1.7726   -5.8603   -8.9073 H         1 RES1    0.0000
     13 C5         1.8846   -7.5791   -9.7783 C.ar      1 RES1    0.0000
     14 C6         2.7750  -10.1558  -10.3112 C.ar      1 RES1    0.0000
     15 C7         1.2399   -8.4092  -10.7217 C.ar      1 RES1    0.0000
     16 H5         0.4992   -8.0855  -11.1809 H         1 RES1    0.0000
     17 O4        -2.7171   -1.7841   -8.4429 O.3       1 RES1    0.0000
     18 O5        -4.6500   -4.7407  -10.9375 O.2       1 RES1    0.0000
     19 N2         0.5087   -5.7673  -10.4467 N.3       1 RES1    0.0000
     20 C8         3.4403   -9.4032   -9.3902 C.ar      1 RES1    0.0000
     21 H6         4.1836   -9.7497   -8.9494 H         1 RES1    0.0000
     22 C9        -0.4844   -5.0212   -9.7362 C.3       1 RES1    0.0000
     23 H7        -0.9136   -5.6051   -9.0771 H         1 RES1    0.0000
     24 C10       -0.7609   -3.1532   -8.2705 C.3       1 RES1    0.0000
     25 H8        -1.2536   -3.7476   -7.6666 H         1 RES1    0.0000
     26 O6         4.8159   -7.8637   -7.7469 O.2       1 RES1    0.0000
     27 O7        -2.2510   -4.5719  -13.3110 O.2       1 RES1    0.0000
     28 C11       -4.4506   -3.6016  -11.3098 C.2       1 RES1    0.0000
     29 C12        1.6735   -9.6552  -10.9677 C.ar      1 RES1    0.0000
     30 H9         1.2266  -10.1852  -11.5874 H         1 RES1    0.0000
     31 O8         2.7330  -12.1054  -11.5611 O.2       1 RES1    0.0000
     32 O9         3.3583   -6.2965   -7.7587 O.2       1 RES1    0.0000
     33 N3         3.2372  -11.5045  -10.6191 N.pl3     1 RES1    0.0000
     34 C13       -2.7468   -0.4289   -8.5232 C.2       1 RES1    0.0000
     35 O10        4.1169  -11.9937   -9.9336 O.2       1 RES1    0.0000
     36 O11       -1.9643    0.1965   -9.1508 O.2       1 RES1    0.0000
     37 N4         3.7813   -7.3794   -8.1587 N.pl3     1 RES1    0.0000
     38 C14       -1.2251   -4.0134  -13.0360 C.2       1 RES1    0.0000
     39 C15       -0.2219   -3.4597  -13.9886 C.3       1 RES1    0.0000
     40 H10        0.6498   -3.7965  -13.7676 H         1 RES1    0.0000
     41 H11       -0.2204   -2.5016  -13.9294 H         1 RES1    0.0000
     42 H12       -0.4484   -3.7256  -14.8833 H         1 RES1    0.0000
     43 C16        0.0510   -2.1804   -7.4614 C.3       1 RES1    0.0000
     44 H13        0.6138   -2.6631   -6.8509 H         1 RES1    0.0000
     45 H14       -0.5377   -1.6055   -6.9654 H         1 RES1    0.0000
     46 H15        0.5959   -1.6512   -8.0482 H         1 RES1    0.0000
     47 C17       -5.3208   -2.8278  -12.1861 C.3       1 RES1    0.0000
     48 H16       -4.8005   -2.4454  -12.8966 H         1 RES1    0.0000
     49 H17       -5.7392   -2.1257  -11.6822 H         1 RES1    0.0000
     50 H18       -5.9964   -3.4018  -12.5558 H         1 RES1    0.0000
     51 C18       -3.8600    0.1052   -7.7061 C.3       1 RES1    0.0000
     52 H19       -4.6859   -0.2944   -7.9903 H         1 RES1    0.0000
     53 H20       -3.9109    1.0576   -7.8179 H         1 RES1    0.0000
     54 H21       -3.7064   -0.1011   -6.7812 H         1 RES1    0.0000
     55 H22        0.8003   -4.9935  -10.9151 H         1 RES1    0.0000
@<TRIPOS>BOND
     1    1    6 1
     2    2   22 1
     3    3    4 1
     4    4    5 1
     5    6    4 1
     6    7    6 1
     7    8    4 1
     8    9    8 1
     9   10   13 ar
    10   11   12 1
    11   13   11 1
    12   14   20 ar
    13   15   13 ar
    14   16   15 1
    15   17    8 1
    16   18   28 2
    17   19   11 1
    18   20   10 ar
    19   21   20 1
    20   22    6 1
    21   23   22 1
    22   24    2 1
    23   25   24 1
    24   26   37 2
    25   27   38 2
    26   28    3 1
    27   29   14 ar
    28   30   29 1
    29   31   33 2
    30   32   37 2
    31   33   14 1
    32   34   17 1
    33   35   33 2
    34   36   34 2
    35   37   10 1
    36   38    1 1
    37   39   38 1
    38   40   39 1
    39   41   39 1
    40   42   39 1
    41   43   24 1
    42   44   43 1
    43   45   43 1
    44   46   43 1
    45   47   28 1
    46   48   47 1
    47   49   47 1
    48   50   47 1
    49   51   34 1
    50   52   51 1
    51   53   51 1
    52   54   51 1
    53   55   19 1
    54    8   24 1
    55   15   29 ar
    56   19   22 1
@<TRIPOS>SUBSTRUCTURE
     1 RES1 1

@<TRIPOS>CRYSIN
  21.0170    8.1540   13.5910  90.0000 104.5170  90.0000   5 1

