# MOL2 file generated by ConQuest
# Please check atom types

@<TRIPOS>MOLECULE
XETJUD
    52    54     2
SMALL
NO_CHARGES
****
Generated from CSD

@<TRIPOS>ATOM
      1 N1         1.3366   11.9700    2.6947 N.pl3     1 RES1    0.0000
      2 C1         0.4749   11.2059    3.5293 C.ar      1 RES1    0.0000
      3 N2         2.6664   11.9017    2.8526 N.2       1 RES1    0.0000
      4 N3         1.3056   12.5379    5.4027 N.pl3     1 RES1    0.0000
      5 C2         0.4316   11.4922    4.8649 C.ar      1 RES1    0.0000
      6 C3        -0.3531   10.1968    3.0533 C.ar      1 RES1    0.0000
      7 C4         1.0182   12.8243    1.7215 C.2       1 RES1    0.0000
      8 H1         0.1685   13.0595    1.4244 H         1 RES1    0.0000
      9 C5        -0.4422   10.8597    5.7482 C.ar      1 RES1    0.0000
     10 N4         3.1801   12.7012    1.9724 N.2       1 RES1    0.0000
     11 O1         1.1134   13.6700    5.0422 O.2       1 RES1    0.0000
     12 O2        -0.4104   11.2778    7.0089 O.3       1 RES1    0.0000
     13 N5        -0.3240    9.7617    1.6549 N.pl3     1 RES1    0.0000
     14 O3         2.1763   12.1966    6.1638 O.2       1 RES1    0.0000
     15 C6         2.1989   13.2667    1.2667 C.2       1 RES1    0.0000
     16 H2         2.3148   13.8723    0.5711 H         1 RES1    0.0000
     17 C7        -1.2144    9.5618    3.9086 C.ar      1 RES1    0.0000
     18 H3        -1.7731    8.8952    3.5810 H         1 RES1    0.0000
     19 O4         0.6149   10.0615    0.9723 O.2       1 RES1    0.0000
     20 C8        -1.2712    9.8860    5.2314 C.ar      1 RES1    0.0000
     21 H4        -1.8720    9.4473    5.7885 H         1 RES1    0.0000
     22 O5        -1.2372    9.0756    1.2702 O.2       1 RES1    0.0000
     23 C9        -1.3781   10.7367    7.9277 C.3       1 RES1    0.0000
     24 H5        -2.2633   10.9170    7.6035 H         1 RES1    0.0000
     25 H6        -1.2648   11.1461    8.7896 H         1 RES1    0.0000
     26 H7        -1.2513    9.7885    8.0065 H         1 RES1    0.0000
     27 N6         6.8601   12.2881    2.6357 N.pl3     2 RES2    0.0000
     28 N7         8.1969   12.4160    2.7469 N.2       2 RES2    0.0000
     29 N8         6.7511   13.0973    5.2762 N.pl3     2 RES2    0.0000
     30 C10        6.1447   11.4679    3.5525 C.ar      2 RES2    0.0000
     31 C11        6.0851   11.8579    4.8624 C.ar      2 RES2    0.0000
     32 N9         8.5728   13.2179    1.8075 N.2       2 RES2    0.0000
     33 C12        5.4908   10.3077    3.1867 C.ar      2 RES2    0.0000
     34 O6         5.3866   11.6543    7.0685 O.3       2 RES2    0.0000
     35 O7         7.6876   13.0059    6.0460 O.2       2 RES2    0.0000
     36 N10        5.5320    9.7739    1.8210 N.pl3     2 RES2    0.0000
     37 O8         6.3401   14.1392    4.8065 O.2       2 RES2    0.0000
     38 C13        4.7345    9.9994    5.4311 C.ar      2 RES2    0.0000
     39 H8         4.2553    9.4973    6.0513 H         2 RES2    0.0000
     40 C14        5.3833   11.1486    5.8405 C.ar      2 RES2    0.0000
     41 C15        6.4082   13.0266    1.6179 C.2       2 RES2    0.0000
     42 H9         5.5293   13.1229    1.3315 H         2 RES2    0.0000
     43 C16        7.5041   13.5994    1.1002 C.2       2 RES2    0.0000
     44 H10        7.5180   14.1709    0.3679 H         2 RES2    0.0000
     45 C17        4.7864    9.5935    4.1329 C.ar      2 RES2    0.0000
     46 H11        4.3381    8.8184    3.8806 H         2 RES2    0.0000
     47 O9         4.6602    9.0061    1.4955 O.2       2 RES2    0.0000
     48 O10        6.4240   10.1078    1.0946 O.2       2 RES2    0.0000
     49 C18        4.5926   11.0255    8.0801 C.3       2 RES2    0.0000
     50 H12        3.6735   11.0170    7.8050 H         2 RES2    0.0000
     51 H13        4.6764   11.5154    8.9018 H         2 RES2    0.0000
     52 H14        4.8972   10.1249    8.2115 H         2 RES2    0.0000
@<TRIPOS>BOND
     1    1    2 1
     2    2    5 ar
     3    3    1 1
     4    4    5 1
     5    5    9 ar
     6    6    2 ar
     7    7    1 1
     8    8    7 1
     9    9   12 1
    10   10    3 2
    11   11    4 2
    12   12   23 1
    13   13    6 1
    14   14    4 2
    15   15    7 2
    16   16   15 1
    17   17    6 ar
    18   18   17 1
    19   19   13 2
    20   20    9 ar
    21   21   20 1
    22   22   13 2
    23   23   24 1
    24   25   23 1
    25   26   23 1
    26   27   28 1
    27   28   32 2
    28   29   31 1
    29   30   27 1
    30   31   30 ar
    31   32   43 1
    32   33   30 ar
    33   34   40 1
    34   35   29 2
    35   36   33 1
    36   37   29 2
    37   38   39 1
    38   40   31 ar
    39   41   27 1
    40   42   41 1
    41   43   41 2
    42   44   43 1
    43   45   33 ar
    44   46   45 1
    45   47   36 2
    46   48   36 2
    47   49   34 1
    48   50   49 1
    49   51   49 1
    50   52   49 1
    51   10   15 1
    52   17   20 ar
    53   38   40 ar
    54   38   45 ar
@<TRIPOS>SUBSTRUCTURE
     1 RES1 1
     2 RES2 27

@<TRIPOS>CRYSIN
  10.8498   12.1869   18.2490  90.0000 106.2530  90.0000  14 1

