# MOL2 file generated by ConQuest
# Please check atom types

@<TRIPOS>MOLECULE
XETJEN
    30    32     1
SMALL
USER_CHARGES
****
Generated from CSD

@<TRIPOS>ATOM
      1 C1         5.9549    0.2997    3.3737 C.ar      1 RES1    0.0000
      2 N1         6.9169    0.9666    2.6925 N.pl3     1 RES1    1.0000
      3 N2         3.8278    0.4872    4.5673 N.3       1 RES1    0.0000
      4 O1         6.9169    2.2755    2.6925 O.2       1 RES1   -1.0000
      5 C2         6.9169   -1.7573    2.6925 C.ar      1 RES1    0.0000
      6 H1         6.9169   -2.6867    2.6925 H         1 RES1    0.0000
      7 C3         5.9489   -1.0618    3.3718 C.ar      1 RES1    0.0000
      8 H2         5.2856   -1.5219    3.8330 H         1 RES1    0.0000
      9 N3         3.7671    0.1131    5.8511 N.2       1 RES1    0.0000
     10 C4         1.9557   -0.4577    4.8515 C.2       1 RES1    0.0000
     11 H3         1.1078   -0.8101    4.7064 H         1 RES1    0.0000
     12 C5         2.7168    0.1441    3.9269 C.2       1 RES1    0.0000
     13 H4         2.5111    0.2897    3.0317 H         1 RES1    0.0000
     14 N4         2.6124   -0.4693    6.0162 N.2       1 RES1    0.0000
     15 C6         4.9743    1.1958    4.0549 C.3       1 RES1    0.0000
     16 H5         5.4186    1.6497    4.7883 H         1 RES1    0.0000
     17 H6         4.6735    1.8704    3.4270 H         1 RES1    0.0000
     18 C1A        7.8790    0.2997    2.0113 C.ar      1 RES1    0.0000
     19 N2A       10.0060    0.4872    0.8177 N.3       1 RES1    0.0000
     20 C3A        7.8850   -1.0618    2.0131 C.ar      1 RES1    0.0000
     21 H2A        8.5483   -1.5219    1.5519 H         1 RES1    0.0000
     22 N3A       10.0668    0.1131   -0.4661 N.2       1 RES1    0.0000
     23 C4A       11.8782   -0.4577    0.5334 C.2       1 RES1    0.0000
     24 H3A       12.7261   -0.8101    0.6785 H         1 RES1    0.0000
     25 C5A       11.1170    0.1441    1.4580 C.2       1 RES1    0.0000
     26 H4A       11.3228    0.2897    2.3532 H         1 RES1    0.0000
     27 N4A       11.2214   -0.4693   -0.6312 N.2       1 RES1    0.0000
     28 C6A        8.8596    1.1958    1.3301 C.3       1 RES1    0.0000
     29 H5A        8.4153    1.6497    0.5967 H         1 RES1    0.0000
     30 H6A        9.1603    1.8704    1.9580 H         1 RES1    0.0000
@<TRIPOS>BOND
     1    1    2 ar
     2    2    4 1
     3    3    9 1
     4    5    6 1
     5    7    1 ar
     6    8    7 1
     7    9   14 2
     8   10   11 1
     9   12    3 1
    10   13   12 1
    11   14   10 1
    12   15    1 1
    13   16   15 1
    14   17   15 1
    15   18    2 ar
    16   19   22 1
    17   20    5 ar
    18   21   20 1
    19   22   27 2
    20   23   24 1
    21   25   19 1
    22   26   25 1
    23   27   23 1
    24   28   18 1
    25   29   28 1
    26   30   28 1
    27    3   15 1
    28    5    7 ar
    29   10   12 2
    30   18   20 ar
    31   19   28 1
    32   23   25 2
@<TRIPOS>SUBSTRUCTURE
     1 RES1 1

@<TRIPOS>CRYSIN
  14.1790    7.7450   10.7920  90.0000  93.6670  90.0000  15 1

