# MOL2 file generated by ConQuest
# Please check atom types

@<TRIPOS>MOLECULE
XETJOX
    26    27     1
SMALL
NO_CHARGES
****
Generated from CSD

@<TRIPOS>ATOM
      1 N1         0.0463    9.4643   11.5570 N.pl3     1 RES1    0.0000
      2 N2        -0.6543    9.7168    8.6993 N.pl3     1 RES1    0.0000
      3 C1         0.7045    8.7078   10.5494 C.ar      1 RES1    0.0000
      4 O1         3.4234    6.2474   10.3532 O.3       1 RES1    0.0000
      5 N3         2.7708    6.4723    7.6100 N.pl3     1 RES1    0.0000
      6 C2         1.0043    8.0048    8.2810 C.ar      1 RES1    0.0000
      7 H1         0.7401    8.0174    7.3898 H         1 RES1    0.0000
      8 C3         2.4264    7.0891   10.0256 C.ar      1 RES1    0.0000
      9 O2        -0.7068   10.8287    9.1954 O.2       1 RES1    0.0000
     10 O3         3.9467    6.1732    7.7823 O.2       1 RES1    0.0000
     11 C4         2.0594    7.1956    8.6759 C.ar      1 RES1    0.0000
     12 C5         1.7083    7.8462   10.9471 C.ar      1 RES1    0.0000
     13 H2         1.9093    7.7693   11.8521 H         1 RES1    0.0000
     14 C6         0.5843   10.1946   12.5398 C.2       1 RES1    0.0000
     15 H3         1.4847   10.3532   12.7086 H         1 RES1    0.0000
     16 O4        -1.3668    9.3453    7.7763 O.2       1 RES1    0.0000
     17 O5         2.1345    6.2114    6.5988 O.2       1 RES1    0.0000
     18 C7         0.3472    8.7859    9.1973 C.ar      1 RES1    0.0000
     19 C8        -0.4878   10.6487   13.2335 C.2       1 RES1    0.0000
     20 H4        -0.4454   11.2042   13.9787 H         1 RES1    0.0000
     21 C9         3.6673    5.9875   11.7535 C.3       1 RES1    0.0000
     22 H5         4.3549    5.3229   11.8404 H         1 RES1    0.0000
     23 H6         2.8605    5.6695   12.1649 H         1 RES1    0.0000
     24 H7         3.9490    6.7969   12.1854 H         1 RES1    0.0000
     25 N4        -1.3159    9.4506   11.6405 N.2       1 RES1    0.0000
     26 N5        -1.6310   10.1737   12.6813 N.2       1 RES1    0.0000
@<TRIPOS>BOND
     1    1    3 1
     2    2    9 2
     3    3   12 ar
     4    4    8 1
     5    5   10 2
     6    6    7 1
     7    8   11 ar
     8   11    5 1
     9   12    8 ar
    10   13   12 1
    11   14    1 1
    12   15   14 1
    13   16    2 2
    14   17    5 2
    15   18    2 1
    16   19   14 2
    17   20   19 1
    18   21    4 1
    19   22   21 1
    20   23   21 1
    21   24   21 1
    22   25    1 1
    23   26   19 1
    24    3   18 ar
    25    6   11 ar
    26    6   18 ar
    27   25   26 2
@<TRIPOS>SUBSTRUCTURE
     1 RES1 1

@<TRIPOS>CRYSIN
   5.6454   13.4860   14.6160  90.0000  90.0000  90.0000  19 1

