# MOL2 file generated by ConQuest
# Please check atom types

@<TRIPOS>MOLECULE
XETKAK
    25    26     1
SMALL
NO_CHARGES
****
Generated from CSD

@<TRIPOS>ATOM
      1 N1         2.9527    2.9774    1.9070 N.pl3     1 RES1    0.0000
      2 C1         0.9998   -1.6289    2.3214 C.ar      1 RES1    0.0000
      3 N2         1.4294   -1.3304    4.7684 N.pl3     1 RES1    0.0000
      4 N3         0.2555   -2.8747    2.5497 N.pl3     1 RES1    0.0000
      5 O1         0.6824   -3.6269    3.4260 O.2       1 RES1    0.0000
      6 O2        -0.7041   -3.1095    1.8375 O.2       1 RES1    0.0000
      7 O3         0.2855   -1.4051    5.1607 O.2       1 RES1    0.0000
      8 C2         1.6490   -0.9630    3.3551 C.ar      1 RES1    0.0000
      9 C3         2.4575    0.1143    3.0996 C.ar      1 RES1    0.0000
     10 C4         2.6312    0.5463    1.7787 C.ar      1 RES1    0.0000
     11 N4         3.1143    3.4318    3.1554 N.2       1 RES1    0.0000
     12 C5         1.1507   -1.1885    1.0215 C.ar      1 RES1    0.0000
     13 N5         2.4172    4.5392    3.2536 N.2       1 RES1    0.0000
     14 O4         2.4080   -1.4944    5.4668 O.2       1 RES1    0.0000
     15 C6         3.5498    1.7143    1.4871 C.3       1 RES1    0.0000
     16 C7         2.1413    3.7933    1.2182 C.2       1 RES1    0.0000
     17 C8         1.9701   -0.1086    0.7613 C.ar      1 RES1    0.0000
     18 C9         1.8175    4.7743    2.0817 C.2       1 RES1    0.0000
     19 H1         4.3378    1.6265    2.0106 H         1 RES1    0.0000
     20 H2         2.0724    0.1778   -0.1062 H         1 RES1    0.0000
     21 H3         0.7251   -1.6983    0.3428 H         1 RES1    0.0000
     22 H4         3.7742    1.7929    0.6023 H         1 RES1    0.0000
     23 H5         2.8850    0.5802    3.8635 H         1 RES1    0.0000
     24 H6         1.9172    3.5676    0.3953 H         1 RES1    0.0000
     25 H7         1.2383    5.4848    1.9482 H         1 RES1    0.0000
@<TRIPOS>BOND
     1    1   11 1
     2    2    4 1
     3    3    7 2
     4    4    5 2
     5    6    4 2
     6    8    2 ar
     7    9    8 ar
     8   10    9 ar
     9   11   13 2
    10   12    2 ar
    11   13   18 1
    12   14    3 2
    13   15    1 1
    14   16    1 1
    15   17   10 ar
    16   18   16 2
    17   19   15 1
    18   20   17 1
    19   21   12 1
    20   22   15 1
    21   23    9 1
    22   24   16 1
    23   25   18 1
    24    3    8 1
    25   10   15 1
    26   12   17 ar
@<TRIPOS>SUBSTRUCTURE
     1 RES1 1

@<TRIPOS>CRYSIN
   8.6097   11.3982   11.0544  90.0000  97.8430  90.0000  14 1

