# MOL2 file generated by ConQuest
# Please check atom types

@<TRIPOS>MOLECULE
XETKOY
    26    27     1
SMALL
NO_CHARGES
****
Generated from CSD

@<TRIPOS>ATOM
      1 N1         5.5832    4.4620   11.7958 N.pl3     1 RES1    0.0000
      2 O1         8.1896    1.4180   10.0462 O.2       1 RES1    0.0000
      3 N2         6.9153    4.6993   11.9368 N.2       1 RES1    0.0000
      4 O2         2.9055    7.1978   13.2947 O.2       1 RES1    0.0000
      5 O3         6.0806    1.0609    9.6191 O.2       1 RES1    0.0000
      6 C1         3.5064    3.6908   16.2779 C.ar      1 RES1    0.0000
      7 N3         7.5518    3.7399   11.3254 N.2       1 RES1    0.0000
      8 O4         1.2815    6.6205   14.6019 O.2       1 RES1    0.0000
      9 N4         7.0010    1.7167   10.1034 N.pl3     1 RES1    0.0000
     10 O5         2.4563    3.7828   18.3328 O.2       1 RES1    0.0000
     11 N5         3.1323    3.1074   17.5725 N.pl3     1 RES1    0.0000
     12 O6         3.5362    1.9730   17.8132 O.2       1 RES1    0.0000
     13 N6         2.3960    6.4506   14.1232 N.pl3     1 RES1    0.0000
     14 C2         4.6366    5.3440   12.4723 C.3       1 RES1    0.0000
     15 H1         3.8270    5.4476   11.9122 H         1 RES1    0.0000
     16 H2         5.0456    6.2383   12.5872 H         1 RES1    0.0000
     17 C3         3.1719    5.2955   14.5858 C.ar      1 RES1    0.0000
     18 C4         6.6258    2.9035   10.8143 C.2       1 RES1    0.0000
     19 C5         5.3548    3.3392   11.0896 C.2       1 RES1    0.0000
     20 C6         4.5841    3.1615   15.5975 C.ar      1 RES1    0.0000
     21 H3         5.0736    2.4305   15.9571 H         1 RES1    0.0000
     22 C7         4.2409    4.7946   13.8311 C.ar      1 RES1    0.0000
     23 C8         4.9356    3.7181   14.3840 C.ar      1 RES1    0.0000
     24 H4         5.6746    3.3560   13.9102 H         1 RES1    0.0000
     25 C9         2.7883    4.7668   15.8009 C.ar      1 RES1    0.0000
     26 H5         2.0582    5.1295   16.2901 H         1 RES1    0.0000
@<TRIPOS>BOND
     1    1    3 1
     2    2    9 2
     3    3    7 2
     4    4   13 2
     5    5    9 2
     6    6   11 1
     7    7   18 1
     8    8   13 2
     9    9   18 1
    10   10   11 2
    11   11   12 2
    12   13   17 1
    13   14    1 1
    14   15   14 1
    15   16   14 1
    16   17   22 ar
    17   18   19 2
    18   19    1 1
    19   20    6 ar
    20   21   20 1
    21   22   14 1
    22   23   20 ar
    23   24   23 1
    24   25    6 ar
    25   26   25 1
    26   17   25 ar
    27   22   23 ar
@<TRIPOS>SUBSTRUCTURE
     1 RES1 1

@<TRIPOS>CRYSIN
   5.5245    5.5719   18.1323  90.0000  93.5210  90.0000   4 1

