# MOL2 file generated by ConQuest
# Please check atom types

@<TRIPOS>MOLECULE
XETKIS
    25    26     1
SMALL
NO_CHARGES
****
Generated from CSD

@<TRIPOS>ATOM
      1 C1         0.4895    1.7889   10.6833 C.ar      1 RES1    0.0000
      2 H1         0.0150    1.1275   10.2342 H         1 RES1    0.0000
      3 C2         1.8211    3.8348   11.9355 C.ar      1 RES1    0.0000
      4 C3         2.3133    3.3656   10.7282 C.ar      1 RES1    0.0000
      5 H2         3.0662    3.7402   10.3318 H         1 RES1    0.0000
      6 C4         1.6348    2.3151   10.1405 C.ar      1 RES1    0.0000
      7 N1         2.5489    4.9919   12.4971 N.pl3     1 RES1    0.0000
      8 C5         0.7190    3.2783   12.5822 C.ar      1 RES1    0.0000
      9 O1         3.2724    2.0781    8.5398 O.2       1 RES1    0.0000
     10 N2         2.1626    1.7501    8.8960 N.pl3     1 RES1    0.0000
     11 O2         1.9835    5.6545   13.3539 O.2       1 RES1    0.0000
     12 N3        -0.6397    2.6828   14.5388 N.3       1 RES1    0.0000
     13 C6         0.0510    2.2565   11.9075 C.ar      1 RES1    0.0000
     14 H3        -0.7085    1.8808   12.2908 H         1 RES1    0.0000
     15 N4        -1.9652    2.8572   14.4511 N.2       1 RES1    0.0000
     16 O3         3.6660    5.2297   12.0838 O.2       1 RES1    0.0000
     17 C7         0.2744    3.6637   13.9756 C.3       1 RES1    0.0000
     18 H4         1.0522    3.7438   14.5492 H         1 RES1    0.0000
     19 H5        -0.1635    4.5280   13.9439 H         1 RES1    0.0000
     20 C8        -0.3509    1.4830   15.0742 C.2       1 RES1    0.0000
     21 H6         0.4889    1.1204   15.2407 H         1 RES1    0.0000
     22 N5        -2.5334    1.7807   14.9349 N.2       1 RES1    0.0000
     23 C9        -1.5605    0.9225   15.3176 C.2       1 RES1    0.0000
     24 H7        -1.6997    0.0822   15.6897 H         1 RES1    0.0000
     25 O4         1.4591    0.9496    8.2943 O.2       1 RES1    0.0000
@<TRIPOS>BOND
     1    1    2 1
     2    3    4 ar
     3    4    5 1
     4    6    1 ar
     5    7    3 1
     6    8    3 ar
     7    9   10 2
     8   10    6 1
     9   11    7 2
    10   12   15 1
    11   13    1 ar
    12   14   13 1
    13   15   22 2
    14   16    7 2
    15   17    8 1
    16   18   17 1
    17   19   17 1
    18   20   12 1
    19   21   20 1
    20   22   23 1
    21   23   20 2
    22   24   23 1
    23   25   10 2
    24    4    6 ar
    25    8   13 ar
    26   12   17 1
@<TRIPOS>SUBSTRUCTURE
     1 RES1 1

@<TRIPOS>CRYSIN
   5.5436   11.9190   16.2706  90.0000  90.0000  90.0000  19 1

