# MOL2 file generated by ConQuest
# Please check atom types

@<TRIPOS>MOLECULE
XETNOA
    54    56     2
SMALL
NO_CHARGES
****
Generated from CSD

@<TRIPOS>ATOM
      1 C1         3.8227    2.1074   13.0990 C.ar      1 RES1    0.0000
      2 N1         3.0735    2.2919   10.7730 N.am      1 RES1    0.0000
      3 C2         4.1097    2.0431   11.6322 C.2       1 RES1    0.0000
      4 O1         2.0419    3.0757   11.3068 O.3       1 RES1    0.0000
      5 H1         1.3226    2.6426   11.2888 H         1 RES1    0.0000
      6 O2         5.2305    1.7274   11.2227 O.2       1 RES1    0.0000
      7 C3         2.7030    1.4994   13.6724 C.ar      1 RES1    0.0000
      8 H2         2.0440    1.1013   13.1160 H         1 RES1    0.0000
      9 C4         4.0506    1.4357    8.6634 C.ar      1 RES1    0.0000
     10 H3         4.7309    0.9861    9.1507 H         1 RES1    0.0000
     11 C5         2.0916    2.8271    8.6162 C.ar      1 RES1    0.0000
     12 H4         1.4303    3.3404    9.0661 H         1 RES1    0.0000
     13 C6         4.7761    2.6901   13.9260 C.ar      1 RES1    0.0000
     14 H5         5.5522    3.0856   13.5465 H         1 RES1    0.0000
     15 C7         3.0087    1.9848    6.5586 C.ar      1 RES1    0.0000
     16 H6         2.9876    1.9190    5.6111 H         1 RES1    0.0000
     17 C8         3.0836    2.1986    9.3422 C.ar      1 RES1    0.0000
     18 C9         2.5519    1.4747   15.0470 C.ar      1 RES1    0.0000
     19 H7         1.8006    1.0422   15.4355 H         1 RES1    0.0000
     20 C10        4.6000    2.6968   15.2990 C.ar      1 RES1    0.0000
     21 H8         5.2385    3.1250   15.8563 H         1 RES1    0.0000
     22 C11        3.5003    2.0836   15.8593 C.ar      1 RES1    0.0000
     23 H9         3.3901    2.0768   16.8032 H         1 RES1    0.0000
     24 C12        2.0553    2.7132    7.2287 C.ar      1 RES1    0.0000
     25 H10        1.3635    3.1432    6.7406 H         1 RES1    0.0000
     26 C13        4.0069    1.3436    7.2895 C.ar      1 RES1    0.0000
     27 H11        4.6670    0.8359    6.8337 H         1 RES1    0.0000
     28 C14       -0.0264    6.5909   14.3144 C.ar      2 RES2    0.0000
     29 H12       -0.6692    7.0465   13.7836 H         2 RES2    0.0000
     30 O3        -0.7356    5.1005   11.9163 O.3       2 RES2    0.0000
     31 H13       -1.4448    5.5507   11.9031 H         2 RES2    0.0000
     32 O4         2.4594    6.4435   11.8338 O.2       2 RES2    0.0000
     33 C15        0.3452    5.9216    9.9515 C.ar      2 RES2    0.0000
     34 C16        1.9979    5.2969   14.4908 C.ar      2 RES2    0.0000
     35 H14        2.7511    4.8832   14.0859 H         2 RES2    0.0000
     36 C17        1.2747    6.6684    7.8647 C.ar      2 RES2    0.0000
     37 H15        1.9469    7.1405    7.3876 H         2 RES2    0.0000
     38 C18        0.7516    5.8585   16.4618 C.ar      2 RES2    0.0000
     39 H16        0.6433    5.8192   17.4042 H         2 RES2    0.0000
     40 C19       -0.7105    5.3374    7.8650 C.ar      2 RES2    0.0000
     41 H17       -1.4006    4.8908    7.3888 H         2 RES2    0.0000
     42 N2         0.3128    5.8640   11.3783 N.am      2 RES2    0.0000
     43 C20        1.3445    6.0956   12.2410 C.2       2 RES2    0.0000
     44 C21       -0.1736    6.5466   15.6855 C.ar      2 RES2    0.0000
     45 H18       -0.9070    6.9858   16.0994 H         2 RES2    0.0000
     46 C22        1.3215    6.6287    9.2580 C.ar      2 RES2    0.0000
     47 H19        2.0125    7.0798    9.7288 H         2 RES2    0.0000
     48 C23        1.0671    5.9661   13.7029 C.ar      2 RES2    0.0000
     49 C24        1.8273    5.2327   15.8667 C.ar      2 RES2    0.0000
     50 H20        2.4531    4.7573   16.4005 H         2 RES2    0.0000
     51 C25        0.2623    6.0305    7.1663 C.ar      2 RES2    0.0000
     52 H21        0.2361    6.0680    6.2170 H         2 RES2    0.0000
     53 C26       -0.6914    5.2875    9.2442 C.ar      2 RES2    0.0000
     54 H22       -1.3761    4.8271    9.7143 H         2 RES2    0.0000
@<TRIPOS>BOND
     1    1    3 1
     2    2    3 1
     3    3    6 2
     4    4    2 1
     5    5    4 1
     6    7    1 ar
     7    8    7 1
     8    9   10 1
     9   11   12 1
    10   13    1 ar
    11   14   13 1
    12   15   16 1
    13   17    2 1
    14   18    7 ar
    15   19   18 1
    16   20   13 ar
    17   21   20 1
    18   22   18 ar
    19   23   22 1
    20   24   11 ar
    21   25   24 1
    22   26    9 ar
    23   27   26 1
    24   28   29 1
    25   30   31 1
    26   32   43 2
    27   33   42 1
    28   34   35 1
    29   36   37 1
    30   38   39 1
    31   40   41 1
    32   42   30 1
    33   43   42 1
    34   44   28 ar
    35   45   44 1
    36   46   33 ar
    37   47   46 1
    38   48   28 ar
    39   49   34 ar
    40   50   49 1
    41   51   36 ar
    42   52   51 1
    43   53   33 ar
    44   54   53 1
    45    9   17 ar
    46   11   17 ar
    47   15   24 ar
    48   15   26 ar
    49   20   22 ar
    50   34   48 ar
    51   36   46 ar
    52   38   44 ar
    53   38   49 ar
    54   40   51 ar
    55   40   53 ar
    56   43   48 1
@<TRIPOS>SUBSTRUCTURE
     1 RES1 1
     2 RES2 28

@<TRIPOS>CRYSIN
   5.4990   15.1700   12.2880  90.0000 100.2220  90.0000   4 1

