# MOL2 file generated by ConQuest
# Please check atom types

@<TRIPOS>MOLECULE
XETXOL
    49    53     1
SMALL
NO_CHARGES
****
Generated from CSD

@<TRIPOS>ATOM
      1 O1         2.4303   10.4683   -3.6721 O.2       1 RES1    0.0000
      2 O2         3.3545    8.6539   -2.9522 O.2       1 RES1    0.0000
      3 C1         1.2636   12.4310    0.9255 C.ar      1 RES1    0.0000
      4 N1         1.7813   11.1685    2.7186 N.pl3     1 RES1    0.0000
      5 H1         1.8113   10.8590    3.5206 H         1 RES1    0.0000
      6 N2         2.6591    9.6502   -2.7938 N.pl3     1 RES1    0.0000
      7 C2         2.0903    9.9175   -1.4371 C.3       1 RES1    0.0000
      8 H2         2.2573    9.1592   -0.8557 H         1 RES1    0.0000
      9 H3         1.1314   10.0461   -1.5011 H         1 RES1    0.0000
     10 C3         2.7481   11.1794   -0.8499 C.3       1 RES1    0.0000
     11 H4         2.4923   11.9389   -1.4140 H         1 RES1    0.0000
     12 C4         2.1897   11.4196    0.5214 C.2       1 RES1    0.0000
     13 C5         2.4639   10.6464    1.6285 C.2       1 RES1    0.0000
     14 C6         3.2985    9.4566    1.7295 C.2       1 RES1    0.0000
     15 C7         2.9222    8.4355    2.7479 C.ar      1 RES1    0.0000
     16 C8         1.5770    8.1091    2.9584 C.ar      1 RES1    0.0000
     17 H5         0.9164    8.5582    2.4836 H         1 RES1    0.0000
     18 C9         1.2185    7.1244    3.8656 C.ar      1 RES1    0.0000
     19 H6         0.3192    6.9190    3.9847 H         1 RES1    0.0000
     20 C10        2.1799    6.4365    4.6021 C.ar      1 RES1    0.0000
     21 C11        1.7811    5.3800    5.6010 C.3       1 RES1    0.0000
     22 H7         1.4841    4.5953    5.1358 H         1 RES1    0.0000
     23 H8         1.0686    5.7128    6.1529 H         1 RES1    0.0000
     24 H9         2.5360    5.1587    6.1510 H         1 RES1    0.0000
     25 C12        0.5491   13.4379    0.2551 C.ar      1 RES1    0.0000
     26 H10        0.6630   13.5698   -0.6581 H         1 RES1    0.0000
     27 C13       -0.3247   14.2283    0.9762 C.ar      1 RES1    0.0000
     28 H11       -0.8226   14.8783    0.5348 H         1 RES1    0.0000
     29 C14       -0.4759   14.0681    2.3663 C.ar      1 RES1    0.0000
     30 H12       -1.0474   14.6362    2.8299 H         1 RES1    0.0000
     31 C15        0.2071   13.0859    3.0556 C.ar      1 RES1    0.0000
     32 H13        0.1107   12.9824    3.9738 H         1 RES1    0.0000
     33 C16        1.0492   12.2560    2.3154 C.ar      1 RES1    0.0000
     34 C17        3.5143    6.7625    4.3911 C.ar      1 RES1    0.0000
     35 H14        4.1743    6.3117    4.8675 H         1 RES1    0.0000
     36 C18        3.8827    7.7475    3.4854 C.ar      1 RES1    0.0000
     37 H15        4.7833    7.9509    3.3701 H         1 RES1    0.0000
     38 C19        4.3737    9.2562    0.9300 C.2       1 RES1    0.0000
     39 H16        4.8008    8.4372    1.0388 H         1 RES1    0.0000
     40 C20        4.9656   10.1410   -0.0823 C.ar      1 RES1    0.0000
     41 C21        4.2633   11.0827   -0.8626 C.ar      1 RES1    0.0000
     42 C22        4.9666   11.8861   -1.7626 C.ar      1 RES1    0.0000
     43 H17        4.5057   12.5222   -2.2606 H         1 RES1    0.0000
     44 C23        6.3379   11.7576   -1.9318 C.ar      1 RES1    0.0000
     45 H18        6.7907   12.3104   -2.5271 H         1 RES1    0.0000
     46 C24        7.0288   10.7997   -1.2079 C.ar      1 RES1    0.0000
     47 H19        7.9443   10.6899   -1.3325 H         1 RES1    0.0000
     48 C25        6.3517   10.0063   -0.2988 C.ar      1 RES1    0.0000
     49 H20        6.8244    9.3658    0.1831 H         1 RES1    0.0000
@<TRIPOS>BOND
     1    1    6 2
     2    2    6 2
     3    3   12 1
     4    4    5 1
     5    6    7 1
     6    7    8 1
     7    9    7 1
     8   10    7 1
     9   11   10 1
    10   12   10 1
    11   13    4 1
    12   14   13 1
    13   15   14 1
    14   16   15 ar
    15   17   16 1
    16   18   16 ar
    17   19   18 1
    18   20   18 ar
    19   21   20 1
    20   22   21 1
    21   23   21 1
    22   24   21 1
    23   25    3 ar
    24   26   25 1
    25   27   25 ar
    26   28   27 1
    27   29   27 ar
    28   30   29 1
    29   31   29 ar
    30   32   31 1
    31   33    3 ar
    32   34   20 ar
    33   35   34 1
    34   36   15 ar
    35   37   36 1
    36   38   14 2
    37   39   38 1
    38   40   38 1
    39   41   10 1
    40   42   41 ar
    41   43   42 1
    42   44   42 ar
    43   45   44 1
    44   46   44 ar
    45   47   46 1
    46   48   40 ar
    47   49   48 1
    48    4   33 1
    49   12   13 2
    50   31   33 ar
    51   34   36 ar
    52   40   41 ar
    53   46   48 ar
@<TRIPOS>SUBSTRUCTURE
     1 RES1 1

@<TRIPOS>CRYSIN
  20.8671   10.4343   18.5300  90.0000 101.9470  90.0000  15 1

