# MOL2 file generated by ConQuest
# Please check atom types

@<TRIPOS>MOLECULE
XETYUS
    56    58     2
SMALL
NO_CHARGES
****
Generated from CSD

@<TRIPOS>ATOM
      1 N1         4.3208    0.2627    7.3244 N.pl3     1 RES1    0.0000
      2 N2         5.4312   -0.5588    7.5292 N.2       1 RES1    0.0000
      3 N3         3.8810   -0.8757    9.1455 N.2       1 RES1    0.0000
      4 N4         2.2350    0.6623    8.4270 N.pl3     1 RES1    0.0000
      5 H1         1.7121    0.4711    9.0822 H         1 RES1    0.0000
      6 H2         1.9995    1.2500    7.8463 H         1 RES1    0.0000
      7 N5         6.5358    1.9558    6.6254 N.pl3     1 RES1    0.0000
      8 O1         6.3834    2.2757    7.7857 O.2       1 RES1    0.0000
      9 O2         7.6261    1.7738    6.1126 O.2       1 RES1    0.0000
     10 C1         4.2614    1.0806    6.1749 C.ar      1 RES1    0.0000
     11 C2         5.3517    1.8435    5.7749 C.ar      1 RES1    0.0000
     12 C3         5.3576    2.5409    4.5881 C.ar      1 RES1    0.0000
     13 H3         6.1205    3.0006    4.3183 H         1 RES1    0.0000
     14 C4         4.2294    2.5531    3.8040 C.ar      1 RES1    0.0000
     15 H4         4.2121    3.0425    3.0139 H         1 RES1    0.0000
     16 C5         3.1240    1.8324    4.2004 C.ar      1 RES1    0.0000
     17 H5         2.3522    1.8513    3.6813 H         1 RES1    0.0000
     18 C6         3.1497    1.0844    5.3562 C.ar      1 RES1    0.0000
     19 H6         2.4073    0.5753    5.5884 H         1 RES1    0.0000
     20 C7         3.4189    0.0425    8.3118 C.2       1 RES1    0.0000
     21 C8         5.0994   -1.2060    8.6159 C.2       1 RES1    0.0000
     22 C9         5.9591   -2.2673    9.2102 C.3       1 RES1    0.0000
     23 H7         6.0359   -2.1176   10.1648 H         1 RES1    0.0000
     24 H8         6.8481   -2.2078    8.8282 H         1 RES1    0.0000
     25 C10        5.4082   -3.6483    8.9691 C.3       1 RES1    0.0000
     26 H9         4.4970   -3.6858    9.2676 H         1 RES1    0.0000
     27 H10        5.9315   -4.2906    9.4551 H         1 RES1    0.0000
     28 H11        5.4462   -3.8491    8.0318 H         1 RES1    0.0000
     29 N6         9.1732   -1.8105    2.3289 N.pl3     2 RES2    0.0000
     30 N7         8.0429   -2.2372    1.6277 N.2       2 RES2    0.0000
     31 N8         9.4562   -1.0972    0.2766 N.2       2 RES2    0.0000
     32 N9        11.1406   -0.5518    1.8517 N.pl3     2 RES2    0.0000
     33 H12       11.6108   -0.1229    1.2721 H         2 RES2    0.0000
     34 H13       11.4124   -0.6149    2.6652 H         2 RES2    0.0000
     35 N10        6.9996   -0.9452    3.9865 N.pl3     2 RES2    0.0000
     36 O3         5.9017   -1.3804    4.2740 O.2       2 RES2    0.0000
     37 O4         7.1963    0.0500    3.3168 O.2       2 RES2    0.0000
     38 C11        9.2425   -1.9780    3.7204 C.ar      2 RES2    0.0000
     39 C12        8.1735   -1.6333    4.5429 C.ar      2 RES2    0.0000
     40 C13        8.1881   -1.8604    5.8963 C.ar      2 RES2    0.0000
     41 H14        7.4458   -1.6567    6.4170 H         2 RES2    0.0000
     42 C14        9.3224   -2.3960    6.4700 C.ar      2 RES2    0.0000
     43 H15        9.3567   -2.5377    7.3887 H         2 RES2    0.0000
     44 C15       10.3995   -2.7194    5.6854 C.ar      2 RES2    0.0000
     45 H16       11.1688   -3.0624    6.0783 H         2 RES2    0.0000
     46 C16       10.3531   -2.5405    4.3179 C.ar      2 RES2    0.0000
     47 H17       11.0758   -2.8006    3.7941 H         2 RES2    0.0000
     48 C17        9.9839   -1.1202    1.4866 C.2       2 RES2    0.0000
     49 C18        8.2796   -1.7937    0.4209 C.2       2 RES2    0.0000
     50 C19        7.3580   -2.0183   -0.7235 C.3       2 RES2    0.0000
     51 H18        7.8365   -2.5029   -1.4152 H         2 RES2    0.0000
     52 H19        7.1071   -1.1568   -1.0927 H         2 RES2    0.0000
     53 C20        6.1035   -2.7784   -0.3861 C.3       2 RES2    0.0000
     54 H20        6.3367   -3.6483   -0.0524 H         2 RES2    0.0000
     55 H21        5.5642   -2.8720   -1.1753 H         2 RES2    0.0000
     56 H22        5.6100   -2.3004    0.2843 H         2 RES2    0.0000
@<TRIPOS>BOND
     1    1    2 1
     2    2   21 2
     3    3   20 2
     4    4    5 1
     5    6    4 1
     6    7    8 2
     7    9    7 2
     8   10    1 1
     9   11    7 1
    10   12   11 ar
    11   13   12 1
    12   14   12 ar
    13   15   14 1
    14   16   14 ar
    15   17   16 1
    16   18   10 ar
    17   19   18 1
    18   20    1 1
    19   21    3 1
    20   22   21 1
    21   23   22 1
    22   24   22 1
    23   25   22 1
    24   26   25 1
    25   27   25 1
    26   28   25 1
    27   29   30 1
    28   30   49 2
    29   31   48 2
    30   32   33 1
    31   34   32 1
    32   35   36 2
    33   37   35 2
    34   38   29 1
    35   39   35 1
    36   40   39 ar
    37   41   40 1
    38   42   40 ar
    39   43   42 1
    40   44   42 ar
    41   45   44 1
    42   46   38 ar
    43   47   46 1
    44   48   29 1
    45   49   31 1
    46   50   49 1
    47   51   50 1
    48   52   50 1
    49   53   50 1
    50   54   53 1
    51   55   53 1
    52   56   53 1
    53    4   20 1
    54   10   11 ar
    55   16   18 ar
    56   32   48 1
    57   38   39 ar
    58   44   46 ar
@<TRIPOS>SUBSTRUCTURE
     1 RES1 1
     2 RES2 29

@<TRIPOS>CRYSIN
   7.2891    7.8977   20.3356  90.5720  97.1030 104.9840   2 1

