# MOL2 file generated by ConQuest
# Please check atom types

@<TRIPOS>MOLECULE
XEVMET
    62    68     1
SMALL
NO_CHARGES
****
Generated from CSD

@<TRIPOS>ATOM
      1 C1         7.3843    4.5522   -3.2075 C.ar      1 RES1    0.0000
      2 H1         6.5949    4.0776   -3.0820 H         1 RES1    0.0000
      3 C2         7.6371    5.1125   -4.4299 C.ar      1 RES1    0.0000
      4 H2         7.0271    5.0094   -5.1245 H         1 RES1    0.0000
      5 C3         8.7992    5.8306   -4.6318 C.ar      1 RES1    0.0000
      6 H3         8.9713    6.2132   -5.4617 H         1 RES1    0.0000
      7 C4         9.6914    5.9784   -3.6170 C.ar      1 RES1    0.0000
      8 H4        10.4626    6.4779   -3.7638 H         1 RES1    0.0000
      9 C5         9.4845    5.3979   -2.3485 C.ar      1 RES1    0.0000
     10 C6         8.2856    4.6761   -2.1381 C.ar      1 RES1    0.0000
     11 C7        10.4401    5.4893   -1.2733 C.ar      1 RES1    0.0000
     12 C8        11.6553    6.1983   -1.4120 C.ar      1 RES1    0.0000
     13 H5        11.8521    6.6121   -2.2213 H         1 RES1    0.0000
     14 C9        12.5449    6.2865   -0.3812 C.ar      1 RES1    0.0000
     15 H6        13.3273    6.7773   -0.4883 H         1 RES1    0.0000
     16 C10       12.2928    5.6542    0.8196 C.ar      1 RES1    0.0000
     17 H7        12.9137    5.7076    1.5102 H         1 RES1    0.0000
     18 C11       11.1263    4.9435    1.0029 C.ar      1 RES1    0.0000
     19 H8        10.9628    4.5236    1.8167 H         1 RES1    0.0000
     20 C12       10.1789    4.8513   -0.0387 C.ar      1 RES1    0.0000
     21 C13        8.9314    4.1391    0.1581 C.ar      1 RES1    0.0000
     22 C14        8.0239    4.0689   -0.8516 C.ar      1 RES1    0.0000
     23 C15        8.6553    3.4924    1.4761 C.ar      1 RES1    0.0000
     24 C16        9.1331    2.2326    1.7492 C.ar      1 RES1    0.0000
     25 H9         9.6499    1.7903    1.1143 H         1 RES1    0.0000
     26 C17        8.8574    1.6151    2.9515 C.ar      1 RES1    0.0000
     27 H10        9.1841    0.7603    3.1201 H         1 RES1    0.0000
     28 C18        8.1091    2.2537    3.8928 C.ar      1 RES1    0.0000
     29 H11        7.9197    1.8388    4.7037 H         1 RES1    0.0000
     30 C19        7.6394    3.5048    3.6362 C.ar      1 RES1    0.0000
     31 H12        7.1339    3.9459    4.2814 H         1 RES1    0.0000
     32 C20        7.9005    4.1260    2.4397 C.ar      1 RES1    0.0000
     33 H13        7.5674    4.9795    2.2785 H         1 RES1    0.0000
     34 C21        6.7203    3.3763   -0.6422 C.ar      1 RES1    0.0000
     35 C22        5.5894    4.1049   -0.3463 C.ar      1 RES1    0.0000
     36 H14        5.6369    5.0330   -0.3255 H         1 RES1    0.0000
     37 C23        4.3912    3.4824   -0.0808 C.ar      1 RES1    0.0000
     38 H15        3.6396    4.0005    0.0953 H         1 RES1    0.0000
     39 C24        4.2793    2.1144   -0.0701 C.ar      1 RES1    0.0000
     40 C25        5.3978    1.3890   -0.3764 C.ar      1 RES1    0.0000
     41 H16        5.3485    0.4609   -0.3856 H         1 RES1    0.0000
     42 C26        6.6005    2.0040   -0.6727 C.ar      1 RES1    0.0000
     43 H17        7.3392    1.4834   -0.8959 H         1 RES1    0.0000
     44 C27        2.9768    1.4238    0.2840 C.3       1 RES1    0.0000
     45 H18        2.4589    1.2958   -0.5264 H         1 RES1    0.0000
     46 H19        3.1759    0.5467    0.6466 H         1 RES1    0.0000
     47 C28        2.5841    2.4376    2.4880 C.2       1 RES1    0.0000
     48 C29        3.7715    2.0003    3.0539 C.2       1 RES1    0.0000
     49 H20        4.3148    1.4225    2.5703 H         1 RES1    0.0000
     50 C30        4.1714    2.3991    4.3169 C.2       1 RES1    0.0000
     51 H21        4.9811    2.0785    4.6421 H         1 RES1    0.0000
     52 C31        3.4396    3.2389    5.1179 C.2       1 RES1    0.0000
     53 C32        2.1925    3.7061    4.6248 C.2       1 RES1    0.0000
     54 C33        1.7810    3.2936    3.3256 C.2       1 RES1    0.0000
     55 N1         2.1668    2.1593    1.2486 N.pl3     1 RES1    0.0000
     56 H22        1.3846    2.4264    1.0088 H         1 RES1    0.0000
     57 N2         0.6293    3.8410    3.0311 N.2       1 RES1    0.0000
     58 N3         1.2676    4.5061    5.1333 N.2       1 RES1    0.0000
     59 N4         3.9600    3.6763    6.3759 N.pl3     1 RES1    0.0000
     60 O1         0.3016    4.5854    4.1321 O.3       1 RES1    0.0000
     61 O2         3.3069    4.4950    7.0074 O.2       1 RES1    0.0000
     62 O3         5.0596    3.2476    6.7325 O.2       1 RES1    0.0000
@<TRIPOS>BOND
     1    1    2 1
     2    3    1 ar
     3    4    3 1
     4    5    3 ar
     5    6    5 1
     6    7    5 ar
     7    8    7 1
     8    9    7 ar
     9   10    1 ar
    10   11    9 ar
    11   12   11 ar
    12   13   12 1
    13   14   12 ar
    14   15   14 1
    15   16   14 ar
    16   17   16 1
    17   18   16 ar
    18   19   18 1
    19   20   11 ar
    20   21   20 ar
    21   22   10 ar
    22   23   21 1
    23   24   23 ar
    24   25   24 1
    25   26   24 ar
    26   27   26 1
    27   28   26 ar
    28   29   28 1
    29   30   28 ar
    30   31   30 1
    31   32   23 ar
    32   33   32 1
    33   34   22 1
    34   35   34 ar
    35   36   35 1
    36   37   35 ar
    37   38   37 1
    38   39   37 ar
    39   40   39 ar
    40   41   40 1
    41   42   34 ar
    42   43   42 1
    43   44   39 1
    44   45   44 1
    45   46   44 1
    46   47   48 2
    47   48   49 1
    48   50   48 1
    49   51   50 1
    50   52   50 2
    51   53   52 1
    52   54   47 1
    53   55   44 1
    54   56   55 1
    55   57   54 2
    56   58   53 2
    57   59   52 1
    58   60   57 1
    59   61   59 2
    60   62   59 2
    61    9   10 ar
    62   18   20 ar
    63   21   22 ar
    64   30   32 ar
    65   40   42 ar
    66   47   55 1
    67   53   54 1
    68   58   60 1
@<TRIPOS>SUBSTRUCTURE
     1 RES1 1

@<TRIPOS>CRYSIN
  14.3040   12.4240   15.2810  90.0000 106.3600  90.0000 231 1

