# MOL2 file generated by ConQuest
# Please check atom types

@<TRIPOS>MOLECULE
XEVNUK
    37    39     1
SMALL
USER_CHARGES
****
Generated from CSD

@<TRIPOS>ATOM
      1 O1         2.4297    0.4528    3.8800 O.3       1 RES1    0.0000
      2 N1         2.9390    0.6925    5.1390 N.2       1 RES1   -1.0000
      3 N2         3.4607    1.8765    5.0472 N.pl3     1 RES1    1.0000
      4 C1         3.3446    2.4497    3.8338 C.2       1 RES1    0.0000
      5 H1         3.6618    3.3064    3.5714 H         1 RES1    0.0000
      6 C2         2.6664    1.5316    3.0471 C.2       1 RES1    0.0000
      7 N3         2.2134    1.4124    1.8177 N.2       1 RES1    0.0000
      8 C3         2.5509    2.4244    0.9574 C.2       1 RES1    0.0000
      9 O2         3.2430    3.4138    1.2284 O.2       1 RES1    0.0000
     10 C4         2.0101    2.2348   -0.4311 C.ar      1 RES1    0.0000
     11 C5         1.2474    1.1153   -0.7663 C.ar      1 RES1    0.0000
     12 H2         1.0714    0.4526   -0.1097 H         1 RES1    0.0000
     13 C6         0.7434    0.9623   -2.0507 C.ar      1 RES1    0.0000
     14 H3         0.2223    0.1994   -2.2702 H         1 RES1    0.0000
     15 C7         1.0033    1.9300   -3.0148 C.ar      1 RES1    0.0000
     16 H4         0.6567    1.8301   -3.8938 H         1 RES1    0.0000
     17 C8         1.7700    3.0439   -2.6936 C.ar      1 RES1    0.0000
     18 H5         1.9531    3.6998   -3.3549 H         1 RES1    0.0000
     19 C9         2.2697    3.1981   -1.4064 C.ar      1 RES1    0.0000
     20 H6         2.7903    3.9620   -1.1892 H         1 RES1    0.0000
     21 C10        4.1444    2.4896    6.2240 C.3       1 RES1    0.0000
     22 H7         3.7029    3.3639    6.4263 H         1 RES1    0.0000
     23 C11        5.5994    2.7588    5.8488 C.3       1 RES1    0.0000
     24 H8         5.6352    3.3208    5.0342 H         1 RES1    0.0000
     25 H9         6.0572    1.9038    5.6543 H         1 RES1    0.0000
     26 C12        6.3097    3.4729    6.9988 C.3       1 RES1    0.0000
     27 H10        7.2671    3.5848    6.7721 H         1 RES1    0.0000
     28 H11        5.9174    4.3751    7.1157 H         1 RES1    0.0000
     29 C13        6.1886    2.6972    8.3079 C.3       1 RES1    0.0000
     30 H12        6.5604    3.2418    9.0460 H         1 RES1    0.0000
     31 H13        6.7225    1.8660    8.2455 H         1 RES1    0.0000
     32 C14        4.7366    2.3413    8.6264 C.3       1 RES1    0.0000
     33 H14        4.2341    3.1699    8.8280 H         1 RES1    0.0000
     34 H15        4.7105    1.7655    9.4317 H         1 RES1    0.0000
     35 C15        4.0598    1.6107    7.4602 C.3       1 RES1    0.0000
     36 H16        4.5136    0.7471    7.2931 H         1 RES1    0.0000
     37 H17        3.1119    1.4278    7.6802 H         1 RES1    0.0000
@<TRIPOS>BOND
     1    1    2 1
     2    2    3 1
     3    3    4 2
     4    4    5 1
     5    6    1 1
     6    7    6 2
     7    8    7 1
     8    9    8 2
     9   10    8 1
    10   11   10 ar
    11   12   11 1
    12   13   11 ar
    13   14   13 1
    14   15   13 ar
    15   16   15 1
    16   17   15 ar
    17   18   17 1
    18   19   10 ar
    19   20   19 1
    20   21    3 1
    21   22   21 1
    22   23   21 1
    23   24   23 1
    24   25   23 1
    25   26   23 1
    26   27   26 1
    27   28   26 1
    28   29   26 1
    29   30   29 1
    30   31   29 1
    31   32   29 1
    32   33   32 1
    33   34   32 1
    34   35   21 1
    35   36   35 1
    36   37   35 1
    37    4    6 1
    38   17   19 ar
    39   32   35 1
@<TRIPOS>SUBSTRUCTURE
     1 RES1 1

@<TRIPOS>CRYSIN
   9.7085   17.9600    7.7222  90.0000 103.2360  90.0000  14 1

