# MOL2 file generated by ConQuest
# Please check atom types

@<TRIPOS>MOLECULE
XEVQAS
   126   116     2
SMALL
NO_CHARGES
****
Generated from CSD

@<TRIPOS>ATOM
      1 O1         2.8851   22.6005   39.0444 O.3       1 RES1    0.0000
      2 O2         0.4023   23.8940   41.3421 O.3       1 RES1    0.0000
      3 O3         0.1498   25.7996   40.1991 O.2       1 RES1    0.0000
      4 O4         1.6903   20.8444   40.8648 O.3       1 RES1    0.0000
      5 O5        -0.1369   20.0036   41.8814 O.2       1 RES1    0.0000
      6 O6         0.3647   19.3083   38.8936 O.3       1 RES1    0.0000
      7 O7        -1.7443   20.1003   38.8249 O.2       1 RES1    0.0000
      8 O8         3.9997   18.6385   37.2536 O.2       1 RES1    0.0000
      9 O9         2.1305   19.8002   36.7763 O.3       1 RES1    0.0000
     10 O10        7.4498   24.3850   37.2807 O.3       1 RES1    0.0000
     11 O11        1.6750   25.7866   32.2596 O.2       1 RES1    0.0000
     12 O12        2.3649   27.5182   33.3575 O.2       1 RES1    0.0000
     13 N1         4.1871   21.6995   37.2803 N.3       1 RES1    0.0000
     14 N2         2.2836   26.3058   33.1897 N.pl3     1 RES1    0.0000
     15 C1         2.8724   21.8686   37.7969 C.3       1 RES1    0.0000
     16 H1         2.3195   22.3689   37.1299 H         1 RES1    0.0000
     17 C2         1.5637   22.8205   39.5374 C.3       1 RES1    0.0000
     18 H2         1.0305   23.3013   38.8433 H         1 RES1    0.0000
     19 C3         0.8833   21.4940   39.8595 C.3       1 RES1    0.0000
     20 H3        -0.0437   21.6493   40.2026 H         1 RES1    0.0000
     21 C4         0.8516   20.6380   38.5990 C.3       1 RES1    0.0000
     22 H4         0.2593   21.0686   37.9167 H         1 RES1    0.0000
     23 C5         2.2476   20.4892   38.0343 C.3       1 RES1    0.0000
     24 H5         2.8168   19.9603   38.6641 H         1 RES1    0.0000
     25 C6         1.7127   23.7175   40.7608 C.3       1 RES1    0.0000
     26 H6         2.3238   23.2990   41.4177 H         1 RES1    0.0000
     27 H7         2.0893   24.5946   40.4955 H         1 RES1    0.0000
     28 C7        -0.3184   24.9384   40.8932 C.2       1 RES1    0.0000
     29 C8        -1.7589   24.8526   41.3823 C.3       1 RES1    0.0000
     30 C9        -2.3221   23.4271   40.9972 C.3       1 RES1    0.0000
     31 H8        -3.2790   23.3869   41.2035 H         1 RES1    0.0000
     32 H9        -1.8471   22.7390   41.5095 H         1 RES1    0.0000
     33 H10       -2.1894   23.2712   40.0409 H         1 RES1    0.0000
     34 C10       -1.8025   24.9972   42.8692 C.3       1 RES1    0.0000
     35 H11       -1.5261   25.9019   43.1179 H         1 RES1    0.0000
     36 H12       -1.1940   24.3448   43.2797 H         1 RES1    0.0000
     37 H13       -2.7158   24.8353   43.1879 H         1 RES1    0.0000
     38 C11       -2.5994   25.8487   40.6052 C.3       1 RES1    0.0000
     39 H14       -2.2990   26.7603   40.8102 H         1 RES1    0.0000
     40 H15       -3.5409   25.7515   40.8582 H         1 RES1    0.0000
     41 H16       -2.5001   25.6821   39.6432 H         1 RES1    0.0000
     42 C12        1.0579   20.1232   41.8224 C.2       1 RES1    0.0000
     43 C13        2.0679   19.5367   42.7967 C.3       1 RES1    0.0000
     44 C14        3.1549   18.8289   42.0296 C.3       1 RES1    0.0000
     45 H17        3.6282   19.4744   41.4658 H         1 RES1    0.0000
     46 H18        2.7569   18.1325   41.4658 H         1 RES1    0.0000
     47 H19        3.7857   18.4217   42.6590 H         1 RES1    0.0000
     48 C15        1.3618   18.5640   43.7237 C.3       1 RES1    0.0000
     49 H20        0.6864   19.0441   44.2456 H         1 RES1    0.0000
     50 H21        2.0157   18.1556   44.3287 H         1 RES1    0.0000
     51 H22        0.9270   17.8641   43.1922 H         1 RES1    0.0000
     52 C16        2.6225   20.6923   43.6132 C.3       1 RES1    0.0000
     53 H23        3.1549   21.2768   43.0349 H         1 RES1    0.0000
     54 H24        3.1891   20.3421   44.3330 H         1 RES1    0.0000
     55 H25        1.8821   21.2027   44.0008 H         1 RES1    0.0000
     56 C17       -0.9869   19.1757   38.9919 C.2       1 RES1    0.0000
     57 C18       -1.4054   17.7403   39.2712 C.3       1 RES1    0.0000
     58 C19       -2.7406   17.7690   40.0217 C.3       1 RES1    0.0000
     59 H26       -2.6259   18.2389   40.8757 H         1 RES1    0.0000
     60 H27       -3.0393   16.8507   40.1895 H         1 RES1    0.0000
     61 H28       -3.4099   18.2366   39.4771 H         1 RES1    0.0000
     62 C20       -0.3663   16.9863   40.0968 C.3       1 RES1    0.0000
     63 H29       -0.2739   17.4129   40.9763 H         1 RES1    0.0000
     64 H30        0.4964   17.0057   39.6300 H         1 RES1    0.0000
     65 H31       -0.6539   16.0571   40.2157 H         1 RES1    0.0000
     66 C21       -1.5963   17.0647   37.9005 C.3       1 RES1    0.0000
     67 H32       -0.7387   17.0381   37.4272 H         1 RES1    0.0000
     68 H33       -2.2451   17.5749   37.3703 H         1 RES1    0.0000
     69 H34       -1.9284   16.1519   38.0303 H         1 RES1    0.0000
     70 C22        3.0933   18.8798   36.5045 C.2       1 RES1    0.0000
     71 C23        2.8493   18.1771   35.1771 C.3       1 RES1    0.0000
     72 C24        2.5968   19.1868   34.0555 C.3       1 RES1    0.0000
     73 H35        3.3612   19.7960   33.9873 H         1 RES1    0.0000
     74 H36        1.7863   19.7012   34.2540 H         1 RES1    0.0000
     75 H37        2.4813   18.7109   33.2050 H         1 RES1    0.0000
     76 C25        4.0707   17.3354   34.8388 C.3       1 RES1    0.0000
     77 H38        4.8479   17.9196   34.7216 H         1 RES1    0.0000
     78 H39        3.9064   16.8391   34.0092 H         1 RES1    0.0000
     79 H40        4.2445   16.7049   35.5696 H         1 RES1    0.0000
     80 C26        1.6125   17.2877   35.3567 C.3       1 RES1    0.0000
     81 H41        1.7538   16.6795   36.1115 H         1 RES1    0.0000
     82 H42        1.4636   16.7651   34.5424 H         1 RES1    0.0000
     83 H43        0.8285   17.8502   35.5302 H         1 RES1    0.0000
     84 C27        4.9677   22.9031   36.9739 C.3       1 RES1    0.0000
     85 H44        5.0910   23.4239   37.8205 H         1 RES1    0.0000
     86 C28        6.3517   22.4161   36.4949 C.3       1 RES1    0.0000
     87 H45        6.7497   21.8945   37.2480 H         1 RES1    0.0000
     88 C29        6.2961   21.4686   35.2802 C.3       1 RES1    0.0000
     89 H46        5.7329   20.6845   35.4996 H         1 RES1    0.0000
     90 H47        5.8844   21.9385   34.5118 H         1 RES1    0.0000
     91 C30        7.6929   21.0015   34.8995 C.3       1 RES1    0.0000
     92 H48        8.0507   20.4091   35.6089 H         1 RES1    0.0000
     93 H49        7.6535   20.4855   34.0573 H         1 RES1    0.0000
     94 C31        8.6079   22.1990   34.7247 C.3       1 RES1    0.0000
     95 H50        9.5263   21.8876   34.5293 H         1 RES1    0.0000
     96 H51        8.2980   22.7414   33.9567 H         1 RES1    0.0000
     97 O13        8.6182   23.0026   35.9044 O.3       1 RES1    0.0000
     98 C32        7.3223   23.5394   36.1806 C.3       1 RES1    0.0000
     99 H52        6.9954   24.0579   35.3904 H         1 RES1    0.0000
    100 C33        8.1859   25.5773   36.9774 C.3       1 RES1    0.0000
    101 H53        8.1705   26.1772   37.7506 H         1 RES1    0.0000
    102 H54        7.7777   26.0268   36.2077 H         1 RES1    0.0000
    103 H55        9.1137   25.3443   36.7628 H         1 RES1    0.0000
    104 C34        4.2453   23.7818   35.9704 C.ar      1 RES1    0.0000
    105 C35        4.2556   25.1721   36.1308 C.ar      1 RES1    0.0000
    106 H56        4.7066   25.5525   36.8764 H         1 RES1    0.0000
    107 C36        3.6248   26.0002   35.2282 C.ar      1 RES1    0.0000
    108 H57        3.6385   26.9430   35.3423 H         1 RES1    0.0000
    109 C37        2.9709   25.4269   34.1521 C.ar      1 RES1    0.0000
    110 C38        2.9289   24.0613   33.9563 C.ar      1 RES1    0.0000
    111 H58        2.4736   23.6923   33.2093 H         1 RES1    0.0000
    112 C39        3.5657   23.2420   34.8746 C.ar      1 RES1    0.0000
    113 H59        3.5400   22.2994   34.7566 H         1 RES1    0.0000
    114 H60        4.6476   21.1310   37.7812 H         1 RES1    0.0000
    115 C40       -1.9172   24.0902   42.6896 Du        2 SUP2    0.0000
    116 H61       -1.1640   24.2869   43.2797 Du        2 SUP2    0.0000
    117 H62       -1.9489   23.1277   42.5017 Du        2 SUP2    0.0000
    118 H63       -2.7552   24.3609   43.1267 Du        2 SUP2    0.0000
    119 C41       -2.0114   26.3345   41.9116 Du        2 SUP2    0.0000
    120 H64       -1.8719   26.9708   41.1773 Du        2 SUP2    0.0000
    121 H65       -1.3926   26.5335   42.6415 Du        2 SUP2    0.0000
    122 H66       -2.9358   26.4109   42.2350 Du        2 SUP2    0.0000
    123 C42       -2.8074   24.6155   40.3643 Du        2 SUP2    0.0000
    124 H67       -2.8151   25.3582   39.7262 Du        2 SUP2    0.0000
    125 H68       -3.6787   24.5507   40.8058 Du        2 SUP2    0.0000
    126 H69       -2.6157   23.7802   39.8923 Du        2 SUP2    0.0000
@<TRIPOS>BOND
     1    1   15 1
     2    2   25 1
     3    3   28 2
     4    4   19 1
     5    5   42 2
     6    6   21 1
     7    7   56 2
     8    8   70 2
     9    9   23 1
    10   10   98 1
    11   11   14 2
    12   12   14 2
    13   13   15 1
    14   14  109 1
    15   15   16 1
    16   17    1 1
    17   18   17 1
    18   19   17 1
    19   20   19 1
    20   21   19 1
    21   22   21 1
    22   23   15 1
    23   24   23 1
    24   25   17 1
    25   26   25 1
    26   27   25 1
    27   28    2 1
    28   29   28 1
    29   30   29 1
    30   31   30 1
    31   32   30 1
    32   33   30 1
    33   34   29 1
    34   35   34 1
    35   36   34 1
    36   37   34 1
    37   38   29 1
    38   39   38 1
    39   40   38 1
    40   41   38 1
    41   42    4 1
    42   43   42 1
    43   44   43 1
    44   45   44 1
    45   46   44 1
    46   47   44 1
    47   48   43 1
    48   49   48 1
    49   50   48 1
    50   51   48 1
    51   52   43 1
    52   53   52 1
    53   54   52 1
    54   55   52 1
    55   56    6 1
    56   57   56 1
    57   58   57 1
    58   59   58 1
    59   60   58 1
    60   61   58 1
    61   62   57 1
    62   63   62 1
    63   64   62 1
    64   65   62 1
    65   66   57 1
    66   67   66 1
    67   68   66 1
    68   69   66 1
    69   70    9 1
    70   71   70 1
    71   72   71 1
    72   73   72 1
    73   74   72 1
    74   75   72 1
    75   76   71 1
    76   77   76 1
    77   78   76 1
    78   79   76 1
    79   80   71 1
    80   81   80 1
    81   82   80 1
    82   83   80 1
    83   84   13 1
    84   85   84 1
    85   86   84 1
    86   87   86 1
    87   88   86 1
    88   89   88 1
    89   90   88 1
    90   91   88 1
    91   92   91 1
    92   93   91 1
    93   94   91 1
    94   95   94 1
    95   96   94 1
    96   97   94 1
    97   98   86 1
    98   99   98 1
    99  100   10 1
   100  101  100 1
   101  102  100 1
   102  103  100 1
   103  104   84 1
   104  105  104 ar
   105  106  105 1
   106  107  105 ar
   107  108  107 1
   108  109  107 ar
   109  110  109 ar
   110  111  110 1
   111  112  104 ar
   112  113  112 1
   113  114   13 1
   114   21   23 1
   115   97   98 1
   116  110  112 ar
@<TRIPOS>SUBSTRUCTURE
     1 RES1 1
     2 SUP2 115

@<TRIPOS>CRYSIN
   8.5591   23.1370   43.7080  90.0000  90.0000  90.0000  20 1

