# MOL2 file generated by ConQuest
# Please check atom types

@<TRIPOS>MOLECULE
XEVYEE
    62    63     1
SMALL
NO_CHARGES
****
Generated from CSD

@<TRIPOS>ATOM
      1 O1        -5.1765   -7.8706   19.4146 O.2       1 RES1    0.0000
      2 O2        -3.5680   -9.0658   18.6068 O.2       1 RES1    0.0000
      3 O3         1.5617    1.7351   14.1847 O.3       1 RES1    0.0000
      4 N1        -4.1233   -7.9881   18.8288 N.pl3     1 RES1    0.0000
      5 C1        -3.4661   -6.7592   18.3385 C.ar      1 RES1    0.0000
      6 C2        -4.0762   -5.5408   18.5157 C.ar      1 RES1    0.0000
      7 C3        -3.4796   -4.4187   18.0045 C.ar      1 RES1    0.0000
      8 C4        -2.2639   -4.4856   17.3128 C.ar      1 RES1    0.0000
      9 C5        -1.6812   -5.7422   17.1688 C.ar      1 RES1    0.0000
     10 C6        -2.2775   -6.8756   17.6737 C.ar      1 RES1    0.0000
     11 C7        -1.6748   -3.2487   16.8133 C.2       1 RES1    0.0000
     12 C8        -0.5718   -3.1070   16.1168 C.2       1 RES1    0.0000
     13 C9         0.0033   -1.8455   15.6176 C.ar      1 RES1    0.0000
     14 C10       -0.5609   -0.5928   15.8807 C.ar      1 RES1    0.0000
     15 C11       -0.0079    0.5437   15.4024 C.ar      1 RES1    0.0000
     16 C12        1.1303    0.5073   14.6238 C.ar      1 RES1    0.0000
     17 C13        1.7340   -0.7050   14.3440 C.ar      1 RES1    0.0000
     18 C14        1.1560   -1.8672   14.8552 C.ar      1 RES1    0.0000
     19 C15        2.7365    1.8224   13.3779 C.3       1 RES1    0.0000
     20 C16        2.9194    3.2870   13.0819 C.3       1 RES1    0.0000
     21 C17        4.1398    3.6254   12.2721 C.3       1 RES1    0.0000
     22 C18        4.2580    5.1158   12.0072 C.3       1 RES1    0.0000
     23 C19        5.4685    5.5579   11.2209 C.3       1 RES1    0.0000
     24 C20        5.5536    7.0547   10.9963 C.3       1 RES1    0.0000
     25 C21        6.7474    7.5154   10.1937 C.3       1 RES1    0.0000
     26 C22        6.8142    9.0020    9.9598 C.3       1 RES1    0.0000
     27 C23        8.0193    9.4758    9.1750 C.3       1 RES1    0.0000
     28 C24        8.1088   10.9585    8.9398 C.3       1 RES1    0.0000
     29 C25        9.3527   11.3850    8.1745 C.3       1 RES1    0.0000
     30 H1        -4.8912   -5.4789   18.9815 H         1 RES1    0.0000
     31 H2        -3.8960   -3.5845   18.1203 H         1 RES1    0.0000
     32 H3        -0.8610   -5.8179   16.7149 H         1 RES1    0.0000
     33 H4        -1.8729   -7.7169   17.5637 H         1 RES1    0.0000
     34 H5        -2.1414   -2.4578   17.0145 H         1 RES1    0.0000
     35 H6        -0.0980   -3.8941   15.9136 H         1 RES1    0.0000
     36 H7        -1.3416   -0.5417   16.4004 H         1 RES1    0.0000
     37 H8        -0.4045    1.3713   15.6041 H         1 RES1    0.0000
     38 H9         2.5145   -0.7445   13.8218 H         1 RES1    0.0000
     39 H10        1.5649   -2.6946   14.6755 H         1 RES1    0.0000
     40 H11        2.6226    1.3140   12.5487 H         1 RES1    0.0000
     41 H12        3.5127    1.4688   13.8592 H         1 RES1    0.0000
     42 H13        2.1281    3.6093   12.6011 H         1 RES1    0.0000
     43 H14        2.9661    3.7718   13.9316 H         1 RES1    0.0000
     44 H15        4.1006    3.1481   11.4154 H         1 RES1    0.0000
     45 H16        4.9384    3.3199   12.7509 H         1 RES1    0.0000
     46 H17        3.4558    5.4062   11.5252 H         1 RES1    0.0000
     47 H18        4.2656    5.5811   12.8707 H         1 RES1    0.0000
     48 H19        5.4569    5.1106   10.3495 H         1 RES1    0.0000
     49 H20        6.2748    5.2653   11.6950 H         1 RES1    0.0000
     50 H21        4.7389    7.3470   10.5367 H         1 RES1    0.0000
     51 H22        5.5759    7.4987   11.8697 H         1 RES1    0.0000
     52 H23        7.5636    7.2356   10.6590 H         1 RES1    0.0000
     53 H24        6.7333    7.0622    9.3235 H         1 RES1    0.0000
     54 H25        6.8123    9.4535   10.8288 H         1 RES1    0.0000
     55 H26        6.0037    9.2786    9.4833 H         1 RES1    0.0000
     56 H27        8.8276    9.1904    9.6505 H         1 RES1    0.0000
     57 H28        8.0161    9.0248    8.3050 H         1 RES1    0.0000
     58 H29        8.0981   11.4175    9.8053 H         1 RES1    0.0000
     59 H30        7.3162   11.2473    8.4398 H         1 RES1    0.0000
     60 H31        9.2717   12.3183    7.9181 H         1 RES1    0.0000
     61 H32        9.4463   10.8387    7.3789 H         1 RES1    0.0000
     62 H33       10.1341   11.2720    8.7394 H         1 RES1    0.0000
@<TRIPOS>BOND
     1    1    4 2
     2    2    4 2
     3    3   16 1
     4    4    5 1
     5    5    6 ar
     6    6    7 ar
     7    7    8 ar
     8    8    9 ar
     9    9   10 ar
    10   10    5 ar
    11   11    8 1
    12   12   11 2
    13   13   12 1
    14   14   13 ar
    15   15   14 ar
    16   16   15 ar
    17   17   16 ar
    18   18   13 ar
    19   19    3 1
    20   20   19 1
    21   21   20 1
    22   22   21 1
    23   23   22 1
    24   24   23 1
    25   25   24 1
    26   26   25 1
    27   27   26 1
    28   28   27 1
    29   29   28 1
    30   30    6 1
    31   31    7 1
    32   32    9 1
    33   33   10 1
    34   34   11 1
    35   35   12 1
    36   36   14 1
    37   37   15 1
    38   38   17 1
    39   39   18 1
    40   40   19 1
    41   41   19 1
    42   42   20 1
    43   43   20 1
    44   44   21 1
    45   45   21 1
    46   46   22 1
    47   47   22 1
    48   48   23 1
    49   49   23 1
    50   50   24 1
    51   51   24 1
    52   52   25 1
    53   53   25 1
    54   54   26 1
    55   55   26 1
    56   56   27 1
    57   57   27 1
    58   58   28 1
    59   59   28 1
    60   60   29 1
    61   61   29 1
    62   62   29 1
    63   17   18 ar
@<TRIPOS>SUBSTRUCTURE
     1 RES1 1

@<TRIPOS>CRYSIN
   5.7884   15.4772   25.2299  90.0000  98.3482  90.0000 231 1

