# MOL2 file generated by ConQuest
# Please check atom types

@<TRIPOS>MOLECULE
XEVYII
    56    57     1
SMALL
NO_CHARGES
****
Generated from CSD

@<TRIPOS>ATOM
      1 O1        -3.0119   10.3134   13.0924 O.2       1 RES1    0.0000
      2 O2        -1.7300   11.5803   11.9583 O.2       1 RES1    0.0000
      3 O3         4.3199    1.1366    7.8809 O.3       1 RES1    0.0000
      4 N1        -2.0608   10.4803   12.3729 N.pl3     1 RES1    0.0000
      5 C1        -1.3386    9.3268   11.9026 C.ar      1 RES1    0.0000
      6 C2        -1.6933    8.0669   12.2845 C.ar      1 RES1    0.0000
      7 C3        -0.9930    6.9831   11.8063 C.ar      1 RES1    0.0000
      8 C4         0.1598    7.0870   11.0258 C.ar      1 RES1    0.0000
      9 C5         0.4976    8.3732   10.6881 C.ar      1 RES1    0.0000
     10 C6        -0.2274    9.4842   11.1336 C.ar      1 RES1    0.0000
     11 C7         0.8473    5.8803   10.5891 C.2       1 RES1    0.0000
     12 C8         1.9491    5.8169    9.8767 C.2       1 RES1    0.0000
     13 C9         2.6203    4.5909    9.4012 C.ar      1 RES1    0.0000
     14 C10        2.0396    3.2988    9.5824 C.ar      1 RES1    0.0000
     15 C11        2.6684    2.1953    9.0794 C.ar      1 RES1    0.0000
     16 C12        3.8361    2.3071    8.3644 C.ar      1 RES1    0.0000
     17 C13        4.4080    3.5567    8.1708 C.ar      1 RES1    0.0000
     18 C14        3.8267    4.6724    8.6658 C.ar      1 RES1    0.0000
     19 C15        5.5480    1.1516    7.1136 C.3       1 RES1    0.0000
     20 C16        5.8008   -0.3008    6.7141 C.3       1 RES1    0.0000
     21 C17        7.0942   -0.5161    5.8779 C.3       1 RES1    0.0000
     22 C18        7.2277   -1.9654    5.4881 C.3       1 RES1    0.0000
     23 C19        8.4691   -2.3366    4.6926 C.3       1 RES1    0.0000
     24 C20        8.5832   -3.7748    4.3514 C.3       1 RES1    0.0000
     25 C21        9.7992   -4.2067    3.5480 C.3       1 RES1    0.0000
     26 C22        9.8386   -5.7114    3.2642 C.3       1 RES1    0.0000
     27 C23       11.0286   -6.1429    2.4387 C.3       1 RES1    0.0000
     28 H1        -2.4149    7.9409   12.8731 H         1 RES1    0.0000
     29 H2        -1.3094    6.1220   12.0166 H         1 RES1    0.0000
     30 H3         1.2449    8.5118   10.1357 H         1 RES1    0.0000
     31 H4         0.0560   10.3504   10.8994 H         1 RES1    0.0000
     32 H5         0.4629    5.0630   10.8437 H         1 RES1    0.0000
     33 H6         2.3505    6.6338    9.6469 H         1 RES1    0.0000
     34 H7         1.2273    3.2087   10.0464 H         1 RES1    0.0000
     35 H8         2.2957    1.3465    9.2253 H         1 RES1    0.0000
     36 H9         5.2110    3.6260    7.6873 H         1 RES1    0.0000
     37 H10        4.2280    5.5079    8.5199 H         1 RES1    0.0000
     38 H11        6.2887    1.4921    7.6555 H         1 RES1    0.0000
     39 H12        5.4509    1.7165    6.3190 H         1 RES1    0.0000
     40 H13        5.0338   -0.6220    6.1953 H         1 RES1    0.0000
     41 H14        5.8580   -0.8465    7.5273 H         1 RES1    0.0000
     42 H15        7.0602    0.0394    5.0718 H         1 RES1    0.0000
     43 H16        7.8748   -0.2441    6.4039 H         1 RES1    0.0000
     44 H17        6.4400   -2.2165    4.9613 H         1 RES1    0.0000
     45 H18        7.2154   -2.5039    6.3058 H         1 RES1    0.0000
     46 H19        8.4733   -1.8189    3.8609 H         1 RES1    0.0000
     47 H20        9.2599   -2.0748    5.2079 H         1 RES1    0.0000
     48 H21        7.7822   -4.0315    3.8494 H         1 RES1    0.0000
     49 H22        8.5772   -4.2835    5.1885 H         1 RES1    0.0000
     50 H23       10.6092   -3.9567    4.0377 H         1 RES1    0.0000
     51 H24        9.8035   -3.7244    2.6959 H         1 RES1    0.0000
     52 H25        9.8538   -6.1929    4.1172 H         1 RES1    0.0000
     53 H26        9.0177   -5.9646    2.7931 H         1 RES1    0.0000
     54 H27       11.0043   -7.1063    2.3141 H         1 RES1    0.0000
     55 H28       11.8466   -5.8976    2.8974 H         1 RES1    0.0000
     56 H29       10.9987   -5.7047    1.5742 H         1 RES1    0.0000
@<TRIPOS>BOND
     1    1    4 2
     2    2    4 2
     3    3   16 1
     4    4    5 1
     5    5    6 ar
     6    6    7 ar
     7    7    8 ar
     8    8    9 ar
     9    9   10 ar
    10   10    5 ar
    11   11    8 1
    12   12   11 2
    13   13   12 1
    14   14   13 ar
    15   15   14 ar
    16   16   15 ar
    17   17   16 ar
    18   18   13 ar
    19   19    3 1
    20   20   19 1
    21   21   20 1
    22   22   21 1
    23   23   22 1
    24   24   23 1
    25   25   24 1
    26   26   25 1
    27   27   26 1
    28   28    6 1
    29   29    7 1
    30   30    9 1
    31   31   10 1
    32   32   11 1
    33   33   12 1
    34   34   14 1
    35   35   15 1
    36   36   17 1
    37   37   18 1
    38   38   19 1
    39   39   19 1
    40   40   20 1
    41   41   20 1
    42   42   21 1
    43   43   21 1
    44   44   22 1
    45   45   22 1
    46   46   23 1
    47   47   23 1
    48   48   24 1
    49   49   24 1
    50   50   25 1
    51   51   25 1
    52   52   26 1
    53   53   26 1
    54   54   27 1
    55   55   27 1
    56   56   27 1
    57   17   18 ar
@<TRIPOS>SUBSTRUCTURE
     1 RES1 1

@<TRIPOS>CRYSIN
   5.9326   39.3700    8.8394  90.0000  90.5320  90.0000  14 1

