# MOL2 file generated by ConQuest
# Please check atom types

@<TRIPOS>MOLECULE
XEWHUD
    63    66     1
SMALL
NO_CHARGES
****
Generated from CSD

@<TRIPOS>ATOM
      1 O1         7.2989    8.2535    5.1805 O.3       1 RES1    0.0000
      2 O2         6.6572    6.9329    8.9805 O.3       1 RES1    0.0000
      3 O3         5.5415    5.0478    7.0335 O.3       1 RES1    0.0000
      4 O4         7.3710   12.4278   11.8109 O.3       1 RES1    0.0000
      5 O5         3.6089   10.2365    6.3515 O.2       1 RES1    0.0000
      6 O6         3.6324    6.1880    7.1941 O.2       1 RES1    0.0000
      7 N1         4.8766    8.5694    7.2587 N.am      1 RES1    0.0000
      8 N2         7.1323    9.7151    5.2807 N.3       1 RES1    0.0000
      9 C1         4.4000    9.3016    6.2383 C.2       1 RES1    0.0000
     10 C2         5.0311    8.8494    4.9520 C.3       1 RES1    0.0000
     11 H1         4.3643    8.5749    4.2884 H         1 RES1    0.0000
     12 C3         5.9774    7.7016    5.3326 C.3       1 RES1    0.0000
     13 C4         5.6841    7.4207    6.8605 C.3       1 RES1    0.0000
     14 C5         5.9740    9.9120    4.4143 C.3       1 RES1    0.0000
     15 H2         6.1938    9.7562    3.4835 H         1 RES1    0.0000
     16 H3         5.6013   10.8025    4.5137 H         1 RES1    0.0000
     17 C6         8.3592   10.2623    4.7312 C.3       1 RES1    0.0000
     18 H4         8.4969    9.9127    3.8479 H         1 RES1    0.0000
     19 H5         9.0986   10.0169    5.2921 H         1 RES1    0.0000
     20 H6         8.2927   11.2187    4.6903 H         1 RES1    0.0000
     21 C7         5.9359    6.4842    4.4331 C.3       1 RES1    0.0000
     22 H7         6.1210    6.7477    3.5288 H         1 RES1    0.0000
     23 H8         5.0650    6.0837    4.4772 H         1 RES1    0.0000
     24 H9         6.5948    5.8492    4.7235 H         1 RES1    0.0000
     25 C8         4.8178    6.1684    7.0477 C.2       1 RES1    0.0000
     26 C9         4.8177    3.8098    7.2066 C.3       1 RES1    0.0000
     27 H10        4.2674    3.8677    7.9917 H         1 RES1    0.0000
     28 H11        5.4397    3.0858    7.3049 H         1 RES1    0.0000
     29 H12        4.2633    3.6530    6.4393 H         1 RES1    0.0000
     30 C10        4.4057    8.7922    8.6266 C.3       1 RES1    0.0000
     31 H13        4.3973    7.9426    9.0936 H         1 RES1    0.0000
     32 H14        3.4928    9.1174    8.5912 H         1 RES1    0.0000
     33 C11        5.2350    9.7689    9.4193 C.ar      1 RES1    0.0000
     34 C12        5.2733    9.6721   10.7962 C.ar      1 RES1    0.0000
     35 H15        4.8117    8.9833   11.2168 H         1 RES1    0.0000
     36 C13        5.9780   10.5694   11.5580 C.ar      1 RES1    0.0000
     37 H16        5.9820   10.4845   12.4833 H         1 RES1    0.0000
     38 C14        6.6761   11.5913   10.9640 C.ar      1 RES1    0.0000
     39 C15        6.6682   11.7145    9.5938 C.ar      1 RES1    0.0000
     40 H17        7.1408   12.4016    9.1808 H         1 RES1    0.0000
     41 C16        5.9459   10.8000    8.8319 C.ar      1 RES1    0.0000
     42 H18        5.9403   10.8838    7.9067 H         1 RES1    0.0000
     43 C17        8.1934   13.4225   11.2433 C.3       1 RES1    0.0000
     44 H19        8.8918   13.0065   10.7310 H         1 RES1    0.0000
     45 H20        8.5819   13.9530   11.9423 H         1 RES1    0.0000
     46 H21        7.6675   13.9841   10.6703 H         1 RES1    0.0000
     47 C18        6.9759    7.2895    7.6461 C.3       1 RES1    0.0000
     48 H22        7.5387    6.6077    7.2464 H         1 RES1    0.0000
     49 H23        7.4585    8.1298    7.6328 H         1 RES1    0.0000
     50 C19        7.7785    6.5968    9.7307 C.3       1 RES1    0.0000
     51 H24        8.4664    7.2700    9.6092 H         1 RES1    0.0000
     52 H25        8.1319    5.7463    9.4270 H         1 RES1    0.0000
     53 C20        7.4154    6.5037   11.1881 C.ar      1 RES1    0.0000
     54 C21        8.3253    6.8806   12.1432 C.ar      1 RES1    0.0000
     55 H26        9.1642    7.1850   11.8804 H         1 RES1    0.0000
     56 C22        8.0163    6.8184   13.4913 C.ar      1 RES1    0.0000
     57 H27        8.6451    7.0726   14.1284 H         1 RES1    0.0000
     58 C23        6.7797    6.3806   13.8789 C.ar      1 RES1    0.0000
     59 H28        6.5677    6.3358   14.7832 H         1 RES1    0.0000
     60 C24        5.8533    6.0068   12.9470 C.ar      1 RES1    0.0000
     61 H29        5.0111    5.7190   13.2142 H         1 RES1    0.0000
     62 C25        6.1744    6.0602   11.6033 C.ar      1 RES1    0.0000
     63 H30        5.5471    5.7933   10.9706 H         1 RES1    0.0000
@<TRIPOS>BOND
     1    1    8 1
     2    2   47 1
     3    3   25 1
     4    4   38 1
     5    5    9 2
     6    6   25 2
     7    7    9 1
     8    8   14 1
     9    9   10 1
    10   10   11 1
    11   12    1 1
    12   13    7 1
    13   14   10 1
    14   15   14 1
    15   16   14 1
    16   17    8 1
    17   18   17 1
    18   19   17 1
    19   20   17 1
    20   21   12 1
    21   22   21 1
    22   23   21 1
    23   24   21 1
    24   25   13 1
    25   26    3 1
    26   27   26 1
    27   28   26 1
    28   29   26 1
    29   30    7 1
    30   31   30 1
    31   32   30 1
    32   33   30 1
    33   34   33 ar
    34   35   34 1
    35   36   34 ar
    36   37   36 1
    37   38   36 ar
    38   39   38 ar
    39   40   39 1
    40   41   33 ar
    41   42   41 1
    42   43    4 1
    43   44   43 1
    44   45   43 1
    45   46   43 1
    46   47   13 1
    47   48   47 1
    48   49   47 1
    49   50    2 1
    50   51   50 1
    51   52   50 1
    52   53   50 1
    53   54   53 ar
    54   55   54 1
    55   56   54 ar
    56   57   56 1
    57   58   56 ar
    58   59   58 1
    59   60   58 ar
    60   61   60 1
    61   62   53 ar
    62   63   62 1
    63   10   12 1
    64   12   13 1
    65   39   41 ar
    66   60   62 ar
@<TRIPOS>SUBSTRUCTURE
     1 RES1 1

@<TRIPOS>CRYSIN
  10.8350   11.1530   11.6300  71.7440  83.6770  65.2160   2 1

