# MOL2 file generated by ConQuest
# Please check atom types

@<TRIPOS>MOLECULE
XEWJIU
    50    53     1
SMALL
NO_CHARGES
****
Generated from CSD

@<TRIPOS>ATOM
      1 N1         5.7316   -0.0600    0.7019 N.pl3     1 RES1    0.0000
      2 N2         4.3953   -4.8761    3.1931 N.pl3     1 RES1    0.0000
      3 O1         3.3217   -4.9640    3.8073 O.2       1 RES1    0.0000
      4 O2         5.1877   -5.8259    3.0961 O.2       1 RES1    0.0000
      5 C1         4.8805    1.1451    0.6227 C.3       1 RES1    0.0000
      6 H1         4.3405    1.2381    1.4473 H         1 RES1    0.0000
      7 C2         5.9211    2.2537    0.5455 C.3       1 RES1    0.0000
      8 H2         5.5610    3.0405    0.0848 H         1 RES1    0.0000
      9 H3         6.2172    2.5169    1.4420 H         1 RES1    0.0000
     10 C3         7.0640    1.6396   -0.2449 C.3       1 RES1    0.0000
     11 H4         7.9116    2.0871   -0.0398 H         1 RES1    0.0000
     12 H5         6.8964    1.7033   -1.2087 H         1 RES1    0.0000
     13 C4         7.0902    0.1893    0.2081 C.3       1 RES1    0.0000
     14 H6         7.3049   -0.4068   -0.5408 H         1 RES1    0.0000
     15 H7         7.7507    0.0566    0.9198 H         1 RES1    0.0000
     16 C5         5.3885   -1.2188    1.3251 C.ar      1 RES1    0.0000
     17 C6         6.2849   -2.3034    1.3325 C.ar      1 RES1    0.0000
     18 H8         7.1210   -2.2145    0.9145 H         1 RES1    0.0000
     19 C7         5.9598   -3.4878    1.9393 C.ar      1 RES1    0.0000
     20 H9         6.5727   -4.2008    1.9350 H         1 RES1    0.0000
     21 C8         4.7332   -3.6355    2.5572 C.ar      1 RES1    0.0000
     22 C9         3.8322   -2.5799    2.5824 C.ar      1 RES1    0.0000
     23 H10        3.0033   -2.6814    3.0139 H         1 RES1    0.0000
     24 C10        4.1474   -1.3909    1.9798 C.ar      1 RES1    0.0000
     25 H11        3.5304   -0.6810    2.0013 H         1 RES1    0.0000
     26 N1D        3.1121   -0.0600   -0.7019 N.pl3     1 RES1    0.0000
     27 N2D        4.4484   -4.8761   -3.1931 N.pl3     1 RES1    0.0000
     28 O1D        5.5220   -4.9640   -3.8073 O.2       1 RES1    0.0000
     29 O2D        3.6560   -5.8259   -3.0961 O.2       1 RES1    0.0000
     30 C1D        3.9632    1.1451   -0.6227 C.3       1 RES1    0.0000
     31 H1D        4.5032    1.2381   -1.4473 H         1 RES1    0.0000
     32 C2D        2.9227    2.2537   -0.5455 C.3       1 RES1    0.0000
     33 H2D        3.2828    3.0405   -0.0848 H         1 RES1    0.0000
     34 H3D        2.6266    2.5169   -1.4420 H         1 RES1    0.0000
     35 C3D        1.7797    1.6396    0.2449 C.3       1 RES1    0.0000
     36 H4D        0.9321    2.0871    0.0398 H         1 RES1    0.0000
     37 H5D        1.9474    1.7033    1.2087 H         1 RES1    0.0000
     38 C4D        1.7535    0.1893   -0.2081 C.3       1 RES1    0.0000
     39 H6D        1.5388   -0.4068    0.5408 H         1 RES1    0.0000
     40 H7D        1.0931    0.0566   -0.9198 H         1 RES1    0.0000
     41 C5D        3.4553   -1.2188   -1.3251 C.ar      1 RES1    0.0000
     42 C6D        2.5589   -2.3034   -1.3325 C.ar      1 RES1    0.0000
     43 H8D        1.7228   -2.2145   -0.9145 H         1 RES1    0.0000
     44 C7D        2.8839   -3.4878   -1.9393 C.ar      1 RES1    0.0000
     45 H9D        2.2711   -4.2008   -1.9350 H         1 RES1    0.0000
     46 C8D        4.1106   -3.6355   -2.5572 C.ar      1 RES1    0.0000
     47 C9D        5.0116   -2.5799   -2.5824 C.ar      1 RES1    0.0000
     48 H10D       5.8404   -2.6814   -3.0139 H         1 RES1    0.0000
     49 C10D       4.6964   -1.3909   -1.9798 C.ar      1 RES1    0.0000
     50 H11D       5.3133   -0.6810   -2.0013 H         1 RES1    0.0000
@<TRIPOS>BOND
     1    1    5 1
     2    2    3 2
     3    4    2 2
     4    5    6 1
     5    7    5 1
     6    8    7 1
     7    9    7 1
     8   10    7 1
     9   11   10 1
    10   12   10 1
    11   13    1 1
    12   14   13 1
    13   15   13 1
    14   16    1 1
    15   17   16 ar
    16   18   17 1
    17   19   17 ar
    18   20   19 1
    19   21    2 1
    20   22   21 ar
    21   23   22 1
    22   24   16 ar
    23   25   24 1
    24   26   30 1
    25   27   28 2
    26   29   27 2
    27   30    5 1
    28   31   30 1
    29   32   30 1
    30   33   32 1
    31   34   32 1
    32   35   32 1
    33   36   35 1
    34   37   35 1
    35   38   26 1
    36   39   38 1
    37   40   38 1
    38   41   26 1
    39   42   41 ar
    40   43   42 1
    41   44   42 ar
    42   45   44 1
    43   46   27 1
    44   47   46 ar
    45   48   47 1
    46   49   41 ar
    47   50   49 1
    48   10   13 1
    49   19   21 ar
    50   22   24 ar
    51   35   38 1
    52   44   46 ar
    53   47   49 ar
@<TRIPOS>SUBSTRUCTURE
     1 RES1 1

@<TRIPOS>CRYSIN
  17.6875   17.6875   26.5075  90.0000  90.0000  90.0000 142 1

