# MOL2 file generated by ConQuest
# Please check atom types

@<TRIPOS>MOLECULE
XEWLOA
    26    30     1
SMALL
NO_CHARGES
****
Generated from CSD

@<TRIPOS>ATOM
      1 O1        -3.4955    0.2980    4.0453 O.2       1 RES1    0.0000
      2 O2        -5.3506    0.6249    5.1084 O.2       1 RES1    0.0000
      3 N1        -2.6213    2.2730    6.0738 N.2       1 RES1    0.0000
      4 N2        -1.9029    1.2293    6.5155 N.pl3     1 RES1    0.0000
      5 N3        -0.5879    1.4390    6.7071 N.2       1 RES1    0.0000
      6 N4        -4.2068    0.2296    5.0296 N.pl3     1 RES1    0.0000
      7 C1        -1.6947    3.2327    5.9626 C.2       1 RES1    0.0000
      8 C2        -0.4490    2.7175    6.3538 C.2       1 RES1    0.0000
      9 C3         0.7583    3.4992    6.2852 C.ar      1 RES1    0.0000
     10 C4         2.0123    2.9729    6.6180 C.ar      1 RES1    0.0000
     11 C5         3.1503    3.7259    6.4516 C.ar      1 RES1    0.0000
     12 C6         3.0448    5.0187    5.9768 C.ar      1 RES1    0.0000
     13 C7         1.8221    5.5588    5.6558 C.ar      1 RES1    0.0000
     14 C8         0.6357    4.8184    5.7938 C.ar      1 RES1    0.0000
     15 C9        -0.6828    5.3683    5.4010 C.ar      1 RES1    0.0000
     16 C10       -0.8259    6.6765    4.8986 C.ar      1 RES1    0.0000
     17 C11       -2.0573    7.1637    4.5216 C.ar      1 RES1    0.0000
     18 C12       -3.1933    6.3769    4.6115 C.ar      1 RES1    0.0000
     19 C13       -3.0974    5.0964    5.0966 C.ar      1 RES1    0.0000
     20 C14       -1.8573    4.5860    5.4941 C.ar      1 RES1    0.0000
     21 C15       -2.4990   -0.0168    6.8317 C.ar      1 RES1    0.0000
     22 C16       -3.6474   -0.4675    6.1960 C.ar      1 RES1    0.0000
     23 C17       -4.2699   -1.6370    6.5715 C.ar      1 RES1    0.0000
     24 C18       -3.7127   -2.4025    7.5739 C.ar      1 RES1    0.0000
     25 C19       -2.5537   -1.9875    8.1954 C.ar      1 RES1    0.0000
     26 C20       -1.9513   -0.7933    7.8389 C.ar      1 RES1    0.0000
@<TRIPOS>BOND
     1    1    6 2
     2    2    6 2
     3    3    4 1
     4    4    5 1
     5    5    8 2
     6    6   22 1
     7    7    3 2
     8    8    7 1
     9    9    8 1
    10   10    9 ar
    11   11   10 ar
    12   12   11 ar
    13   13   12 ar
    14   14    9 ar
    15   15   14 1
    16   16   15 ar
    17   17   16 ar
    18   18   17 ar
    19   19   18 ar
    20   20    7 1
    21   21    4 1
    22   22   21 ar
    23   23   22 ar
    24   24   23 ar
    25   25   24 ar
    26   26   21 ar
    27   13   14 ar
    28   15   20 ar
    29   19   20 ar
    30   25   26 ar
@<TRIPOS>SUBSTRUCTURE
     1 RES1 1

@<TRIPOS>CRYSIN
  10.0172   10.1410    8.0396 100.6790  92.4500  94.3850   2 1

