# MOL2 file generated by ConQuest
# Please check atom types

@<TRIPOS>MOLECULE
XEWQIZ
    92    96     2
SMALL
NO_CHARGES
****
Generated from CSD

@<TRIPOS>ATOM
      1 O1         4.1111   -9.7786  -14.0927 O.3       1 RES1    0.0000
      2 O2         4.1188   -7.1145  -14.9596 O.2       1 RES1    0.0000
      3 O3         5.5357  -11.3250  -15.9495 O.2       1 RES1    0.0000
      4 O4         3.1183   -8.9474  -17.5951 O.2       1 RES1    0.0000
      5 N1         4.8776   -9.2769  -15.1236 N.am      1 RES1    0.0000
      6 N2         4.6718   -7.3447  -17.8957 N.am      1 RES1    0.0000
      7 C1         4.9145   -9.8796  -12.8806 C.3       1 RES1    0.0000
      8 C2         4.7257   -7.9656  -15.5384 C.2       1 RES1    0.0000
      9 C3         5.5411   -7.8331  -16.8375 C.3       1 RES1    0.0000
     10 C4         6.0797   -9.2454  -17.0971 C.3       1 RES1    0.0000
     11 C5         5.4989  -10.1263  -16.0389 C.2       1 RES1    0.0000
     12 C6         6.6364   -6.7569  -16.6164 C.3       1 RES1    0.0000
     13 C7         3.5284   -7.9623  -18.2236 C.2       1 RES1    0.0000
     14 C8         2.7785   -7.3977  -19.3960 C.3       1 RES1    0.0000
     15 C9         3.9551  -10.2074  -11.7988 C.ar      1 RES1    0.0000
     16 C10        3.6994  -11.5137  -11.4374 C.ar      1 RES1    0.0000
     17 C11        2.6812  -11.7522  -10.4562 C.ar      1 RES1    0.0000
     18 C12        1.9920  -10.6693   -9.9507 C.ar      1 RES1    0.0000
     19 C13        2.2789   -9.4276  -10.3208 C.ar      1 RES1    0.0000
     20 C14        3.2427   -9.2123  -11.2101 C.ar      1 RES1    0.0000
     21 C15        7.6914   -7.1824  -15.6017 C.ar      1 RES1    0.0000
     22 C16        7.4314   -7.1775  -14.2368 C.ar      1 RES1    0.0000
     23 C17        8.3870   -7.6328  -13.3426 C.ar      1 RES1    0.0000
     24 C18        9.6133   -8.0682  -13.8071 C.ar      1 RES1    0.0000
     25 C19        9.8801   -8.0748  -15.1521 C.ar      1 RES1    0.0000
     26 C20        8.9314   -7.6344  -16.0439 C.ar      1 RES1    0.0000
     27 H1         4.9038   -6.6195  -18.3353 H         1 RES1    0.0000
     28 H2         5.3733   -9.0236  -12.6930 H         1 RES1    0.0000
     29 H3         5.5951  -10.5932  -12.9700 H         1 RES1    0.0000
     30 H4         5.8070   -9.5600  -17.9963 H         1 RES1    0.0000
     31 H5         7.0684   -9.2521  -17.0474 H         1 RES1    0.0000
     32 H6         7.0789   -6.5649  -17.4809 H         1 RES1    0.0000
     33 H7         6.2077   -5.9208  -16.3035 H         1 RES1    0.0000
     34 H8         3.3731   -6.8149  -19.9139 H         1 RES1    0.0000
     35 H9         2.0122   -6.8778  -19.0731 H         1 RES1    0.0000
     36 H10        2.4614   -8.1295  -19.9636 H         1 RES1    0.0000
     37 H11        4.1831  -12.2323  -11.8261 H         1 RES1    0.0000
     38 H12        2.4866  -12.6346  -10.1619 H         1 RES1    0.0000
     39 H13        1.2941  -10.8167   -9.3223 H         1 RES1    0.0000
     40 H14        1.7972   -8.6957   -9.9507 H         1 RES1    0.0000
     41 H15        3.4435   -8.3149  -11.4461 H         1 RES1    0.0000
     42 H16        6.5960   -6.8596  -13.9151 H         1 RES1    0.0000
     43 H17        8.1987   -7.6477  -12.4111 H         1 RES1    0.0000
     44 H18       10.2744   -8.3629  -13.1923 H         1 RES1    0.0000
     45 H19       10.7207   -8.3845  -15.4676 H         1 RES1    0.0000
     46 H20        9.1251   -7.6377  -16.9741 H         1 RES1    0.0000
     47 O5        -1.1814   -7.9060   -9.3422 O.3       2 RES2    0.0000
     48 O6        -0.3797   -5.9423   -7.5090 O.2       2 RES2    0.0000
     49 O7        -2.9701   -6.7304  -11.1629 O.2       2 RES2    0.0000
     50 O8        -3.3554   -5.4539   -7.2954 O.2       2 RES2    0.0000
     51 N3        -1.4628   -6.5599   -9.4266 N.am      2 RES2    0.0000
     52 N4        -2.1913   -3.6310   -7.8133 N.am      2 RES2    0.0000
     53 C21       -2.2044   -8.5467   -8.5287 C.3       2 RES2    0.0000
     54 C22       -1.0473   -5.6658   -8.4802 C.2       2 RES2    0.0000
     55 C23       -1.5301   -4.2816   -8.9236 C.3       2 RES2    0.0000
     56 C24       -2.4793   -4.5913  -10.0936 C.3       2 RES2    0.0000
     57 C25       -2.3888   -6.0698  -10.3556 C.2       2 RES2    0.0000
     58 C26       -0.3011   -3.4273   -9.3310 C.3       2 RES2    0.0000
     59 C27       -3.0858   -4.2816   -7.0619 C.2       2 RES2    0.0000
     60 C28       -3.7024   -3.5266   -5.9155 C.3       2 RES2    0.0000
     61 C29       -1.7837   -9.9392   -8.2703 C.ar      2 RES2    0.0000
     62 C30       -0.7679  -10.2422   -7.3649 C.ar      2 RES2    0.0000
     63 C31       -0.4233  -11.5170   -7.1116 C.ar      2 RES2    0.0000
     64 C32       -1.0470  -12.4939   -7.7400 C.ar      2 RES2    0.0000
     65 C33       -2.0595  -12.2919   -8.6280 C.ar      2 RES2    0.0000
     66 C34       -2.4005  -10.9823   -8.8851 C.ar      2 RES2    0.0000
     67 C35        0.5382   -4.0035  -10.4401 C.ar      2 RES2    0.0000
     68 C36        1.5669   -4.8760  -10.1420 C.ar      2 RES2    0.0000
     69 C37        2.3396   -5.3926  -11.1778 C.ar      2 RES2    0.0000
     70 C38        2.0911   -5.0731  -12.4794 C.ar      2 RES2    0.0000
     71 C39        1.0891   -4.1790  -12.7800 C.ar      2 RES2    0.0000
     72 C40        0.3245   -3.6641  -11.7603 C.ar      2 RES2    0.0000
     73 H21       -2.0017   -2.7915   -7.6307 H         2 RES2    0.0000
     74 H22       -3.0720   -8.5368   -9.0056 H         2 RES2    0.0000
     75 H23       -2.3120   -8.0599   -7.6729 H         2 RES2    0.0000
     76 H24       -3.4073   -4.3396   -9.8588 H         2 RES2    0.0000
     77 H25       -2.2094   -4.0813  -10.8984 H         2 RES2    0.0000
     78 H26       -0.6188   -2.5332   -9.6092 H         2 RES2    0.0000
     79 H27        0.2742   -3.3048   -8.5336 H         2 RES2    0.0000
     80 H28       -3.4860   -2.5746   -5.9975 H         2 RES2    0.0000
     81 H29       -3.3484   -3.8710   -5.0698 H         2 RES2    0.0000
     82 H30       -4.6757   -3.6425   -5.9342 H         2 RES2    0.0000
     83 H31       -0.3126   -9.5368   -6.9203 H         2 RES2    0.0000
     84 H32        0.2633  -11.7124   -6.4856 H         2 RES2    0.0000
     85 H33       -0.7758  -13.3880   -7.5637 H         2 RES2    0.0000
     86 H34       -2.5071  -13.0171   -9.0478 H         2 RES2    0.0000
     87 H35       -3.0906  -10.8034   -9.5136 H         2 RES2    0.0000
     88 H36        1.7447   -5.1211   -9.2416 H         2 RES2    0.0000
     89 H37        3.0560   -5.9804  -10.9741 H         2 RES2    0.0000
     90 H38        2.6075   -5.4638  -13.1749 H         2 RES2    0.0000
     91 H39        0.9262   -3.9224  -13.6792 H         2 RES2    0.0000
     92 H40       -0.3723   -3.0531  -11.9714 H         2 RES2    0.0000
@<TRIPOS>BOND
     1    1    5 1
     2    2    8 2
     3    3   11 2
     4    4   13 2
     5    5    8 1
     6    6    9 1
     7    7    1 1
     8    8    9 1
     9    9   10 1
    10   10   11 1
    11   11    5 1
    12   12    9 1
    13   13    6 1
    14   14   13 1
    15   15    7 1
    16   16   15 ar
    17   17   16 ar
    18   18   17 ar
    19   19   18 ar
    20   20   15 ar
    21   21   12 1
    22   22   21 ar
    23   23   22 ar
    24   24   23 ar
    25   25   24 ar
    26   26   21 ar
    27   27    6 1
    28   28    7 1
    29   29    7 1
    30   30   10 1
    31   31   10 1
    32   32   12 1
    33   33   12 1
    34   34   14 1
    35   35   14 1
    36   36   14 1
    37   37   16 1
    38   38   17 1
    39   39   18 1
    40   40   19 1
    41   41   20 1
    42   42   22 1
    43   43   23 1
    44   44   24 1
    45   45   25 1
    46   46   26 1
    47   47   51 1
    48   48   54 2
    49   49   57 2
    50   50   59 2
    51   51   54 1
    52   52   55 1
    53   53   47 1
    54   54   55 1
    55   55   56 1
    56   56   57 1
    57   57   51 1
    58   58   55 1
    59   59   52 1
    60   60   59 1
    61   61   53 1
    62   62   61 ar
    63   63   62 ar
    64   64   63 ar
    65   65   64 ar
    66   66   61 ar
    67   67   58 1
    68   68   67 ar
    69   69   68 ar
    70   70   69 ar
    71   71   70 ar
    72   72   67 ar
    73   73   52 1
    74   74   53 1
    75   75   53 1
    76   76   56 1
    77   77   56 1
    78   78   58 1
    79   79   58 1
    80   80   60 1
    81   81   60 1
    82   82   60 1
    83   83   62 1
    84   84   63 1
    85   85   64 1
    86   86   65 1
    87   87   66 1
    88   88   68 1
    89   89   69 1
    90   90   70 1
    91   91   71 1
    92   92   72 1
    93   19   20 ar
    94   25   26 ar
    95   65   66 ar
    96   71   72 ar
@<TRIPOS>SUBSTRUCTURE
     1 RES1 1
     2 RES2 47

@<TRIPOS>CRYSIN
   8.8580   16.5570   12.4210  90.0000  90.8000  90.0000   4 1

