# MOL2 file generated by ConQuest
# Please check atom types

@<TRIPOS>MOLECULE
XEWQEV
    41    43     1
SMALL
NO_CHARGES
****
Generated from CSD

@<TRIPOS>ATOM
      1 O1         3.6996    1.6125    5.8951 O.3       1 RES1    0.0000
      2 O2         5.8154    0.1651    7.1036 O.2       1 RES1    0.0000
      3 O3         1.7321    2.0534    7.8596 O.2       1 RES1    0.0000
      4 N1         3.7578    1.1740    7.2179 N.am      1 RES1    0.0000
      5 N2         4.8220   -1.0439    9.6960 N.3       1 RES1    0.0000
      6 C1         4.8492    0.5087    7.7453 C.2       1 RES1    0.0000
      7 C2         4.5767    0.3046    9.2266 C.3       1 RES1    0.0000
      8 C3         3.0833    0.6956    9.3684 C.3       1 RES1    0.0000
      9 C4         2.7271    1.4014    8.1171 C.2       1 RES1    0.0000
     10 C5         2.9917    0.6279    5.0995 C.3       1 RES1    0.0000
     11 C6         3.0680    1.0462    3.6699 C.ar      1 RES1    0.0000
     12 C7         4.0098    0.5040    2.8469 C.ar      1 RES1    0.0000
     13 C8         4.1003    0.8733    1.5164 C.ar      1 RES1    0.0000
     14 C9         3.2536    1.8416    1.0104 C.ar      1 RES1    0.0000
     15 C10        2.3057    2.4110    1.8411 C.ar      1 RES1    0.0000
     16 C11        2.2002    2.0161    3.1578 C.ar      1 RES1    0.0000
     17 C12        5.5015    1.3009    9.9795 C.3       1 RES1    0.0000
     18 C13        5.2544    1.3967   11.4594 C.ar      1 RES1    0.0000
     19 C14        4.4101    2.3736   11.9471 C.ar      1 RES1    0.0000
     20 C15        4.1867    2.5302   13.3004 C.ar      1 RES1    0.0000
     21 C16        4.8259    1.6811   14.1905 C.ar      1 RES1    0.0000
     22 C17        5.6557    0.7003   13.7074 C.ar      1 RES1    0.0000
     23 C18        5.8625    0.5648   12.3433 C.ar      1 RES1    0.0000
     24 H1         4.3791   -1.7247    8.8700 H         1 RES1    0.0000
     25 H2         5.7948   -1.4092    9.4385 H         1 RES1    0.0000
     26 H3         2.5236   -0.1137    9.4812 H         1 RES1    0.0000
     27 H4         2.9518    1.2838   10.1533 H         1 RES1    0.0000
     28 H5         2.0462    0.5749    5.3875 H         1 RES1    0.0000
     29 H6         3.4049   -0.2641    5.2153 H         1 RES1    0.0000
     30 H7         4.6214   -0.1332    3.1959 H         1 RES1    0.0000
     31 H8         4.7437    0.4635    0.9495 H         1 RES1    0.0000
     32 H9         3.3162    2.1103    0.1021 H         1 RES1    0.0000
     33 H10        1.7252    3.0825    1.5027 H         1 RES1    0.0000
     34 H11        1.5377    2.4040    3.7187 H         1 RES1    0.0000
     35 H12        6.4410    1.0252    9.8347 H         1 RES1    0.0000
     36 H13        5.3892    2.1999    9.5817 H         1 RES1    0.0000
     37 H14        3.9727    2.9524   11.3329 H         1 RES1    0.0000
     38 H15        3.6067    3.2142   13.6144 H         1 RES1    0.0000
     39 H16        4.6889    1.7738   15.1263 H         1 RES1    0.0000
     40 H17        6.0920    0.1091   14.3094 H         1 RES1    0.0000
     41 H18        6.4393   -0.1176   12.0233 H         1 RES1    0.0000
@<TRIPOS>BOND
     1    1    4 1
     2    2    6 2
     3    3    9 2
     4    4    6 1
     5    5    7 1
     6    6    7 1
     7    7    8 1
     8    8    9 1
     9    9    4 1
    10   10    1 1
    11   11   10 1
    12   12   11 ar
    13   13   12 ar
    14   14   13 ar
    15   15   14 ar
    16   16   11 ar
    17   17    7 1
    18   18   17 1
    19   19   18 ar
    20   20   19 ar
    21   21   20 ar
    22   22   21 ar
    23   23   18 ar
    24   24    5 1
    25   25    5 1
    26   26    8 1
    27   27    8 1
    28   28   10 1
    29   29   10 1
    30   30   12 1
    31   31   13 1
    32   32   14 1
    33   33   15 1
    34   34   16 1
    35   35   17 1
    36   36   17 1
    37   37   19 1
    38   38   20 1
    39   39   21 1
    40   40   22 1
    41   41   23 1
    42   15   16 ar
    43   22   23 ar
@<TRIPOS>SUBSTRUCTURE
     1 RES1 1

@<TRIPOS>CRYSIN
   6.6300    7.7900   15.3580  90.0000  97.0900  90.0000   4 1

