# MOL2 file generated by ConQuest
# Please check atom types

@<TRIPOS>MOLECULE
XEWVON
    50    48     2
SMALL
NO_CHARGES
****
Generated from CSD

@<TRIPOS>ATOM
      1 N1         5.1320   -3.5561    2.5969 N.pl3     1 RES1    0.0000
      2 N2         6.2713    0.9362    3.4594 N.pl3     1 RES1    0.0000
      3 O1         4.6620   -4.3366    1.7899 O.2       1 RES1    0.0000
      4 O2         5.3124   -3.8807    3.7384 O.2       1 RES1    0.0000
      5 O3         6.5255    2.2809    3.1952 O.3       1 RES1    0.0000
      6 O4         4.4860    2.5007    2.0752 O.3       1 RES1    0.0000
      7 H1         4.1775    3.1135    2.5245 H         1 RES1    0.0000
      8 C1         5.4641   -2.2145    2.1721 C.ar      1 RES1    0.0000
      9 C2         5.4270   -1.9634    0.8124 C.ar      1 RES1    0.0000
     10 H2         5.2192   -2.6576    0.2289 H         1 RES1    0.0000
     11 C3         5.6921   -0.7063    0.2949 C.ar      1 RES1    0.0000
     12 H3         5.6492   -0.5644   -0.6239 H         1 RES1    0.0000
     13 C4         6.0187    0.3343    1.1318 C.ar      1 RES1    0.0000
     14 C5         6.0640    0.0280    2.4809 C.ar      1 RES1    0.0000
     15 C6         5.7769   -1.2021    3.1091 C.ar      1 RES1    0.0000
     16 C7         5.8231   -0.9559    4.5231 C.2       1 RES1    0.0000
     17 C8         5.6052   -1.8352    5.7316 C.3       1 RES1    0.0000
     18 H4         4.6604   -2.0389    5.8114 H         1 RES1    0.0000
     19 H5         6.0816   -2.6720    5.6070 H         1 RES1    0.0000
     20 C9         6.0745   -1.1868    6.9901 C.3       1 RES1    0.0000
     21 H6         7.0442   -1.2139    7.0199 H         1 RES1    0.0000
     22 H7         5.7390   -1.6861    7.7503 H         1 RES1    0.0000
     23 C10        5.6051    0.2750    7.0966 C.3       1 RES1    0.0000
     24 H8         5.8709    0.6368    7.9558 H         1 RES1    0.0000
     25 H9         4.6378    0.3075    7.0423 H         1 RES1    0.0000
     26 C11        6.2114    1.1309    5.9669 C.3       1 RES1    0.0000
     27 H10        5.7369    1.9737    5.8998 H         1 RES1    0.0000
     28 H11        7.1433    1.3206    6.1596 H         1 RES1    0.0000
     29 C12        6.0983    0.3788    4.6860 C.2       1 RES1    0.0000
     30 C13        5.8405    2.6748    1.9336 C.3       1 RES1    0.0000
     31 C14        6.3061    1.7717    0.7794 C.3       1 RES1    0.0000
     32 H12        5.7792    1.9991   -0.0149 H         1 RES1    0.0000
     33 C15        7.7773    1.9804    0.4440 C.3       1 RES1    0.0000
     34 H13        7.9935    1.4871   -0.3631 H         1 RES1    0.0000
     35 H14        8.3221    1.6264    1.1648 H         1 RES1    0.0000
     36 C16        8.1176    3.4554    0.2353 C.3       1 RES1    0.0000
     37 H15        9.0680    3.5476    0.0650 H         1 RES1    0.0000
     38 H16        7.6388    3.7919   -0.5388 H         1 RES1    0.0000
     39 C17        7.7378    4.2704    1.4619 C.3       1 RES1    0.0000
     40 H17        8.2575    3.9710    2.2243 H         1 RES1    0.0000
     41 H18        7.9426    5.2048    1.3065 H         1 RES1    0.0000
     42 C18        6.2646    4.1182    1.7622 C.3       1 RES1    0.0000
     43 H19        5.7534    4.5137    1.0392 H         1 RES1    0.0000
     44 H20        6.0565    4.6060    2.5735 H         1 RES1    0.0000
     45 C19        5.4622   -0.8213    6.9859 Du        2 SUP2    0.0000
     46 H21        4.5797   -0.4143    6.9411 Du        2 SUP2    0.0000
     47 H22        5.4924   -1.3460    7.8004 Du        2 SUP2    0.0000
     48 C20        6.4010    0.2008    7.0955 Du        2 SUP2    0.0000
     49 H23        7.2951   -0.1701    7.0753 Du        2 SUP2    0.0000
     50 H24        6.2814    0.6712    7.9356 Du        2 SUP2    0.0000
@<TRIPOS>BOND
     1    1    3 2
     2    2    5 1
     3    4    1 2
     4    5   30 1
     5    6    7 1
     6    8    1 1
     7    9    8 ar
     8   10    9 1
     9   11    9 ar
    10   12   11 1
    11   13   11 ar
    12   14    2 1
    13   15    8 ar
    14   16   15 1
    15   17   16 1
    16   18   17 1
    17   19   17 1
    18   20   17 1
    19   21   20 1
    20   22   20 1
    21   23   20 1
    22   24   23 1
    23   25   23 1
    24   26   23 1
    25   27   26 1
    26   28   26 1
    27   29    2 1
    28   30    6 1
    29   31   13 1
    30   32   31 1
    31   33   31 1
    32   34   33 1
    33   35   33 1
    34   36   33 1
    35   37   36 1
    36   38   36 1
    37   39   36 1
    38   40   39 1
    39   41   39 1
    40   42   30 1
    41   43   42 1
    42   44   42 1
    43   13   14 ar
    44   14   15 ar
    45   16   29 2
    46   26   29 1
    47   30   31 1
    48   39   42 1
@<TRIPOS>SUBSTRUCTURE
     1 RES1 1
     2 SUP2 45

@<TRIPOS>CRYSIN
   8.3683   18.0910   10.6684  90.0000  93.5830  90.0000  14 1

