# MOL2 file generated by ConQuest
# Please check atom types

@<TRIPOS>MOLECULE
XEWVUT
    62    68     1
SMALL
NO_CHARGES
****
Generated from CSD

@<TRIPOS>ATOM
      1 N1         2.7053   10.9739    4.3875 N.3       1 RES1    0.0000
      2 N2         5.8612   10.3471    2.7611 N.3       1 RES1    0.0000
      3 N3         6.6071   15.0595    1.0153 N.ar      1 RES1    0.0000
      4 O1         0.1960   12.3025    3.9608 O.3       1 RES1    0.0000
      5 O2         3.4352    9.3454    2.9104 O.3       1 RES1    0.0000
      6 O3         5.7233    8.9157    2.6841 O.3       1 RES1    0.0000
      7 C1         1.4329   12.9324    3.6971 C.3       1 RES1    0.0000
      8 H1         1.7245   13.4091    4.4900 H         1 RES1    0.0000
      9 H2         1.3167   13.5798    2.9846 H         1 RES1    0.0000
     10 C2         2.4935   11.9330    3.2963 C.3       1 RES1    0.0000
     11 H3         2.2138   11.4619    2.4954 H         1 RES1    0.0000
     12 H4         3.3230   12.3965    3.1011 H         1 RES1    0.0000
     13 C3         1.4141   10.3364    4.6753 C.3       1 RES1    0.0000
     14 H5         1.5139    9.7244    5.4212 H         1 RES1    0.0000
     15 H6         1.1258    9.8252    3.9032 H         1 RES1    0.0000
     16 C4         0.3759   11.3680    5.0097 C.3       1 RES1    0.0000
     17 H7        -0.4680   10.9256    5.1892 H         1 RES1    0.0000
     18 H8         0.6416   11.8394    5.8149 H         1 RES1    0.0000
     19 C5         3.7822   10.0232    4.1428 C.3       1 RES1    0.0000
     20 C6         3.9067    9.0124    5.2834 C.3       1 RES1    0.0000
     21 H9         3.0723    8.5241    5.3624 H         1 RES1    0.0000
     22 H10        4.6038    8.3748    5.0632 H         1 RES1    0.0000
     23 C7         4.2331    9.6580    6.6295 C.3       1 RES1    0.0000
     24 H11        3.4156    9.9935    7.0306 H         1 RES1    0.0000
     25 H12        4.6046    8.9887    7.2248 H         1 RES1    0.0000
     26 C8         5.2253   10.8030    6.4750 C.3       1 RES1    0.0000
     27 H13        5.8181   10.8249    7.2426 H         1 RES1    0.0000
     28 H14        4.7459   11.6459    6.4395 H         1 RES1    0.0000
     29 C9         6.0462   10.6267    5.2005 C.3       1 RES1    0.0000
     30 H15        6.4609    9.7497    5.1966 H         1 RES1    0.0000
     31 H16        6.7494   11.2943    5.1693 H         1 RES1    0.0000
     32 C10        5.1418   10.7735    3.9791 C.3       1 RES1    0.0000
     33 H17        4.9391   11.7268    3.8791 H         1 RES1    0.0000
     34 C11        4.4136    8.5825    2.2202 C.3       1 RES1    0.0000
     35 C12        4.1965    7.0945    2.4209 C.3       1 RES1    0.0000
     36 H18        4.2621    6.8779    3.3646 H         1 RES1    0.0000
     37 H19        4.8816    6.5968    1.9474 H         1 RES1    0.0000
     38 C13        2.8222    6.7024    1.8974 C.3       1 RES1    0.0000
     39 H20        2.7142    5.7419    1.9736 H         1 RES1    0.0000
     40 H21        2.1409    7.1234    2.4440 H         1 RES1    0.0000
     41 C14        2.6249    7.1134    0.4496 C.3       1 RES1    0.0000
     42 H22        1.7116    6.9215    0.1858 H         1 RES1    0.0000
     43 H23        3.2144    6.5886   -0.1134 H         1 RES1    0.0000
     44 C15        2.9092    8.5964    0.2279 C.3       1 RES1    0.0000
     45 H24        2.2441    9.1285    0.6918 H         1 RES1    0.0000
     46 H25        2.8538    8.8013   -0.7191 H         1 RES1    0.0000
     47 C16        4.3032    8.9477    0.7487 C.3       1 RES1    0.0000
     48 H26        4.9449    8.3901    0.2614 H         1 RES1    0.0000
     49 C17        4.7280   10.3808    0.5664 C.ar      1 RES1    0.0000
     50 C18        5.4595   11.0006    1.5535 C.ar      1 RES1    0.0000
     51 C19        5.8907   12.3467    1.3985 C.ar      1 RES1    0.0000
     52 C20        6.7515   13.0219    2.2912 C.ar      1 RES1    0.0000
     53 H27        7.0981   12.5805    3.0329 H         1 RES1    0.0000
     54 C21        7.0688   14.3242    2.0562 C.ar      1 RES1    0.0000
     55 H28        7.6462   14.7405    2.6550 H         1 RES1    0.0000
     56 C22        5.8419   14.4309    0.1590 C.ar      1 RES1    0.0000
     57 H29        5.5296   14.9123   -0.5732 H         1 RES1    0.0000
     58 C23        5.4551   13.0725    0.2653 C.ar      1 RES1    0.0000
     59 C24        4.7050   12.4199   -0.7323 C.ar      1 RES1    0.0000
     60 H30        4.4262   12.8895   -1.4855 H         1 RES1    0.0000
     61 C25        4.3887   11.1092   -0.5971 C.ar      1 RES1    0.0000
     62 H31        3.9376   10.6775   -1.2860 H         1 RES1    0.0000
@<TRIPOS>BOND
     1    1   10 1
     2    2    6 1
     3    3   54 ar
     4    4    7 1
     5    5   19 1
     6    6   34 1
     7    7    8 1
     8    9    7 1
     9   10    7 1
    10   11   10 1
    11   12   10 1
    12   13    1 1
    13   14   13 1
    14   15   13 1
    15   16    4 1
    16   17   16 1
    17   18   16 1
    18   19    1 1
    19   20   19 1
    20   21   20 1
    21   22   20 1
    22   23   20 1
    23   24   23 1
    24   25   23 1
    25   26   23 1
    26   27   26 1
    27   28   26 1
    28   29   26 1
    29   30   29 1
    30   31   29 1
    31   32    2 1
    32   33   32 1
    33   34    5 1
    34   35   34 1
    35   36   35 1
    36   37   35 1
    37   38   35 1
    38   39   38 1
    39   40   38 1
    40   41   38 1
    41   42   41 1
    42   43   41 1
    43   44   41 1
    44   45   44 1
    45   46   44 1
    46   47   34 1
    47   48   47 1
    48   49   47 1
    49   50    2 1
    50   51   50 ar
    51   52   51 ar
    52   53   52 1
    53   54   52 ar
    54   55   54 1
    55   56    3 ar
    56   57   56 1
    57   58   51 ar
    58   59   58 ar
    59   60   59 1
    60   61   49 ar
    61   62   61 1
    62   13   16 1
    63   19   32 1
    64   29   32 1
    65   44   47 1
    66   49   50 ar
    67   56   58 ar
    68   59   61 ar
@<TRIPOS>SUBSTRUCTURE
     1 RES1 1

@<TRIPOS>CRYSIN
   9.5620   11.1210   11.8060 114.8160  93.7860 105.1490   2 1

