# MOL2 file generated by ConQuest
# Please check atom types

@<TRIPOS>MOLECULE
XEXBUZ
    76    78     2
SMALL
NO_CHARGES
****
Generated from CSD

@<TRIPOS>ATOM
      1 H1       -13.2807    7.6381   12.4905 H         1 RES1    0.0000
      2 C1       -11.5985    6.8677    9.4491 C.3       1 RES1    0.0000
      3 H2       -11.8424    6.2392    8.7666 H         1 RES1    0.0000
      4 H3       -10.8700    7.4109    9.1381 H         1 RES1    0.0000
      5 H4       -12.3518    7.4280    9.6531 H         1 RES1    0.0000
      6 C2       -11.1813    6.1351   10.6730 C.3       1 RES1    0.0000
      7 H5       -11.9107    5.5833   10.9961 H         1 RES1    0.0000
      8 H6       -10.4257    5.5587   10.4750 H         1 RES1    0.0000
      9 C3       -10.4664    6.6698   12.8944 C.2       1 RES1    0.0000
     10 C4        -9.5742    7.2945   15.1612 C.3       1 RES1    0.0000
     11 H7        -9.7516    7.8936   15.9034 H         1 RES1    0.0000
     12 H8        -9.9194    6.4143   15.3814 H         1 RES1    0.0000
     13 C5       -10.2244    7.8236   13.8688 C.3       1 RES1    0.0000
     14 C6       -11.5339    8.6215   14.0738 C.3       1 RES1    0.0000
     15 H9       -11.4012    9.2566   14.7957 H         1 RES1    0.0000
     16 H10      -11.7181    9.1288   13.2670 H         1 RES1    0.0000
     17 C7       -12.7274    7.7753   14.3928 C.ar      1 RES1    0.0000
     18 C8       -13.0142    7.3523   15.6580 C.ar      1 RES1    0.0000
     19 H11      -12.4699    7.6220   16.3628 H         1 RES1    0.0000
     20 C9       -14.1102    6.5222   15.9165 C.ar      1 RES1    0.0000
     21 H12      -14.2997    6.2411   16.7829 H         1 RES1    0.0000
     22 C10      -14.8974    6.1341   14.8664 C.ar      1 RES1    0.0000
     23 C11       -8.1126    7.2311   14.8765 C.3       1 RES1    0.0000
     24 H13       -7.8846    6.3783   14.4756 H         1 RES1    0.0000
     25 H14       -7.6050    7.3343   15.6964 H         1 RES1    0.0000
     26 C12       -7.8044    8.3517   13.9284 C.3       1 RES1    0.0000
     27 H15       -7.4279    9.1089   14.4050 H         1 RES1    0.0000
     28 H16       -7.1700    8.0631   13.2528 H         1 RES1    0.0000
     29 C13       -9.1033    8.7190   13.3023 C.2       1 RES1    0.0000
     30 C14      -14.6669    6.5534   13.5881 C.ar      1 RES1    0.0000
     31 H17      -15.2286    6.3017   12.8914 H         1 RES1    0.0000
     32 C15      -13.5774    7.3579   13.3649 C.ar      1 RES1    0.0000
     33 N1       -16.0838    5.2672   15.1219 N.pl3     1 RES1    0.0000
     34 O1       -10.8128    7.1166   11.6766 O.3       1 RES1    0.0000
     35 O2       -16.3270    4.9908   16.2588 O.2       1 RES1    0.0000
     36 O3       -10.4220    5.5038   13.1761 O.2       1 RES1    0.0000
     37 O4       -16.7427    4.8914   14.1586 O.2       1 RES1    0.0000
     38 O5        -9.2853    9.6200   12.5238 O.2       1 RES1    0.0000
     39 C16      -11.4733   13.3075   16.4628 C.3       2 RES2    0.0000
     40 H18      -11.7367   13.6587   17.3271 H         2 RES2    0.0000
     41 H19      -11.3080   14.0619   15.8761 H         2 RES2    0.0000
     42 C17      -11.7134   11.5187   20.9289 C.3       2 RES2    0.0000
     43 H20      -12.4171   12.0941   20.6189 H         2 RES2    0.0000
     44 H21      -11.0284   12.0459   21.3439 H         2 RES2    0.0000
     45 H22      -12.0660   10.8940   21.5660 H         2 RES2    0.0000
     46 C18      -11.1449   10.7851   19.7909 C.3       2 RES2    0.0000
     47 H23      -10.3636   10.2845   20.0676 H         2 RES2    0.0000
     48 H24      -11.7958   10.1661   19.4274 H         2 RES2    0.0000
     49 C19      -10.4074   11.3483   17.5897 C.2       2 RES2    0.0000
     50 C20      -10.1639   12.5058   16.6284 C.3       2 RES2    0.0000
     51 C21      -12.6128   12.4945   15.8984 C.ar      2 RES2    0.0000
     52 C22      -13.3571   11.6587   16.6738 C.ar      2 RES2    0.0000
     53 H25      -13.1596   11.5830   17.5796 H         2 RES2    0.0000
     54 C23      -14.4031   10.9186   16.1457 C.ar      2 RES2    0.0000
     55 H26      -14.9117   10.3602   16.6890 H         2 RES2    0.0000
     56 C24      -14.6703   11.0255   14.8210 C.ar      2 RES2    0.0000
     57 C25       -9.0536   13.4315   17.2181 C.2       2 RES2    0.0000
     58 C26       -7.7491   13.0879   16.5476 C.3       2 RES2    0.0000
     59 H27       -7.4092   13.8489   16.0518 H         2 RES2    0.0000
     60 H28       -7.0862   12.8239   17.2060 H         2 RES2    0.0000
     61 C27       -8.0563   11.9455   15.6197 C.3       2 RES2    0.0000
     62 H29       -7.8473   11.0984   16.0427 H         2 RES2    0.0000
     63 H30       -7.5366   12.0222   14.8038 H         2 RES2    0.0000
     64 C28       -9.5332   12.0335   15.3157 C.3       2 RES2    0.0000
     65 H31       -9.8852   11.1675   15.0552 H         2 RES2    0.0000
     66 H32       -9.7019   12.6686   14.6019 H         2 RES2    0.0000
     67 C29      -12.9216   12.5617   14.5332 C.ar      2 RES2    0.0000
     68 H33      -12.4140   13.1087   13.9788 H         2 RES2    0.0000
     69 C30      -13.9545   11.8424   13.9980 C.ar      2 RES2    0.0000
     70 H34      -14.1630   11.9086   13.0933 H         2 RES2    0.0000
     71 N2       -15.8663   10.2229   14.3211 N.pl3     2 RES2    0.0000
     72 O6       -10.7805   11.7875   18.7892 O.3       2 RES2    0.0000
     73 O7       -10.2841   10.1803   17.3049 O.2       2 RES2    0.0000
     74 O8        -9.2291   14.3060   18.0087 O.2       2 RES2    0.0000
     75 O9       -16.4398    9.5150   15.0128 O.2       2 RES2    0.0000
     76 O10      -16.1264   10.3990   13.1509 O.2       2 RES2    0.0000
@<TRIPOS>BOND
     1    1   32 1
     2    2    3 1
     3    4    2 1
     4    5    2 1
     5    6    2 1
     6    7    6 1
     7    8    6 1
     8    9   13 1
     9   10   11 1
    10   12   10 1
    11   13   10 1
    12   14   13 1
    13   15   14 1
    14   16   14 1
    15   17   14 1
    16   18   17 ar
    17   19   18 1
    18   20   18 ar
    19   21   20 1
    20   22   20 ar
    21   23   10 1
    22   24   23 1
    23   25   23 1
    24   26   23 1
    25   27   26 1
    26   28   26 1
    27   29   13 1
    28   30   22 ar
    29   31   30 1
    30   32   17 ar
    31   33   22 1
    32   34    6 1
    33   35   33 2
    34   36    9 2
    35   37   33 2
    36   38   29 2
    37   39   40 1
    38   41   39 1
    39   42   43 1
    40   44   42 1
    41   45   42 1
    42   46   42 1
    43   47   46 1
    44   48   46 1
    45   49   50 1
    46   50   39 1
    47   51   39 1
    48   52   51 ar
    49   53   52 1
    50   54   52 ar
    51   55   54 1
    52   56   54 ar
    53   57   50 1
    54   58   57 1
    55   59   58 1
    56   60   58 1
    57   61   58 1
    58   62   61 1
    59   63   61 1
    60   64   50 1
    61   65   64 1
    62   66   64 1
    63   67   51 ar
    64   68   67 1
    65   69   56 ar
    66   70   69 1
    67   71   56 1
    68   72   46 1
    69   73   49 2
    70   74   57 2
    71   75   71 2
    72   76   71 2
    73    9   34 1
    74   26   29 1
    75   30   32 ar
    76   49   72 1
    77   61   64 1
    78   67   69 ar
@<TRIPOS>SUBSTRUCTURE
     1 RES1 1
     2 RES2 39

@<TRIPOS>CRYSIN
  31.0660    9.4648   10.0974  90.0000  90.0000  90.0000  29 1

