# MOL2 file generated by ConQuest
# Please check atom types

@<TRIPOS>MOLECULE
XEXWEC
    52    59     1
SMALL
NO_CHARGES
****
Generated from CSD

@<TRIPOS>ATOM
      1 O1         0.3647    7.6363   12.0794 O.2       1 RES1    0.0000
      2 O2         2.4594    7.3504   11.7696 O.2       1 RES1    0.0000
      3 N1        -0.6776    0.7387   12.5510 N.3       1 RES1    0.0000
      4 N2        -2.1741   -1.5122   12.5622 N.3       1 RES1    0.0000
      5 N3         1.3566    6.9098   11.9775 N.pl3     1 RES1    0.0000
      6 C1        -2.9182   -1.0661   14.8463 C.ar      1 RES1    0.0000
      7 C2        -2.9176   -0.2343   15.9612 C.ar      1 RES1    0.0000
      8 C3        -2.1898    0.9428   15.9486 C.ar      1 RES1    0.0000
      9 C4        -1.4850    1.3060   14.8114 C.ar      1 RES1    0.0000
     10 C5        -0.7202    0.7825   10.1162 C.ar      1 RES1    0.0000
     11 C6        -1.1336    0.1693    8.9190 C.ar      1 RES1    0.0000
     12 C7        -1.9423   -0.8957    8.9455 C.ar      1 RES1    0.0000
     13 C8        -2.3285   -1.4797   10.1343 C.ar      1 RES1    0.0000
     14 C9        -1.8892   -0.9394   11.3482 C.ar      1 RES1    0.0000
     15 C10       -1.1139    0.2130   11.3120 C.ar      1 RES1    0.0000
     16 C11       -1.4411    0.4809   13.7091 C.ar      1 RES1    0.0000
     17 C12       -2.2085   -0.6973   13.6994 C.ar      1 RES1    0.0000
     18 C13       -2.7478   -2.8361   12.6598 C.3       1 RES1    0.0000
     19 C14        0.6950    1.2432   12.6682 C.3       1 RES1    0.0000
     20 C15        0.8291    2.7633   12.4938 C.ar      1 RES1    0.0000
     21 C16        2.0874    3.2969   12.2189 C.ar      1 RES1    0.0000
     22 C17        2.2539    4.6779   12.0612 C.ar      1 RES1    0.0000
     23 C18        1.1572    5.4794   12.1729 C.ar      1 RES1    0.0000
     24 C19       -0.0859    4.9952   12.4519 C.ar      1 RES1    0.0000
     25 C20       -0.2734    3.6107   12.5873 C.ar      1 RES1    0.0000
     26 C21        1.4405    0.7813   13.9156 C.3       1 RES1    0.0000
     27 C21B       1.4186   -0.7813   13.9910 C.3       1 RES1    0.0000
     28 C14B       2.1641   -1.2432   15.2384 C.3       1 RES1    0.0000
     29 N1B        3.5367   -0.7387   15.3556 N.pl3     1 RES1    0.0000
     30 C10B       3.9730   -0.2130   16.5947 C.ar      1 RES1    0.0000
     31 C5B        3.5793   -0.7825   17.7905 C.ar      1 RES1    0.0000
     32 C6B        3.9927   -0.1693   18.9877 C.ar      1 RES1    0.0000
     33 C7B        4.8014    0.8957   18.9612 C.ar      1 RES1    0.0000
     34 C8B        5.1876    1.4797   17.7723 C.ar      1 RES1    0.0000
     35 C9B        4.7483    0.9394   16.5584 C.ar      1 RES1    0.0000
     36 N2B        5.0332    1.5122   15.3445 N.3       1 RES1    0.0000
     37 C12B       5.0675    0.6973   14.2073 C.ar      1 RES1    0.0000
     38 C1B        5.7773    1.0661   13.0603 C.ar      1 RES1    0.0000
     39 C2B        5.7767    0.2343   11.9454 C.ar      1 RES1    0.0000
     40 C3B        5.0489   -0.9428   11.9580 C.ar      1 RES1    0.0000
     41 C4B        4.3441   -1.3060   13.0952 C.ar      1 RES1    0.0000
     42 C11B       4.3002   -0.4809   14.1975 C.ar      1 RES1    0.0000
     43 C13B       5.6069    2.8361   15.2468 C.3       1 RES1    0.0000
     44 C15B       2.0300   -2.7633   15.4128 C.ar      1 RES1    0.0000
     45 C16B       0.7717   -3.2969   15.6877 C.ar      1 RES1    0.0000
     46 C17B       0.6052   -4.6779   15.8454 C.ar      1 RES1    0.0000
     47 C18B       1.7019   -5.4794   15.7338 C.ar      1 RES1    0.0000
     48 N3B        1.5025   -6.9098   15.9291 N.pl3     1 RES1    0.0000
     49 O1B        2.4944   -7.6363   15.8273 O.2       1 RES1    0.0000
     50 O2B        0.3997   -7.3504   16.1370 O.2       1 RES1    0.0000
     51 C19B       2.9450   -4.9952   15.4547 C.ar      1 RES1    0.0000
     52 C20B       3.1325   -3.6107   15.3193 C.ar      1 RES1    0.0000
@<TRIPOS>BOND
     1    1    5 2
     2    2    5 2
     3    3   15 1
     4    4   14 1
     5    5   23 1
     6    6    7 ar
     7    7    8 ar
     8    8    9 ar
     9    9   16 ar
    10   10   11 ar
    11   11   12 ar
    12   12   13 ar
    13   13   14 ar
    14   14   15 ar
    15   15   10 ar
    16   16    3 1
    17   17    4 1
    18   18    4 1
    19   19    3 1
    20   20   19 1
    21   21   20 ar
    22   22   21 ar
    23   23   22 ar
    24   24   23 ar
    25   25   20 ar
    26   26   19 1
    27   27   26 1
    28   28   27 1
    29   29   28 1
    30   30   29 1
    31   31   30 ar
    32   32   31 ar
    33   33   32 ar
    34   34   33 ar
    35   35   30 ar
    36   36   35 1
    37   37   36 1
    38   38   37 ar
    39   39   38 ar
    40   40   39 ar
    41   41   40 ar
    42   42   29 1
    43   43   36 1
    44   44   28 1
    45   45   44 ar
    46   46   45 ar
    47   47   46 ar
    48   48   47 1
    49   49   48 2
    50   50   48 2
    51   51   47 ar
    52   52   44 ar
    53    6   17 ar
    54   16   17 ar
    55   24   25 ar
    56   34   35 ar
    57   37   42 ar
    58   41   42 ar
    59   51   52 ar
@<TRIPOS>SUBSTRUCTURE
     1 RES1 1

@<TRIPOS>CRYSIN
  10.9720   11.2100   14.5310  90.0000 106.2100  90.0000  14 1

