# MOL2 file generated by ConQuest
# Please check atom types

@<TRIPOS>MOLECULE
XEXWAY
    41    47     1
SMALL
NO_CHARGES
****
Generated from CSD

@<TRIPOS>ATOM
      1 O1         4.6294   23.6340   -0.8368 O.2       1 RES1    0.0000
      2 O2         5.2782   21.5862   -0.7187 O.2       1 RES1    0.0000
      3 N1        12.0346   27.2508    6.4507 N.3       1 RES1    0.0000
      4 N2         9.9475   25.9688    5.1930 N.3       1 RES1    0.0000
      5 N3        11.7006   21.9433    5.7330 N.3       1 RES1    0.0000
      6 N4        10.0442   23.2076    4.0468 N.pl3     1 RES1    0.0000
      7 N5         5.3626   22.7433   -0.3978 N.pl3     1 RES1    0.0000
      8 C1        10.1479   27.5481    3.3310 C.ar      1 RES1    0.0000
      9 C2        10.7302   28.6544    2.7421 C.ar      1 RES1    0.0000
     10 C3        11.7403   29.3187    3.4204 C.ar      1 RES1    0.0000
     11 C4        12.1349   28.8595    4.6694 C.ar      1 RES1    0.0000
     12 C5        11.5118   26.1291    8.5067 C.ar      1 RES1    0.0000
     13 C6        10.7606   25.2154    9.2446 C.ar      1 RES1    0.0000
     14 C7         9.7417   24.5813    8.6153 C.ar      1 RES1    0.0000
     15 C8         9.4432   24.8313    7.3154 C.ar      1 RES1    0.0000
     16 C9        10.1940   25.7146    6.5544 C.ar      1 RES1    0.0000
     17 C10       11.2598   26.3595    7.1847 C.ar      1 RES1    0.0000
     18 C11       11.5912   27.7452    5.2555 C.ar      1 RES1    0.0000
     19 C12       10.5483   27.0754    4.5772 C.ar      1 RES1    0.0000
     20 C13       13.2365   27.8318    7.0617 C.3       1 RES1    0.0000
     21 C14        8.8645   25.2953    4.4744 C.3       1 RES1    0.0000
     22 C15        9.3474   24.3292    3.4204 C.3       1 RES1    0.0000
     23 C16       11.6655   22.9386    2.2204 C.ar      1 RES1    0.0000
     24 C17       12.9244   22.5594    1.7986 C.ar      1 RES1    0.0000
     25 C18       13.7587   21.9677    2.6614 C.ar      1 RES1    0.0000
     26 C19       13.3888   21.7026    3.9488 C.ar      1 RES1    0.0000
     27 C20        9.7727   20.9871    6.9647 C.ar      1 RES1    0.0000
     28 C21        8.3991   20.9506    7.1405 C.ar      1 RES1    0.0000
     29 C22        7.5375   21.5874    6.2931 C.ar      1 RES1    0.0000
     30 C23        8.0875   22.3148    5.2305 C.ar      1 RES1    0.0000
     31 C24        9.4323   22.4026    5.0403 C.ar      1 RES1    0.0000
     32 C25       10.3078   21.7685    5.9126 C.ar      1 RES1    0.0000
     33 C26       12.1406   22.1288    4.4186 C.ar      1 RES1    0.0000
     34 C27       11.2794   22.7614    3.5347 C.ar      1 RES1    0.0000
     35 C28       12.5808   21.4725    6.7937 C.3       1 RES1    0.0000
     36 C29        8.2848   23.9272    2.4231 C.ar      1 RES1    0.0000
     37 C30        7.4140   24.8574    1.8802 C.ar      1 RES1    0.0000
     38 C31        6.4772   24.4613    0.9521 C.ar      1 RES1    0.0000
     39 C32        6.3776   23.1583    0.5813 C.ar      1 RES1    0.0000
     40 C33        7.2267   22.2037    1.0732 C.ar      1 RES1    0.0000
     41 C34        8.1867   22.6028    1.9984 C.ar      1 RES1    0.0000
@<TRIPOS>BOND
     1    1    7 2
     2    2    7 2
     3    3   17 1
     4    4   16 1
     5    5   32 1
     6    6   22 1
     7    7   39 1
     8    8    9 ar
     9    9   10 ar
    10   10   11 ar
    11   11   18 ar
    12   12   13 ar
    13   13   14 ar
    14   14   15 ar
    15   15   16 ar
    16   16   17 ar
    17   17   12 ar
    18   18    3 1
    19   19    4 1
    20   20    3 1
    21   21    4 1
    22   22   21 1
    23   23   24 ar
    24   24   25 ar
    25   25   26 ar
    26   26   33 ar
    27   27   28 ar
    28   28   29 ar
    29   29   30 ar
    30   30   31 ar
    31   31    6 1
    32   32   27 ar
    33   33    5 1
    34   34    6 1
    35   35    5 1
    36   36   22 1
    37   37   36 ar
    38   38   37 ar
    39   39   38 ar
    40   40   39 ar
    41   41   36 ar
    42    8   19 ar
    43   18   19 ar
    44   23   34 ar
    45   31   32 ar
    46   33   34 ar
    47   40   41 ar
@<TRIPOS>SUBSTRUCTURE
     1 RES1 1

@<TRIPOS>CRYSIN
  10.3850   27.7310    9.6700  96.4900  90.3100  83.7500   2 1

