# MOL2 file generated by ConQuest
# Please check atom types

@<TRIPOS>MOLECULE
XEXWIG
    26    29     1
SMALL
NO_CHARGES
****
Generated from CSD

@<TRIPOS>ATOM
      1 O1         3.1187    1.3465    0.2097 O.2       1 RES1    0.0000
      2 O2         4.1467    1.2664    2.1130 O.2       1 RES1    0.0000
      3 N1        -3.0636   -2.5603    4.4756 N.3       1 RES1    0.0000
      4 N2        -5.0634   -3.9548    5.6312 N.3       1 RES1    0.0000
      5 N3         3.2338    0.9555    1.3546 N.pl3     1 RES1    0.0000
      6 C1        -3.7947   -4.0645    7.7297 C.ar      1 RES1    0.0000
      7 C2        -2.6820   -3.7285    8.4842 C.ar      1 RES1    0.0000
      8 C3        -1.6856   -2.9992    7.8850 C.ar      1 RES1    0.0000
      9 C4        -1.7774   -2.6312    6.5605 C.ar      1 RES1    0.0000
     10 C5        -3.7904   -3.3536    2.2742 C.ar      1 RES1    0.0000
     11 C6        -4.6546   -4.1102    1.5071 C.ar      1 RES1    0.0000
     12 C7        -5.6051   -4.8989    2.1072 C.ar      1 RES1    0.0000
     13 C8        -5.6918   -4.9126    3.4764 C.ar      1 RES1    0.0000
     14 C9        -3.9243   -3.6759    6.4022 C.ar      1 RES1    0.0000
     15 C10       -2.8814   -2.9535    5.8011 C.ar      1 RES1    0.0000
     16 C11       -3.9059   -3.3467    3.6454 C.ar      1 RES1    0.0000
     17 C12       -4.8923   -4.1011    4.2659 C.ar      1 RES1    0.0000
     18 C13       -2.0136   -1.7556    3.8483 C.3       1 RES1    0.0000
     19 C14       -0.7857   -2.5557    3.3977 C.3       1 RES1    0.0000
     20 C15        0.2832   -1.6551    2.8578 C.ar      1 RES1    0.0000
     21 C16        1.1789   -1.0561    3.6968 C.ar      1 RES1    0.0000
     22 C17        2.1415   -0.2012    3.2084 C.ar      1 RES1    0.0000
     23 C18        2.1997    0.0480    1.8790 C.ar      1 RES1    0.0000
     24 C19        1.3437   -0.5486    1.0089 C.ar      1 RES1    0.0000
     25 C20        0.3722   -1.3922    1.5207 C.ar      1 RES1    0.0000
     26 C21       -6.1732   -4.6337    6.2867 C.3       1 RES1    0.0000
@<TRIPOS>BOND
     1    1    5 2
     2    2    5 2
     3    3   15 1
     4    4   14 1
     5    5   23 1
     6    6    7 ar
     7    7    8 ar
     8    8    9 ar
     9    9   15 ar
    10   10   11 ar
    11   11   12 ar
    12   12   13 ar
    13   13   17 ar
    14   14    6 ar
    15   15   14 ar
    16   16    3 1
    17   17    4 1
    18   18    3 1
    19   19   18 1
    20   20   19 1
    21   21   20 ar
    22   22   21 ar
    23   23   22 ar
    24   24   23 ar
    25   25   20 ar
    26   26    4 1
    27   10   16 ar
    28   16   17 ar
    29   24   25 ar
@<TRIPOS>SUBSTRUCTURE
     1 RES1 1

@<TRIPOS>CRYSIN
   7.6790   22.8600    9.9320  90.0000 102.1200  90.0000  14 2

