# MOL2 file generated by ConQuest
# Please check atom types

@<TRIPOS>MOLECULE
XEYGOZ
    48    51     1
SMALL
NO_CHARGES
****
Generated from CSD

@<TRIPOS>ATOM
      1 C1         5.5186    1.6230    2.6495 C.ar      1 RES1    0.0000
      2 C2         5.8703    2.5432    3.5906 C.ar      1 RES1    0.0000
      3 H1         6.7484    2.5944    3.8920 H         1 RES1    0.0000
      4 C3         4.9107    3.3967    4.0895 C.ar      1 RES1    0.0000
      5 H2         5.1417    4.0233    4.7363 H         1 RES1    0.0000
      6 C4         3.6072    3.3262    3.6333 C.ar      1 RES1    0.0000
      7 C5         3.2828    2.4032    2.6525 C.ar      1 RES1    0.0000
      8 H3         2.4100    2.3568    2.3363 H         1 RES1    0.0000
      9 C6         4.2388    1.5497    2.1394 C.ar      1 RES1    0.0000
     10 H4         4.0272    0.9433    1.4677 H         1 RES1    0.0000
     11 C7         2.5276    4.1591    4.2754 C.3       1 RES1    0.0000
     12 C8         1.7188    3.4880    5.4043 C.3       1 RES1    0.0000
     13 H5         1.9213    2.5326    5.4833 H         1 RES1    0.0000
     14 C9         0.2915    3.7322    4.9447 C.2       1 RES1    0.0000
     15 C10        0.3043    4.4061    3.7861 C.2       1 RES1    0.0000
     16 C11       -0.6947    5.0410    2.9101 C.ar      1 RES1    0.0000
     17 C12       -1.9977    5.2099    3.3124 C.ar      1 RES1    0.0000
     18 H6        -2.2886    4.8488    4.1186 H         1 RES1    0.0000
     19 C13       -2.8812    5.9273    2.5048 C.ar      1 RES1    0.0000
     20 H7        -3.7599    6.0413    2.7894 H         1 RES1    0.0000
     21 C14       -2.5075    6.4526    1.3441 C.ar      1 RES1    0.0000
     22 H8        -3.1162    6.9131    0.8144 H         1 RES1    0.0000
     23 C15       -1.2340    6.3048    0.9529 C.ar      1 RES1    0.0000
     24 H9        -0.9531    6.6843    0.1516 H         1 RES1    0.0000
     25 C16       -0.3282    5.5894    1.7285 C.ar      1 RES1    0.0000
     26 H10        0.5453    5.4861    1.4303 H         1 RES1    0.0000
     27 C17        2.1898    4.2695    6.6129 C.2       1 RES1    0.0000
     28 C18        2.9706    5.2930    6.1951 C.2       1 RES1    0.0000
     29 C19        1.9153    4.0166    7.9599 C.1       1 RES1    0.0000
     30 N1         6.5295    0.6517    2.1770 N.pl3     1 RES1    0.0000
     31 N2         1.7161    3.8379    9.0754 N.1       1 RES1    0.0000
     32 C20       -0.8331    3.1341    5.6748 C.2       1 RES1    0.0000
     33 O1         7.5526    0.5446    2.8356 O.2       1 RES1    0.0000
     34 O2         6.2825   -0.0261    1.2197 O.2       1 RES1    0.0000
     35 O3         3.1247    5.3456    4.8479 O.3       1 RES1    0.0000
     36 O4         1.5888    4.6019    3.3068 O.3       1 RES1    0.0000
     37 N3         3.5847    6.2835    6.8679 N.3       1 RES1    0.0000
     38 H11        4.1420    6.7490    6.4044 H         1 RES1    0.0000
     39 O5        -0.4154    2.6449    6.8349 O.3       1 RES1    0.0000
     40 O6        -1.9671    3.0173    5.2826 O.2       1 RES1    0.0000
     41 C21       -1.3888    1.9224    7.6324 C.3       1 RES1    0.0000
     42 H12       -2.0948    2.5248    7.9132 H         1 RES1    0.0000
     43 H13       -1.7874    1.2146    7.1026 H         1 RES1    0.0000
     44 C22       -0.7351    1.3556    8.7963 C.3       1 RES1    0.0000
     45 H14       -0.0545    0.7406    8.5123 H         1 RES1    0.0000
     46 H15       -1.3826    0.8921    9.3323 H         1 RES1    0.0000
     47 H16       -0.3354    2.0585    9.3136 H         1 RES1    0.0000
     48 H17        3.7126    6.1890    7.7448 H         1 RES1    0.0000
@<TRIPOS>BOND
     1    1    2 ar
     2    2    3 1
     3    4    2 ar
     4    5    4 1
     5    6    4 ar
     6    7    6 ar
     7    8    7 1
     8    9    1 ar
     9   10    9 1
    10   11    6 1
    11   12   11 1
    12   13   12 1
    13   14   12 1
    14   15   14 2
    15   16   15 1
    16   17   16 ar
    17   18   17 1
    18   19   17 ar
    19   20   19 1
    20   21   19 ar
    21   22   21 1
    22   23   21 ar
    23   24   23 1
    24   25   16 ar
    25   26   25 1
    26   27   12 1
    27   28   27 2
    28   29   27 1
    29   30    1 1
    30   31   29 3
    31   32   14 1
    32   33   30 2
    33   34   30 2
    34   35   11 1
    35   36   11 1
    36   37   28 1
    37   38   37 1
    38   39   32 1
    39   40   32 2
    40   41   39 1
    41   42   41 1
    42   43   41 1
    43   44   41 1
    44   45   44 1
    45   46   44 1
    46   47   44 1
    47   48   37 1
    48    7    9 ar
    49   15   36 1
    50   23   25 ar
    51   28   35 1
@<TRIPOS>SUBSTRUCTURE
     1 RES1 1

@<TRIPOS>CRYSIN
  10.9383    9.6552   19.3200  90.0000 104.3080  90.0000 231 1

