# MOL2 file generated by ConQuest
# Please check atom types

@<TRIPOS>MOLECULE
XEYJAP
    30    29     2
SMALL
NO_CHARGES
****
Generated from CSD

@<TRIPOS>ATOM
      1 O1         5.7739    6.7891   11.6535 O.2       1 RES1    0.0000
      2 N1         5.5842    7.5495   10.7235 N.pl3     1 RES1    0.0000
      3 C1         4.4748    5.1802    8.1073 C.ar      1 RES1    0.0000
      4 O2         5.8241    8.7426   10.7685 O.2       1 RES1    0.0000
      5 N2         4.2223    3.7313    8.0660 N.pl3     1 RES1    0.0000
      6 C2         4.9530    5.6537    9.2999 C.ar      1 RES1    0.0000
      7 H1         5.2139    5.0683    9.9733 H         1 RES1    0.0000
      8 O3         5.1097    2.9829    8.4247 O.2       1 RES1    0.0000
      9 C3         4.1451    7.3932    7.3223 C.ar      1 RES1    0.0000
     10 O4         3.3903    8.0908    5.2413 O.2       1 RES1    0.0000
     11 N3         3.6728    8.3837    6.3659 N.pl3     1 RES1    0.0000
     12 O5         3.0876    9.4196    6.8592 O.2       1 RES1    0.0000
     13 C4         5.0380    7.0174    9.4789 C.ar      1 RES1    0.0000
     14 O6         3.1002    3.3796    7.7492 O.2       1 RES1    0.0000
     15 N4         3.7724    5.5497    5.7876 N.pl3     1 RES1    0.0000
     16 H2         3.6843    6.1477    5.1814 H         1 RES1    0.0000
     17 C5         4.6090    7.8898    8.5248 C.ar      1 RES1    0.0000
     18 H3         4.6276    8.8066    8.6815 H         1 RES1    0.0000
     19 N5         4.2031    4.2987    5.3656 N.pl3     1 RES1    0.0000
     20 H4         5.0422    4.2732    5.1373 H         1 RES1    0.0000
     21 C6         4.1193    6.0135    7.0215 C.ar      1 RES1    0.0000
     22 N6         2.0277    3.7837    4.8723 N.pl3     1 RES1    0.0000
     23 H5         1.4342    3.2693    4.4447 H         1 RES1    0.0000
     24 H6         1.7915    4.5308    5.2907 H         1 RES1    0.0000
     25 N7         3.8980    2.5053    4.0598 N.2       1 RES1    0.0000
     26 O7         3.6938    0.7836    2.7375 O.2       1 RES1    0.0000
     27 C7         3.2980    3.5136    4.7306 C.2       1 RES1    0.0000
     28 N8         3.1154    1.6949    3.3342 N.pl3     1 RES1    0.0000
     29 O8         1.8754    1.8247    3.2290 O.2       1 RES1    0.0000
     30 O9         4.2907    9.5466    6.5067 Du        2 SUP2    0.0000
@<TRIPOS>BOND
     1    1    2 2
     2    2    4 2
     3    3    5 1
     4    5    8 2
     5    6    3 ar
     6    7    6 1
     7    9   11 1
     8   10   11 2
     9   11   12 2
    10   13    2 1
    11   14    5 2
    12   15   16 1
    13   17    9 ar
    14   18   17 1
    15   19   15 1
    16   20   19 1
    17   21    3 ar
    18   22   23 1
    19   24   22 1
    20   25   27 2
    21   26   28 2
    22   27   19 1
    23   28   25 1
    24   29   28 2
    25    6   13 ar
    26    9   21 ar
    27   13   17 ar
    28   15   21 1
    29   22   27 1
@<TRIPOS>SUBSTRUCTURE
     1 RES1 1
     2 SUP2 30

@<TRIPOS>CRYSIN
   7.9463    8.8839   17.8480  90.0000  99.0920  90.0000 231 1

