# MOL2 file generated by ConQuest
# Please check atom types

@<TRIPOS>MOLECULE
XEYLIW
    31    33     1
SMALL
NO_CHARGES
****
Generated from CSD

@<TRIPOS>ATOM
      1 N1         8.3311    5.3209    3.8587 N.pl3     1 RES1    0.0000
      2 O1         9.1529    5.9032    4.6896 O.2       1 RES1    0.0000
      3 C1         8.3623    5.6212    2.5320 C.ar      1 RES1    0.0000
      4 C2         7.5203    5.0061    1.6458 C.ar      1 RES1    0.0000
      5 C3         6.6021    4.0840    2.0794 C.ar      1 RES1    0.0000
      6 C4         6.5663    3.7862    3.4332 C.ar      1 RES1    0.0000
      7 C5         7.4386    4.3914    4.3093 C.ar      1 RES1    0.0000
      8 N2         8.3440    3.0896    6.1227 N.pl3     1 RES1    0.0000
      9 O2         9.0969    2.5467    5.2055 O.2       1 RES1    0.0000
     10 C6         7.4680    4.0889    5.7574 C.ar      1 RES1    0.0000
     11 C7         6.6590    4.7001    6.6817 C.ar      1 RES1    0.0000
     12 C8         6.7371    4.3341    8.0174 C.ar      1 RES1    0.0000
     13 C9         7.6121    3.3403    8.3717 C.ar      1 RES1    0.0000
     14 C10        8.4128    2.6884    7.4374 C.ar      1 RES1    0.0000
     15 N3         9.8471    1.6800    9.0411 N.ar      1 RES1    0.0000
     16 C11        9.2879    1.5568    7.8228 C.ar      1 RES1    0.0000
     17 C12        9.4458    0.4143    7.0540 C.ar      1 RES1    0.0000
     18 C13       10.1740   -0.6446    7.5458 C.ar      1 RES1    0.0000
     19 C14       10.7809   -0.5189    8.7731 C.ar      1 RES1    0.0000
     20 C15       10.5863    0.6472    9.4706 C.ar      1 RES1    0.0000
     21 H1         8.9867    6.2760    2.2118 H         1 RES1    0.0000
     22 H2         7.5717    5.2226    0.7125 H         1 RES1    0.0000
     23 H3         6.0016    3.6568    1.4642 H         1 RES1    0.0000
     24 H4         5.9263    3.1524    3.7633 H         1 RES1    0.0000
     25 H5         6.0410    5.3794    6.4047 H         1 RES1    0.0000
     26 H6         6.1907    4.7651    8.6778 H         1 RES1    0.0000
     27 H7         7.6764    3.0844    9.2950 H         1 RES1    0.0000
     28 H8         9.0482    0.3633    6.1819 H         1 RES1    0.0000
     29 H9        10.2575   -1.4559    7.0410 H         1 RES1    0.0000
     30 H10       11.3236   -1.2259    9.1314 H         1 RES1    0.0000
     31 H11       11.0096    0.7293   10.3276 H         1 RES1    0.0000
@<TRIPOS>BOND
     1    1    2 1
     2    3    1 ar
     3    4    3 ar
     4    5    4 ar
     5    6    5 ar
     6    7    1 ar
     7    8    9 1
     8   10    7 1
     9   11   10 ar
    10   12   11 ar
    11   13   12 ar
    12   14    8 ar
    13   15   16 ar
    14   16   14 1
    15   17   16 ar
    16   18   17 ar
    17   19   18 ar
    18   20   15 ar
    19   21    3 1
    20   22    4 1
    21   23    5 1
    22   24    6 1
    23   25   11 1
    24   26   12 1
    25   27   13 1
    26   28   17 1
    27   29   18 1
    28   30   19 1
    29   31   20 1
    30    6    7 ar
    31    8   10 ar
    32   13   14 ar
    33   19   20 ar
@<TRIPOS>SUBSTRUCTURE
     1 RES1 1

@<TRIPOS>CRYSIN
   9.1823   26.1390   10.0356  90.0000  90.0000  90.0000  61 1

