# MOL2 file generated by ConQuest
# Please check atom types

@<TRIPOS>MOLECULE
XEZFIU
    46    40     2
SMALL
NO_CHARGES
****
Generated from CSD

@<TRIPOS>ATOM
      1 O1        13.5834    4.0350   -1.3210 O.3       1 RES1    0.0000
      2 H1        14.1202    4.6764   -0.9455 H         1 RES1    0.0000
      3 O2         7.1151    3.0633    3.8783 O.3       1 RES1    0.0000
      4 N1        12.5030    3.9787   -0.3765 N.2       1 RES1    0.0000
      5 N2        12.1359    1.9448   -1.4708 N.pl3     1 RES1    0.0000
      6 H2        11.8766    1.1405   -1.3492 H         1 RES1    0.0000
      7 H3        12.9728    2.0469   -1.9016 H         1 RES1    0.0000
      8 C1        10.7108    2.6315    0.3984 C.ar      1 RES1    0.0000
      9 C2         9.7388    1.6853    0.0882 C.ar      1 RES1    0.0000
     10 H4         9.8355    1.1539   -0.6927 H         1 RES1    0.0000
     11 C3         8.6393    1.5085    0.9009 C.ar      1 RES1    0.0000
     12 H5         7.9903    0.8531    0.6767 H         1 RES1    0.0000
     13 C4         8.4712    2.2844    2.0503 C.ar      1 RES1    0.0000
     14 C5         9.4575    3.2107    2.3807 C.ar      1 RES1    0.0000
     15 H6         9.3683    3.7347    3.1679 H         1 RES1    0.0000
     16 C6        10.5700    3.3751    1.5659 C.ar      1 RES1    0.0000
     17 H7        11.2407    4.0011    1.8092 H         1 RES1    0.0000
     18 C7         7.2407    2.1833    2.8248 C.2       1 RES1    0.0000
     19 C8         6.0820    1.5095    2.6633 C.2       1 RES1    0.0000
     20 H8         5.9112    0.8307    2.0206 H         1 RES1    0.0000
     21 C9         5.1588    2.0030    3.6354 C.2       1 RES1    0.0000
     22 C10        5.8300    2.9368    4.3567 C.2       1 RES1    0.0000
     23 C11        3.7363    1.6260    3.7522 C.ar      1 RES1    0.0000
     24 C12        3.2658    0.3327    3.4101 C.ar      1 RES1    0.0000
     25 H9         3.8848   -0.3143    3.0946 H         1 RES1    0.0000
     26 C13        1.9302   -0.0154    3.5196 C.ar      1 RES1    0.0000
     27 H10        1.6387   -0.8974    3.3209 H         1 RES1    0.0000
     28 C14        1.0206    0.9622    3.9318 C.ar      1 RES1    0.0000
     29 H11        0.1117    0.7231    4.0656 H         1 RES1    0.0000
     30 C15        1.4008    2.2257    4.1410 C.ar      1 RES1    0.0000
     31 H12        0.7500    2.8815    4.3599 H         1 RES1    0.0000
     32 C16        2.7356    2.5907    4.0422 C.ar      1 RES1    0.0000
     33 H13        2.9824    3.4986    4.1697 H         1 RES1    0.0000
     34 C17       11.8631    2.8666   -0.5089 C.2       1 RES1    0.0000
     35 C18        5.5095    3.8208    5.4955 C.3       1 RES1    0.0000
     36 H14        4.5817    3.6689    5.7760 H         1 RES1    0.0000
     37 H15        5.6208    4.7561    5.2236 H         1 RES1    0.0000
     38 H16        6.1148    3.6241    6.2413 H         1 RES1    0.0000
     39 C19        3.0455    1.3078    2.6803 Du        2 SUP2    0.0000
     40 H17        3.4789    1.2909    1.8357 Du        2 SUP2    0.0000
     41 C20        1.6981    0.9975    2.7526 Du        2 SUP2    0.0000
     42 H18        1.2305    0.8018    1.9494 Du        2 SUP2    0.0000
     43 C21        1.7622    1.2580    5.1088 Du        2 SUP2    0.0000
     44 H19        1.3234    1.2416    5.9524 Du        2 SUP2    0.0000
     45 C22        3.1044    1.5688    5.0451 Du        2 SUP2    0.0000
     46 H20        3.6017    1.7411    5.8366 Du        2 SUP2    0.0000
@<TRIPOS>BOND
     1    1    2 1
     2    3   18 1
     3    4    1 1
     4    5    6 1
     5    7    5 1
     6    8    9 ar
     7    9   10 1
     8   11    9 ar
     9   12   11 1
    10   13   11 ar
    11   14   13 ar
    12   15   14 1
    13   16    8 ar
    14   17   16 1
    15   18   13 1
    16   19   18 2
    17   20   19 1
    18   21   19 1
    19   22    3 1
    20   23   21 1
    21   24   23 ar
    22   25   24 1
    23   26   24 ar
    24   27   26 1
    25   28   26 ar
    26   29   28 1
    27   30   28 ar
    28   31   30 1
    29   32   23 ar
    30   33   32 1
    31   34    4 2
    32   35   22 1
    33   36   35 1
    34   37   35 1
    35   38   35 1
    36    5   34 1
    37    8   34 1
    38   14   16 ar
    39   21   22 2
    40   30   32 ar
@<TRIPOS>SUBSTRUCTURE
     1 RES1 1
     2 SUP2 39

@<TRIPOS>CRYSIN
  27.2150    4.9802   10.6236  90.0000  90.2290  90.0000  14 1

