# MOL2 file generated by ConQuest
# Please check atom types

@<TRIPOS>MOLECULE
XEZTAY
    42    32     2
SMALL
NO_CHARGES
****
Generated from CSD

@<TRIPOS>ATOM
      1 C1         6.1425    3.1438   -0.7295 C.2       1 RES1    0.0000
      2 C2         6.9227    4.0655   -1.6661 C.3       1 RES1    0.0000
      3 H1         7.8209    4.2801   -1.2807 H         1 RES1    0.0000
      4 C3         6.0091    5.2884   -1.6164 C.3       1 RES1    0.0000
      5 H2         6.4757    6.0972   -1.9505 H         1 RES1    0.0000
      6 H3         5.1858    5.1443   -2.1417 H         1 RES1    0.0000
      7 C4         7.0638    3.4480   -3.0416 C.3       1 RES1    0.0000
      8 H4         7.5726    2.6029   -2.9592 H         1 RES1    0.0000
      9 H5         6.1617    3.2224   -3.3819 H         1 RES1    0.0000
     10 C5         7.7414    4.3113   -4.0363 C.2       1 RES1    0.0000
     11 H6         7.8966    3.9315   -4.8942 H         1 RES1    0.0000
     12 O1         8.1092    5.4234   -3.8746 O.2       1 RES1    0.0000
     13 O2         5.7341    5.3866   -0.2269 O.3       1 RES1    0.0000
     14 C6         5.4861    4.0663    0.2407 C.3       1 RES1    0.0000
     15 H7         4.5126    3.8902    0.2798 H         1 RES1    0.0000
     16 H8         5.8669    3.9436    1.1470 H         1 RES1    0.0000
     17 C7         6.2258    1.8101   -0.7135 C.2       1 RES1    0.0000
     18 H9         6.6843    1.4284   -1.4532 H         1 RES1    0.0000
     19 C8         5.7210    0.8456    0.2641 C.ar      1 RES1    0.0000
     20 C9         4.9880    1.1775    1.4086 C.ar      1 RES1    0.0000
     21 H10        4.7870    2.0892    1.5853 H         1 RES1    0.0000
     22 C10        4.5542    0.2127    2.2789 C.ar      1 RES1    0.0000
     23 H11        4.0552    0.4503    3.0509 H         1 RES1    0.0000
     24 C11        4.8510   -1.1003    2.0200 C.ar      1 RES1    0.0000
     25 C12        5.5529   -1.4854    0.8993 C.ar      1 RES1    0.0000
     26 H12        5.7359   -2.4014    0.7274 H         1 RES1    0.0000
     27 C13        5.9773   -0.5076    0.0421 C.ar      1 RES1    0.0000
     28 H13        6.4655   -0.7595   -0.7336 H         1 RES1    0.0000
     29 N1         4.4101   -2.1259    2.9679 N.pl3     1 RES1    0.0000
     30 O3         4.6913   -3.2896    2.7371 O.2       1 RES1    0.0000
     31 O4         3.7536   -1.7849    3.9309 O.2       1 RES1    0.0000
     32 C14        6.3405    3.9547   -2.0951 Du        2 SUP2    0.0000
     33 H14        5.6528    3.7401   -2.7898 Du        2 SUP2    0.0000
     34 C15        6.2269    5.3680   -1.5433 Du        2 SUP2    0.0000
     35 H15        7.1171    5.7981   -1.5635 Du        2 SUP2    0.0000
     36 H16        5.6208    5.8948   -2.1246 Du        2 SUP2    0.0000
     37 C16        7.7697    3.7270   -2.5675 Du        2 SUP2    0.0000
     38 H17        8.3756    3.9144   -1.8075 Du        2 SUP2    0.0000
     39 H18        7.8681    2.7681   -2.7913 Du        2 SUP2    0.0000
     40 C17        8.2374    4.5148   -3.7239 Du        2 SUP2    0.0000
     41 H19        9.1000    4.3204   -4.0658 Du        2 SUP2    0.0000
     42 O5         7.6094    5.3770   -4.2663 Du        2 SUP2    0.0000
@<TRIPOS>BOND
     1    1    2 1
     2    2    3 1
     3    4    2 1
     4    5    4 1
     5    6    4 1
     6    7    2 1
     7    8    7 1
     8    9    7 1
     9   10    7 1
    10   11   10 1
    11   12   10 2
    12   13    4 1
    13   14    1 1
    14   15   14 1
    15   16   14 1
    16   17    1 2
    17   18   17 1
    18   19   17 1
    19   20   19 ar
    20   21   20 1
    21   22   20 ar
    22   23   22 1
    23   24   22 ar
    24   25   24 ar
    25   26   25 1
    26   27   19 ar
    27   28   27 1
    28   29   24 1
    29   30   29 2
    30   31   29 2
    31   13   14 1
    32   25   27 ar
@<TRIPOS>SUBSTRUCTURE
     1 RES1 1
     2 SUP2 32

@<TRIPOS>CRYSIN
   7.7810   10.0731   15.5420  90.0000  90.0780  90.0000  14 1

