# MOL2 file generated by ConQuest
# Please check atom types

@<TRIPOS>MOLECULE
XEZWUU
    49    44     2
SMALL
NO_CHARGES
****
Generated from CSD

@<TRIPOS>ATOM
      1 C1         4.9273    1.7580    4.2732 C.2       1 RES1    0.0000
      2 N1         6.2473    1.4284    4.1878 N.3       1 RES1    0.0000
      3 C2         6.6210    1.2700    2.7589 C.3       1 RES1    0.0000
      4 C3         5.2150    1.0477    2.1883 C.3       1 RES1    0.0000
      5 N2         4.2937    1.6098    3.1858 N.2       1 RES1    0.0000
      6 O1         7.0519    1.2853    5.1651 O.2       1 RES1    0.0000
      7 C4         7.2792    2.5579    2.3702 C.3       1 RES1    0.0000
      8 C5         7.6160    0.1610    2.5960 C.3       1 RES1    0.0000
      9 C6         4.9605    1.7376    0.8425 C.3       1 RES1    0.0000
     10 C7         4.8671   -0.4472    2.0782 C.3       1 RES1    0.0000
     11 C8         4.3072    2.2257    5.5279 C.ar      1 RES1    0.0000
     12 C9         2.9668    1.9497    5.7638 C.ar      1 RES1    0.0000
     13 C10        2.3522    2.4378    6.8636 C.ar      1 RES1    0.0000
     14 C11        3.0084    3.2401    7.7510 C.ar      1 RES1    0.0000
     15 C12        4.3512    3.5595    7.5365 C.ar      1 RES1    0.0000
     16 C13        4.9951    3.0485    6.4333 C.ar      1 RES1    0.0000
     17 C14        5.0169    4.4718    8.4778 C.2       1 RES1    0.0000
     18 N3         6.2214    4.9011    8.4363 N.3       1 RES1    0.0000
     19 O2         6.5097    5.5348    6.9984 O.2       1 RES1    0.0000
     20 C15        6.6964    5.6779    9.5933 C.3       1 RES1    0.0000
     21 C16        5.1816    6.0612   10.1662 C.3       1 RES1    0.0000
     22 N4         4.3421    5.0161    9.5259 N.2       1 RES1    0.0000
     23 C17        7.6298    6.8124    9.2226 C.3       1 RES1    0.0000
     24 C18        7.2675    4.5689   10.6717 C.3       1 RES1    0.0000
     25 C19        4.8935    6.0791   11.5704 C.3       1 RES1    0.0000
     26 C20        4.4226    7.2826    9.9078 C.3       1 RES1    0.0000
     27 H1         7.5450    2.5170    1.4570 H         1 RES1    0.0000
     28 H2         6.6718    3.2759    2.4893 H         1 RES1    0.0000
     29 H3         8.0479    2.6984    2.9128 H         1 RES1    0.0000
     30 H4         7.8421    0.0741    1.6771 H         1 RES1    0.0000
     31 H5         8.3947    0.3603    3.0993 H         1 RES1    0.0000
     32 H6         7.2339   -0.6516    2.9072 H         1 RES1    0.0000
     33 H7         5.5501    1.3824    0.1876 H         1 RES1    0.0000
     34 H8         4.0616    1.5843    0.5729 H         1 RES1    0.0000
     35 H9         5.1080    2.6703    0.9301 H         1 RES1    0.0000
     36 H10        5.4357   -0.8637    1.4469 H         1 RES1    0.0000
     37 H11        4.9812   -0.8611    2.9308 H         1 RES1    0.0000
     38 H12        3.9608   -0.5417    1.8063 H         1 RES1    0.0000
     39 H13        2.4824    1.4131    5.1494 H         1 RES1    0.0000
     40 H14        1.4389    2.2206    7.0197 H         1 RES1    0.0000
     41 H15        2.5520    3.5800    8.5126 H         1 RES1    0.0000
     42 H16        5.9125    3.2503    6.2851 H         1 RES1    0.0000
     43 N5         5.9832    5.3636    8.0880 Du        2 SUP2    0.0000
     44 O3         7.1396    4.5995    7.5825 Du        2 SUP2    0.0000
     45 C21        6.3577    6.1864    9.2788 Du        2 SUP2    0.0000
     46 C22        5.8357    5.4249   10.4133 Du        2 SUP2    0.0000
     47 N6         4.8385    4.4334    9.8067 Du        2 SUP2    0.0000
     48 C23        5.2156    7.4870    9.2001 Du        2 SUP2    0.0000
     49 C24        5.4623    5.8133   11.7501 Du        2 SUP2    0.0000
@<TRIPOS>BOND
     1    1    2 1
     2    2    3 1
     3    3    4 1
     4    4    5 1
     5    5    1 2
     6    6    2 1
     7    7    3 1
     8    8    3 1
     9    9    4 1
    10   10    4 1
    11   11    1 1
    12   12   11 ar
    13   13   12 ar
    14   14   13 ar
    15   15   14 ar
    16   16   11 ar
    17   17   15 1
    18   18   17 1
    19   19   18 1
    20   20   18 1
    21   21   20 1
    22   22   17 2
    23   23   20 1
    24   24   20 1
    25   25   21 1
    26   26   21 1
    27   27    7 1
    28   28    7 1
    29   29    7 1
    30   30    8 1
    31   31    8 1
    32   32    8 1
    33   33    9 1
    34   34    9 1
    35   35    9 1
    36   36   10 1
    37   37   10 1
    38   38   10 1
    39   39   12 1
    40   40   13 1
    41   41   14 1
    42   42   16 1
    43   15   16 ar
    44   21   22 1
@<TRIPOS>SUBSTRUCTURE
     1 RES1 1
     2 SUP2 43

@<TRIPOS>CRYSIN
   7.1575   25.5530   11.5030  90.0000 102.4300  90.0000 231 1

