# MOL2 file generated by ConQuest
# Please check atom types

@<TRIPOS>MOLECULE
XEZXUV
    49    45     2
SMALL
USER_CHARGES
****
Generated from CSD

@<TRIPOS>ATOM
      1 C1         1.2627   10.9894    4.3380 C.2       1 RES1    0.0000
      2 N1         0.6839   11.1116    3.1769 N.pl3     1 RES1    1.0000
      3 O1        -0.4065   10.7220    2.8041 O.2       1 RES1   -1.0000
      4 C2         1.6039   11.7609    2.2118 C.3       1 RES1    0.0000
      5 C3         2.9788   11.5088    2.8244 C.3       1 RES1    0.0000
      6 N2         2.5841   11.3535    4.2614 N.3       1 RES1    0.0000
      7 O2         3.3977   11.4554    5.2288 O.2       1 RES1    0.0000
      8 C4         1.2102   13.2351    2.1960 C.3       1 RES1    0.0000
      9 C5         1.3724   11.1371    0.8289 C.3       1 RES1    0.0000
     10 C6         3.9809   12.6113    2.6881 C.3       1 RES1    0.0000
     11 C7         3.6027   10.1873    2.4325 C.3       1 RES1    0.0000
     12 C8         0.6260   10.4929    5.5475 C.ar      1 RES1    0.0000
     13 C9        -0.7218   10.7373    5.7671 C.ar      1 RES1    0.0000
     14 C10       -1.3578   10.2204    6.8561 C.ar      1 RES1    0.0000
     15 C11       -0.6646    9.4668    7.7716 C.ar      1 RES1    0.0000
     16 C12        0.6850    9.1765    7.5746 C.ar      1 RES1    0.0000
     17 C13        1.3271    9.7061    6.4608 C.ar      1 RES1    0.0000
     18 C14        1.3844    8.3235    8.5239 C.2       1 RES1    0.0000
     19 N3         1.0687    8.1555    9.7807 N.2       1 RES1    0.0000
     20 O3         0.2608    8.8608   10.4508 Du        2 SUP2    0.0000
     21 N4         2.4066    7.5317    8.2469 N.3       1 RES1    0.0000
     22 O4         2.9405    7.3331    7.1027 O.2       1 RES1    0.0000
     23 C15        2.3089    7.4782   10.5296 C.3       1 RES1    0.0000
     24 C16        2.7231    6.5768    9.3134 C.3       1 RES1    0.0000
     25 C17        1.7073    6.9206   11.8022 C.3       1 RES1    0.0000
     26 C18        3.4888    8.4050   10.9350 C.3       1 RES1    0.0000
     27 C19        4.1956    6.1847    9.3809 C.3       1 RES1    0.0000
     28 C20        1.8055    5.3216    9.2233 C.3       1 RES1    0.0000
     29 C21        1.5518    6.7984   10.3156 Du        2 SUP2    0.0000
     30 C22        2.9648    6.9486    9.5949 Du        2 SUP2    0.0000
     31 C23        0.7496    5.5660   10.0791 Du        2 SUP2    0.0000
     32 C24        4.0470    7.7404   10.0454 Du        2 SUP2    0.0000
     33 C25        3.4262    5.4667    9.0994 Du        2 SUP2    0.0000
     34 H1         1.7710   13.7062    1.5901 H         1 RES1    0.0000
     35 H2         0.3056   13.3217    1.9235 H         1 RES1    0.0000
     36 H3         1.3140   13.5993    3.0688 H         1 RES1    0.0000
     37 H4         0.4961   11.3433    0.5293 H         1 RES1    0.0000
     38 H5         2.0088   11.4859    0.2151 H         1 RES1    0.0000
     39 H6         1.4751   10.1950    0.8874 H         1 RES1    0.0000
     40 H7         4.2309   12.7030    1.7760 H         1 RES1    0.0000
     41 H8         3.6046   13.4236    2.9990 H         1 RES1    0.0000
     42 H9         4.7540   12.4025    3.2051 H         1 RES1    0.0000
     43 H10        3.8735   10.2204    1.5237 H         1 RES1    0.0000
     44 H11        4.3528   10.0117    2.9843 H         1 RES1    0.0000
     45 H12        2.9597    9.4922    2.5429 H         1 RES1    0.0000
     46 H13       -1.2047   11.2720    5.1488 H         1 RES1    0.0000
     47 H14       -2.2833   10.3834    6.9833 H         1 RES1    0.0000
     48 H15       -1.1056    9.1409    8.5464 H         1 RES1    0.0000
     49 H16        2.2486    9.5304    6.3200 H         1 RES1    0.0000
@<TRIPOS>BOND
     1    1    2 2
     2    2    3 1
     3    4    2 1
     4    5    4 1
     5    6    1 1
     6    7    6 1
     7    8    4 1
     8    9    4 1
     9   10    5 1
    10   11    5 1
    11   12    1 1
    12   13   12 ar
    13   14   13 ar
    14   15   14 ar
    15   16   15 ar
    16   17   12 ar
    17   18   16 1
    18   19   18 2
    19   21   18 1
    20   22   21 1
    21   23   19 1
    22   24   21 1
    23   25   23 1
    24   26   23 1
    25   27   24 1
    26   28   24 1
    27   34    8 1
    28   35    8 1
    29   36    8 1
    30   37    9 1
    31   38    9 1
    32   39    9 1
    33   40   10 1
    34   41   10 1
    35   42   10 1
    36   43   11 1
    37   44   11 1
    38   45   11 1
    39   46   13 1
    40   47   14 1
    41   48   15 1
    42   49   17 1
    43    5    6 1
    44   16   17 ar
    45   23   24 1
@<TRIPOS>SUBSTRUCTURE
     1 RES1 1
     2 SUP2 20

@<TRIPOS>CRYSIN
   7.2287   25.4620   11.5960  90.0000 103.7930  90.0000 231 1

