# MOL2 file generated by ConQuest
# Please check atom types

@<TRIPOS>MOLECULE
XEZXAB
    48    46     2
SMALL
NO_CHARGES
****
Generated from CSD

@<TRIPOS>ATOM
      1 C1         0.5485   -0.8912    9.9837 C.2       1 RES1    0.0000
      2 N1        -0.6439   -1.5184    9.5991 N.3       1 RES1    0.0000
      3 O1        -1.8249   -1.0313    9.6091 O.2       1 RES1    0.0000
      4 C2        -0.3331   -2.9354    9.2328 C.3       1 RES1    0.0000
      5 C3         1.1529   -2.7953    8.9460 C.3       1 RES1    0.0000
      6 N2         1.5850   -1.5863    9.7168 N.2       1 RES1    0.0000
      7 C4        -1.2178   -3.3751    8.0891 C.3       1 RES1    0.0000
      8 C5        -0.6447   -3.7620   10.4843 C.3       1 RES1    0.0000
      9 C6         1.4541   -2.4742    7.4857 C.3       1 RES1    0.0000
     10 C7         1.9774   -4.0012    9.3803 C.3       1 RES1    0.0000
     11 C8         0.5531    0.4289   10.6401 C.ar      1 RES1    0.0000
     12 C9         1.6668    1.2188   10.5009 C.ar      1 RES1    0.0000
     13 C10        1.7352    2.4688   11.1108 C.ar      1 RES1    0.0000
     14 C11        0.6533    2.9171   11.8617 C.ar      1 RES1    0.0000
     15 C12       -0.4539    2.1154   12.0176 C.ar      1 RES1    0.0000
     16 C13       -0.5061    0.8686   11.4042 C.ar      1 RES1    0.0000
     17 C14        2.9156    3.3158   10.9733 C.1       1 RES1    0.0000
     18 C15        3.8225    3.9990   10.8771 C.1       1 RES1    0.0000
     19 C16       -1.6067    2.5162   12.8745 C.2       1 RES1    0.0000
     20 N3        -2.0317    3.7965   12.9640 N.3       1 RES1    0.0000
     21 O2        -1.6820    4.6876   12.2811 O.2       1 RES1    0.0000
     22 C17       -3.2069    3.8546   13.8558 C.3       1 RES1    0.0000
     23 C18       -3.2960    2.5173   14.3498 C.3       1 RES1    0.0000
     24 N4        -2.2781    1.6800   13.6370 N.2       1 RES1    0.0000
     25 C19       -2.4326    4.9581   14.9979 C.3       1 RES1    0.0000
     26 C20       -4.2150    4.8784   13.0552 C.3       1 RES1    0.0000
     27 C21       -2.7939    2.4031   15.7687 C.3       1 RES1    0.0000
     28 C22       -4.5972    1.5841   14.5537 C.3       1 RES1    0.0000
     29 C23       -3.6186    5.1381   14.4061 Du        2 SUP2    0.0000
     30 C24       -4.6258    3.4484   12.7701 Du        2 SUP2    0.0000
     31 C25       -4.1438    1.9117   15.2979 Du        2 SUP2    0.0000
     32 C26       -2.2111    3.0303   15.8947 Du        2 SUP2    0.0000
     33 H1        -1.0168   -4.2749    7.8603 H         1 RES1    0.0000
     34 H2        -2.1286   -3.3115    8.3510 H         1 RES1    0.0000
     35 H3        -1.0652   -2.8158    7.3365 H         1 RES1    0.0000
     36 H4        -0.4648   -4.6790   10.3102 H         1 RES1    0.0000
     37 H5        -0.1020   -3.4635   11.2037 H         1 RES1    0.0000
     38 H6        -1.5612   -3.6574   10.7130 H         1 RES1    0.0000
     39 H7         1.1994   -3.2102    6.9403 H         1 RES1    0.0000
     40 H8         0.9652   -1.7026    7.2238 H         1 RES1    0.0000
     41 H9         2.3837   -2.3104    7.3829 H         1 RES1    0.0000
     42 H10        1.7016   -4.7663    8.8897 H         1 RES1    0.0000
     43 H11        2.8978   -3.8320    9.2112 H         1 RES1    0.0000
     44 H12        1.8488   -4.1553   10.3086 H         1 RES1    0.0000
     45 H13        2.4004    0.9095    9.9820 H         1 RES1    0.0000
     46 H14        0.6781    3.7760   12.2662 H         1 RES1    0.0000
     47 H15       -1.2747    0.3190   11.5120 H         1 RES1    0.0000
     48 H16        4.5782    4.5691   10.7959 H         1 RES1    0.0000
@<TRIPOS>BOND
     1    1    2 1
     2    2    3 1
     3    4    2 1
     4    5    4 1
     5    6    1 2
     6    7    4 1
     7    8    4 1
     8    9    5 1
     9   10    5 1
    10   11    1 1
    11   12   11 ar
    12   13   12 ar
    13   14   13 ar
    14   15   14 ar
    15   16   11 ar
    16   17   13 1
    17   18   17 3
    18   19   15 1
    19   20   19 1
    20   21   20 1
    21   22   20 1
    22   23   22 1
    23   24   19 2
    24   25   22 1
    25   26   22 1
    26   27   23 1
    27   28   23 1
    28   33    7 1
    29   34    7 1
    30   35    7 1
    31   36    8 1
    32   37    8 1
    33   38    8 1
    34   39    9 1
    35   40    9 1
    36   41    9 1
    37   42   10 1
    38   43   10 1
    39   44   10 1
    40   45   12 1
    41   46   14 1
    42   47   16 1
    43   48   18 1
    44    5    6 1
    45   15   16 ar
    46   23   24 1
@<TRIPOS>SUBSTRUCTURE
     1 RES1 1
     2 SUP2 29

@<TRIPOS>CRYSIN
  12.1503   10.7762   16.6926  90.0000  96.7780  90.0000 231 1

