# MOL2 file generated by ConQuest
# Please check atom types

@<TRIPOS>MOLECULE
XEZXEF
    58    60     1
SMALL
USER_CHARGES
****
Generated from CSD

@<TRIPOS>ATOM
      1 C1         6.2181    2.6479    3.6778 C.2       1 RES1    0.0000
      2 N1         6.7709    3.8666    3.7691 N.3       1 RES1    0.0000
      3 O1         6.4376    4.7815    4.5937 O.2       1 RES1    0.0000
      4 C2         7.9661    4.0080    2.8644 C.3       1 RES1    0.0000
      5 C3         7.8334    2.7892    1.9694 C.3       1 RES1    0.0000
      6 N2         6.8873    1.9456    2.7459 N.pl3     1 RES1    1.0000
      7 O2         6.6724    0.7446    2.4193 O.2       1 RES1   -1.0000
      8 C4         8.1161    5.3102    2.3361 C.3       1 RES1    0.0000
      9 C5         9.2175    3.7130    3.8443 C.3       1 RES1    0.0000
     10 C6         8.9838    2.0580    1.4762 C.3       1 RES1    0.0000
     11 C7         7.0067    3.1777    0.6709 C.3       1 RES1    0.0000
     12 C8         5.0570    2.1804    4.4399 C.ar      1 RES1    0.0000
     13 C9         3.9839    3.0519    4.6193 C.ar      1 RES1    0.0000
     14 C10        2.8518    2.6278    5.2966 C.ar      1 RES1    0.0000
     15 C11        2.8025    1.3390    5.8169 C.ar      1 RES1    0.0000
     16 C12        3.8788    0.4730    5.6616 C.ar      1 RES1    0.0000
     17 C13        5.0153    0.9027    4.9507 C.ar      1 RES1    0.0000
     18 C14        1.7246    3.5016    5.4551 C.1       1 RES1    0.0000
     19 C15        0.7893    4.2139    5.5655 C.1       1 RES1    0.0000
     20 C16        3.8266   -0.8715    6.2412 C.2       1 RES1    0.0000
     21 N3         2.6973   -1.5605    6.5198 N.pl3     1 RES1    1.0000
     22 O3         1.4942   -1.1787    6.3117 O.2       1 RES1   -1.0000
     23 C17        2.9913   -2.8048    7.3028 C.3       1 RES1    0.0000
     24 C18        4.4785   -3.0241    6.9505 C.3       1 RES1    0.0000
     25 N4         4.8784   -1.6217    6.5903 N.3       1 RES1    0.0000
     26 O4         6.1106   -1.2655    6.5615 O.2       1 RES1    0.0000
     27 C19        2.7440   -2.4431    8.7582 C.3       1 RES1    0.0000
     28 C20        2.0521   -3.9278    6.8753 C.3       1 RES1    0.0000
     29 C21        5.3324   -3.5316    8.0921 C.3       1 RES1    0.0000
     30 C22        4.7098   -3.8566    5.6904 C.3       1 RES1    0.0000
     31 H1         8.8833    5.3380    1.7757 H         1 RES1    0.0000
     32 H2         7.3453    5.5362    1.8285 H         1 RES1    0.0000
     33 H3         8.2205    5.9302    3.0470 H         1 RES1    0.0000
     34 H4        10.0270    3.7809    3.3544 H         1 RES1    0.0000
     35 H5         9.2214    4.3475    4.5520 H         1 RES1    0.0000
     36 H6         9.1379    2.8371    4.2046 H         1 RES1    0.0000
     37 H7         9.5492    2.6479    0.9911 H         1 RES1    0.0000
     38 H8         9.4635    1.6918    2.2096 H         1 RES1    0.0000
     39 H9         8.6931    1.3568    0.9046 H         1 RES1    0.0000
     40 H10        7.5410    3.7253    0.1073 H         1 RES1    0.0000
     41 H11        6.7614    2.3874    0.2033 H         1 RES1    0.0000
     42 H12        6.2238    3.6518    0.9239 H         1 RES1    0.0000
     43 H13        4.0283    3.9368    4.2766 H         1 RES1    0.0000
     44 H14        2.0267    1.0474    6.2813 H         1 RES1    0.0000
     45 H15        5.7498    0.3139    4.8242 H         1 RES1    0.0000
     46 H16        0.0370    4.7871    5.6552 H         1 RES1    0.0000
     47 H17        2.9168   -3.1999    9.3058 H         1 RES1    0.0000
     48 H18        3.3208   -1.7319    9.0096 H         1 RES1    0.0000
     49 H19        1.8404   -2.1715    8.8671 H         1 RES1    0.0000
     50 H20        1.1630   -3.7108    7.1299 H         1 RES1    0.0000
     51 H21        2.0947   -4.0358    5.9322 H         1 RES1    0.0000
     52 H22        2.3134   -4.7381    7.2980 H         1 RES1    0.0000
     53 H23        5.0722   -4.4187    8.3131 H         1 RES1    0.0000
     54 H24        6.2461   -3.5249    7.8328 H         1 RES1    0.0000
     55 H25        5.2137   -2.9707    8.8495 H         1 RES1    0.0000
     56 H26        4.4715   -4.7604    5.8602 H         1 RES1    0.0000
     57 H27        4.1747   -3.5160    4.9843 H         1 RES1    0.0000
     58 H28        5.6265   -3.8110    5.4455 H         1 RES1    0.0000
@<TRIPOS>BOND
     1    1    2 1
     2    2    3 1
     3    4    2 1
     4    5    4 1
     5    6    1 2
     6    7    6 1
     7    8    4 1
     8    9    4 1
     9   10    5 1
    10   11    5 1
    11   12    1 1
    12   13   12 ar
    13   14   13 ar
    14   15   14 ar
    15   16   15 ar
    16   17   12 ar
    17   18   14 1
    18   19   18 3
    19   20   16 1
    20   21   20 2
    21   22   21 1
    22   23   21 1
    23   24   23 1
    24   25   20 1
    25   26   25 1
    26   27   23 1
    27   28   23 1
    28   29   24 1
    29   30   24 1
    30   31    8 1
    31   32    8 1
    32   33    8 1
    33   34    9 1
    34   35    9 1
    35   36    9 1
    36   37   10 1
    37   38   10 1
    38   39   10 1
    39   40   11 1
    40   41   11 1
    41   42   11 1
    42   43   13 1
    43   44   15 1
    44   45   17 1
    45   46   19 1
    46   47   27 1
    47   48   27 1
    48   49   27 1
    49   50   28 1
    50   51   28 1
    51   52   28 1
    52   53   29 1
    53   54   29 1
    54   55   29 1
    55   56   30 1
    56   57   30 1
    57   58   30 1
    58    5    6 1
    59   16   17 ar
    60   24   25 1
@<TRIPOS>SUBSTRUCTURE
     1 RES1 1

@<TRIPOS>CRYSIN
  12.6111   11.1302   16.1534  90.0000  97.6040  90.0000 231 1

