# MOL2 file generated by ConQuest
# Please check atom types

@<TRIPOS>MOLECULE
XIBDET
    46    50     1
SMALL
NO_CHARGES
****
Generated from CSD

@<TRIPOS>ATOM
      1 C1         1.6927    4.9567    6.2354 C.3       1 RES1    0.0000
      2 N1         6.6175    3.1518    5.6998 N.am      1 RES1    0.0000
      3 O1         6.6379    5.9632    9.6058 O.3       1 RES1    0.0000
      4 O2         2.5428    5.6327    7.1510 O.3       1 RES1    0.0000
      5 O3         4.3644    2.9918    5.3564 O.2       1 RES1    0.0000
      6 C2         3.0476    6.1313    9.3929 C.ar      1 RES1    0.0000
      7 O4         0.7967    6.9382   12.2236 O.3       1 RES1    0.0000
      8 C3         4.4801    5.9013    9.1373 C.2       1 RES1    0.0000
      9 C4         2.0776    5.8928    8.4101 C.ar      1 RES1    0.0000
     10 C5         0.7276    5.9614    8.7412 C.ar      1 RES1    0.0000
     11 C6         2.6257    6.5048   10.6765 C.ar      1 RES1    0.0000
     12 C7         0.3286    6.3075   10.0201 C.ar      1 RES1    0.0000
     13 O5         8.7373    3.0985    6.5639 O.2       1 RES1    0.0000
     14 C8         5.3147    2.8838    6.0876 C.2       1 RES1    0.0000
     15 C9         5.0583    4.8899    8.1809 C.3       1 RES1    0.0000
     16 C10        1.2839    6.6036   10.9855 C.ar      1 RES1    0.0000
     17 C11        4.6354    3.4459    8.5167 C.3       1 RES1    0.0000
     18 C12        7.5446    2.9480    6.7086 C.2       1 RES1    0.0000
     19 N2         5.3519    6.4661    9.8921 N.2       1 RES1    0.0000
     20 C13        5.3322    2.4727    7.5326 C.3       1 RES1    0.0000
     21 C14        5.4660    3.1814    9.7816 C.3       1 RES1    0.0000
     22 C15        6.5367    4.9312    8.5784 C.3       1 RES1    0.0000
     23 C16        6.8079    3.5331    9.1384 C.3       1 RES1    0.0000
     24 C17        6.8069    2.5371    7.9502 C.3       1 RES1    0.0000
     25 C18        6.9718    3.5848    4.3576 C.3       1 RES1    0.0000
     26 C19        1.6926    7.5165   13.1551 C.3       1 RES1    0.0000
     27 H1         7.2499    2.9245    3.8346 H         1 RES1    0.0000
     28 H2         7.6274    4.1497    4.4045 H         1 RES1    0.0000
     29 H3         6.2946    4.0443    4.0135 H         1 RES1    0.0000
     30 H4         4.8967    5.1140    7.2384 H         1 RES1    0.0000
     31 H5         7.1621    5.1377    7.8667 H         1 RES1    0.0000
     32 H6         4.9574    1.6441    7.5870 H         1 RES1    0.0000
     33 H7         5.2511    3.7452   10.5295 H         1 RES1    0.0000
     34 H8         3.6478    3.3395    8.5811 H         1 RES1    0.0000
     35 H9         7.1488    1.7626    8.2457 H         1 RES1    0.0000
     36 H10        7.5702    3.4778    9.7038 H         1 RES1    0.0000
     37 H11        0.0945    5.7133    8.0655 H         1 RES1    0.0000
     38 H12        5.4496    2.2922   10.0749 H         1 RES1    0.0000
     39 H13        3.2996    6.6579   11.3526 H         1 RES1    0.0000
     40 H14       -0.6312    6.3272   10.2803 H         1 RES1    0.0000
     41 H15        0.9866    5.4802    5.9567 H         1 RES1    0.0000
     42 H16        1.2439    4.1615    6.7122 H         1 RES1    0.0000
     43 H17        2.2973    4.6160    5.4265 H         1 RES1    0.0000
     44 H18        1.1719    7.8514   13.8922 H         1 RES1    0.0000
     45 H19        2.3359    6.9332   13.3753 H         1 RES1    0.0000
     46 H20        2.1699    8.3586   12.7006 H         1 RES1    0.0000
@<TRIPOS>BOND
     1    1    4 1
     2    2   14 1
     3    3   19 1
     4    4    9 1
     5    5   14 2
     6    6    8 1
     7    7   16 1
     8    8   15 1
     9    9    6 ar
    10   10    9 ar
    11   11    6 ar
    12   12   10 ar
    13   13   18 2
    14   14   20 1
    15   15   17 1
    16   16   11 ar
    17   17   20 1
    18   18    2 1
    19   19    8 2
    20   20   24 1
    21   21   17 1
    22   22    3 1
    23   23   21 1
    24   24   18 1
    25   25    2 1
    26   26    7 1
    27   27   25 1
    28   28   25 1
    29   29   25 1
    30   30   15 1
    31   31   22 1
    32   32   20 1
    33   33   21 1
    34   34   17 1
    35   35   24 1
    36   36   23 1
    37   37   10 1
    38   38   21 1
    39   39   11 1
    40   40   12 1
    41   41    1 1
    42   42    1 1
    43   43    1 1
    44   44   26 1
    45   45   26 1
    46   46   26 1
    47   12   16 ar
    48   15   22 1
    49   22   23 1
    50   23   24 1
@<TRIPOS>SUBSTRUCTURE
     1 RES1 1

@<TRIPOS>CRYSIN
   9.7183   13.1735   13.2880  90.0000  94.0580  90.0000 231 1

