# MOL2 file generated by ConQuest
# Please check atom types

@<TRIPOS>MOLECULE
XIBTOU
    30    28     2
SMALL
NO_CHARGES
****
Generated from CSD

@<TRIPOS>ATOM
      1 O1         8.9204    2.2807   10.8331 O.2       1 RES1    0.0000
      2 O2         7.2275    3.5794   10.6943 O.2       1 RES1    0.0000
      3 O3         7.5248   -0.0438    7.9707 O.2       1 RES1    0.0000
      4 O4         9.2763    0.7896    8.8910 O.2       1 RES1    0.0000
      5 O5         3.9430    1.2724    7.8300 O.3       1 RES1    0.0000
      6 N1         7.8380    2.5720   10.3326 N.pl3     1 RES1    0.0000
      7 N2         8.0393    0.7911    8.7316 N.pl3     1 RES1    0.0000
      8 N3         5.1001    2.8127    9.5253 N.3       1 RES1    0.0000
      9 N4         5.2467    0.9694    8.2328 N.3       1 RES1    0.0000
     10 C1         7.2395    1.7283    9.3624 C.2       1 RES1    0.0000
     11 C2         5.8265    1.8526    9.0299 C.2       1 RES1    0.0000
     12 H1         4.3323    2.8156    9.3247 H         1 RES1    0.0000
     13 H2         5.3720    3.3953   10.0960 H         1 RES1    0.0000
     14 H3         5.8119    0.4433    7.7135 H         1 RES1    0.0000
     15 H4         3.5191    0.6333    8.2448 H         1 RES1    0.0000
     16 O6         0.4119    5.5961    3.9879 O.2       2 RES2    0.0000
     17 O7         2.1195    5.1870    2.7367 O.2       2 RES2    0.0000
     18 O8         1.6209    2.4814    6.2470 O.2       2 RES2    0.0000
     19 O9        -0.0760    3.3320    5.2169 O.2       2 RES2    0.0000
     20 O10        5.2840    3.6593    6.2976 O.3       2 RES2    0.0000
     21 N5         1.4596    5.0140    3.7727 N.pl3     2 RES2    0.0000
     22 N6         1.1717    3.3076    5.4268 N.pl3     2 RES2    0.0000
     23 N7         4.2056    5.0569    4.3898 N.3       2 RES2    0.0000
     24 N8         3.9737    3.3802    5.9051 N.3       2 RES2    0.0000
     25 C3         2.0275    4.1187    4.7395 C.2       2 RES2    0.0000
     26 C4         3.4405    4.1805    4.9949 C.2       2 RES2    0.0000
     27 H5         5.0121    5.0856    4.6109 H         2 RES2    0.0000
     28 H6         3.9190    5.4364    3.6339 H         2 RES2    0.0000
     29 H7         3.5191    2.7669    6.3765 H         2 RES2    0.0000
     30 H8         5.7586    3.1128    5.9651 H         2 RES2    0.0000
@<TRIPOS>BOND
     1    1    6 2
     2    2    6 2
     3    3    7 2
     4    4    7 2
     5    5    9 1
     6    6   10 1
     7    7   10 1
     8    8   11 1
     9    9   11 1
    10   10   11 2
    11   12    8 1
    12   13    8 1
    13   14    9 1
    14   15    5 1
    15   16   21 2
    16   17   21 2
    17   18   22 2
    18   19   22 2
    19   20   24 1
    20   21   25 1
    21   22   25 1
    22   23   26 1
    23   24   26 1
    24   25   26 2
    25   27   23 1
    26   28   23 1
    27   29   24 1
    28   30   20 1
@<TRIPOS>SUBSTRUCTURE
     1 RES1 1
     2 RES2 16

@<TRIPOS>CRYSIN
  13.3300    4.8713   17.1410  90.0000  90.0000  90.0000  29 1

