# MOL2 file generated by ConQuest
# Please check atom types

@<TRIPOS>MOLECULE
XICGIB
   116   128     2
SMALL
NO_CHARGES
****
Generated from CSD

@<TRIPOS>ATOM
      1 O1         7.2454    3.3573    0.3342 O.3       1 RES1    0.0000
      2 C1         6.0209    3.2275    0.9552 C.ar      1 RES1    0.0000
      3 C2         4.8635    3.3924    0.1859 C.ar      1 RES1    0.0000
      4 H1         4.9524    3.6065   -0.7347 H         1 RES1    0.0000
      5 C3         3.5871    3.2542    0.7224 C.ar      1 RES1    0.0000
      6 C4         3.5709    2.8477    2.0637 C.ar      1 RES1    0.0000
      7 O2         2.4196    2.5097    2.7895 O.3       1 RES1    0.0000
      8 C5         2.8592    2.0778    4.0188 C.ar      1 RES1    0.0000
      9 C6         2.0550    1.5958    5.0270 C.ar      1 RES1    0.0000
     10 H2         1.1081    1.5860    4.9411 H         1 RES1    0.0000
     11 C7         2.6795    1.1242    6.1725 C.ar      1 RES1    0.0000
     12 H3         2.1666    0.7965    6.9014 H         1 RES1    0.0000
     13 C8         4.0750    1.1374    6.2377 C.ar      1 RES1    0.0000
     14 C9         4.8846    1.6405    5.2447 C.ar      1 RES1    0.0000
     15 H4         5.8304    1.6420    5.3303 H         1 RES1    0.0000
     16 C10        4.2591    2.1468    4.1094 C.ar      1 RES1    0.0000
     17 C11        4.7042    2.6968    2.8521 C.ar      1 RES1    0.0000
     18 C12        5.9705    3.0100    2.3239 C.ar      1 RES1    0.0000
     19 C13        7.2033    3.1992    3.0944 C.ar      1 RES1    0.0000
     20 C14        7.2800    3.7972    4.3652 C.ar      1 RES1    0.0000
     21 C15        6.3684    4.5241    5.2381 C.ar      1 RES1    0.0000
     22 C16        5.0294    4.9297    5.1851 C.ar      1 RES1    0.0000
     23 H5         4.4618    4.6681    4.4694 H         1 RES1    0.0000
     24 C17        4.5683    5.7259    6.2137 C.ar      1 RES1    0.0000
     25 C18        5.3538    6.1548    7.2789 C.ar      1 RES1    0.0000
     26 H6         4.9846    6.7110    7.9551 H         1 RES1    0.0000
     27 C19        6.6831    5.7615    7.3429 C.ar      1 RES1    0.0000
     28 H7         7.2468    6.0287    8.0586 H         1 RES1    0.0000
     29 C20        7.1480    4.9634    6.3176 C.ar      1 RES1    0.0000
     30 O3         8.4585    4.5744    6.1839 O.3       1 RES1    0.0000
     31 C21        8.5319    3.9186    4.9672 C.ar      1 RES1    0.0000
     32 C22        9.7232    3.5521    4.3684 C.ar      1 RES1    0.0000
     33 H8        10.5557    3.6245    4.8201 H         1 RES1    0.0000
     34 C23        9.6320    3.0711    3.0681 C.ar      1 RES1    0.0000
     35 H9        10.4268    2.8378    2.6020 H         1 RES1    0.0000
     36 C24        8.3975    2.9222    2.4288 C.ar      1 RES1    0.0000
     37 C25        8.2527    2.5324    0.9728 C.3       1 RES1    0.0000
     38 H10        9.1202    2.6481    0.5102 H         1 RES1    0.0000
     39 H11        7.9935    1.5798    0.9083 H         1 RES1    0.0000
     40 N1         4.7207    0.5469    7.4130 N.pl3     1 RES1    0.0000
     41 O4         4.0279    0.1851    8.3444 O.2       1 RES1    0.0000
     42 O5         5.9396    0.4480    7.4190 O.2       1 RES1    0.0000
     43 N2         3.1445    6.1046    6.2093 N.pl3     1 RES1    0.0000
     44 O6         2.4045    5.5458    5.3955 O.2       1 RES1    0.0000
     45 O7         2.7589    6.9337    7.0162 O.2       1 RES1    0.0000
     46 C26        2.3034    3.5425   -0.0700 C.3       1 RES1    0.0000
     47 C27        2.6029    4.0881   -1.4639 C.3       1 RES1    0.0000
     48 H12        3.1338    4.9089   -1.3869 H         1 RES1    0.0000
     49 H13        1.7608    4.2867   -1.9252 H         1 RES1    0.0000
     50 H14        3.1053    3.4201   -1.9761 H         1 RES1    0.0000
     51 C28        1.5111    4.6163    0.7010 C.3       1 RES1    0.0000
     52 H15        1.2674    4.2706    1.5851 H         1 RES1    0.0000
     53 H16        0.6984    4.8423    0.2034 H         1 RES1    0.0000
     54 H17        2.0644    5.4189    0.8048 H         1 RES1    0.0000
     55 C29        1.4687    2.2541   -0.2144 C.3       1 RES1    0.0000
     56 H18        1.9851    1.5842   -0.7101 H         1 RES1    0.0000
     57 H19        0.6414    2.4542   -0.6996 H         1 RES1    0.0000
     58 H20        1.2505    1.9049    0.6751 H         1 RES1    0.0000
     59 O8        13.4614    4.1060    8.4992 O.3       2 RES2    0.0000
     60 C30       13.9387    3.6271    9.6994 C.ar      2 RES2    0.0000
     61 C31       15.2787    3.2255    9.7708 C.ar      2 RES2    0.0000
     62 H21       15.8194    3.2887    8.9914 H         2 RES2    0.0000
     63 C32       15.8498    2.7329   10.9526 C.ar      2 RES2    0.0000
     64 C33       14.9549    2.6022   12.0170 C.ar      2 RES2    0.0000
     65 O9        15.2490    2.0423   13.2639 O.3       2 RES2    0.0000
     66 C34       14.0624    1.9853   13.9414 C.ar      2 RES2    0.0000
     67 C35       13.8917    1.4237   15.2016 C.ar      2 RES2    0.0000
     68 H22       14.6312    1.1384   15.7262 H         2 RES2    0.0000
     69 C36       12.5814    1.3024   15.6553 C.ar      2 RES2    0.0000
     70 H23       12.4056    0.9230   16.5082 H         2 RES2    0.0000
     71 C37       11.5312    1.7380   14.8558 C.ar      2 RES2    0.0000
     72 C38       11.7038    2.3613   13.6328 C.ar      2 RES2    0.0000
     73 H24       10.9654    2.6773   13.1259 H         2 RES2    0.0000
     74 C39       13.0094    2.5020   13.1829 C.ar      2 RES2    0.0000
     75 C40       13.6144    2.9771   11.9597 C.ar      2 RES2    0.0000
     76 C41       13.1103    3.6284   10.8123 C.ar      2 RES2    0.0000
     77 C42       11.8383    4.3322   10.7285 C.ar      2 RES2    0.0000
     78 C43       11.2526    5.0605   11.7726 C.ar      2 RES2    0.0000
     79 C44       11.6759    5.5262   13.0898 C.ar      2 RES2    0.0000
     80 C45       12.8557    5.4683   13.8329 C.ar      2 RES2    0.0000
     81 H25       13.6120    4.9817   13.5257 H         2 RES2    0.0000
     82 C46       12.8755    6.1448   15.0280 C.ar      2 RES2    0.0000
     83 C47       11.7995    6.8835   15.5296 C.ar      2 RES2    0.0000
     84 H26       11.8698    7.3284   16.3662 H         2 RES2    0.0000
     85 C48       10.6316    6.9594   14.7935 C.ar      2 RES2    0.0000
     86 H27        9.8795    7.4508   15.1037 H         2 RES2    0.0000
     87 C49       10.6097    6.2851   13.5821 C.ar      2 RES2    0.0000
     88 O10        9.5698    6.3454   12.6861 O.3       2 RES2    0.0000
     89 C50       10.0057    5.6539   11.5668 C.ar      2 RES2    0.0000
     90 C51        9.3406    5.6451   10.3554 C.ar      2 RES2    0.0000
     91 H28        8.4767    6.0261   10.2538 H         2 RES2    0.0000
     92 C52       10.0123    5.0444    9.2910 C.ar      2 RES2    0.0000
     93 H29        9.6194    5.0607    8.4268 H         2 RES2    0.0000
     94 C53       11.2431    4.4218    9.4634 C.ar      2 RES2    0.0000
     95 C54       12.0405    3.8281    8.3302 C.3       2 RES2    0.0000
     96 H30       11.8975    2.8493    8.3023 H         2 RES2    0.0000
     97 H31       11.7293    4.2100    7.4712 H         2 RES2    0.0000
     98 N3        10.1584    1.4760   15.2861 N.pl3     2 RES2    0.0000
     99 O11        9.9704    0.9234   16.3446 O.2       2 RES2    0.0000
    100 O12        9.2503    1.7994   14.5614 O.2       2 RES2    0.0000
    101 N4        14.1103    6.0713   15.8338 N.pl3     2 RES2    0.0000
    102 O13       14.9578    5.2561   15.4891 O.2       2 RES2    0.0000
    103 O14       14.2173    6.7855   16.8129 O.2       2 RES2    0.0000
    104 C55       17.3291    2.3390   11.0627 C.3       2 RES2    0.0000
    105 C56       17.4306    0.8361   11.3900 C.3       2 RES2    0.0000
    106 H32       18.3731    0.5675   11.4006 H         2 RES2    0.0000
    107 H33       16.9511    0.3208   10.7080 H         2 RES2    0.0000
    108 H34       17.0329    0.6655   12.2685 H         2 RES2    0.0000
    109 C57       17.9605    3.1794   12.1929 C.3       2 RES2    0.0000
    110 H35       17.8344    4.1321   12.0020 H         2 RES2    0.0000
    111 H36       18.9191    2.9813   12.2492 H         2 RES2    0.0000
    112 H37       17.5304    2.9569   13.0452 H         2 RES2    0.0000
    113 C58       18.0799    2.6073    9.7673 C.3       2 RES2    0.0000
    114 H38       18.0055    3.5570    9.5367 H         2 RES2    0.0000
    115 H39       17.6929    2.0662    9.0475 H         2 RES2    0.0000
    116 H40       19.0240    2.3723    9.8821 H         2 RES2    0.0000
@<TRIPOS>BOND
     1    1    2 1
     2    2    3 ar
     3    3    4 1
     4    5    3 ar
     5    6    5 ar
     6    7    6 1
     7    8    7 1
     8    9    8 ar
     9   10    9 1
    10   11    9 ar
    11   12   11 1
    12   13   11 ar
    13   14   13 ar
    14   15   14 1
    15   16    8 ar
    16   17    6 ar
    17   18    2 ar
    18   19   18 1
    19   20   19 ar
    20   21   20 1
    21   22   21 ar
    22   23   22 1
    23   24   22 ar
    24   25   24 ar
    25   26   25 1
    26   27   25 ar
    27   28   27 1
    28   29   21 ar
    29   30   29 1
    30   31   20 ar
    31   32   31 ar
    32   33   32 1
    33   34   32 ar
    34   35   34 1
    35   36   19 ar
    36   37    1 1
    37   38   37 1
    38   39   37 1
    39   40   13 1
    40   41   40 2
    41   42   40 2
    42   43   24 1
    43   44   43 2
    44   45   43 2
    45   46    5 1
    46   47   46 1
    47   48   47 1
    48   49   47 1
    49   50   47 1
    50   51   46 1
    51   52   51 1
    52   53   51 1
    53   54   51 1
    54   55   46 1
    55   56   55 1
    56   57   55 1
    57   58   55 1
    58   59   60 1
    59   60   61 ar
    60   61   62 1
    61   63   61 ar
    62   64   63 ar
    63   65   64 1
    64   66   65 1
    65   67   66 ar
    66   68   67 1
    67   69   67 ar
    68   70   69 1
    69   71   69 ar
    70   72   71 ar
    71   73   72 1
    72   74   66 ar
    73   75   64 ar
    74   76   60 ar
    75   77   76 1
    76   78   77 ar
    77   79   78 1
    78   80   79 ar
    79   81   80 1
    80   82   80 ar
    81   83   82 ar
    82   84   83 1
    83   85   83 ar
    84   86   85 1
    85   87   79 ar
    86   88   87 1
    87   89   78 ar
    88   90   89 ar
    89   91   90 1
    90   92   90 ar
    91   93   92 1
    92   94   77 ar
    93   95   59 1
    94   96   95 1
    95   97   95 1
    96   98   71 1
    97   99   98 2
    98  100   98 2
    99  101   82 1
   100  102  101 2
   101  103  101 2
   102  104   63 1
   103  105  104 1
   104  106  105 1
   105  107  105 1
   106  108  105 1
   107  109  104 1
   108  110  109 1
   109  111  109 1
   110  112  109 1
   111  113  104 1
   112  114  113 1
   113  115  113 1
   114  116  113 1
   115   14   16 ar
   116   16   17 1
   117   17   18 ar
   118   27   29 ar
   119   30   31 1
   120   34   36 ar
   121   36   37 1
   122   72   74 ar
   123   74   75 1
   124   75   76 ar
   125   85   87 ar
   126   88   89 1
   127   92   94 ar
   128   94   95 1
@<TRIPOS>SUBSTRUCTURE
     1 RES1 1
     2 RES2 59

@<TRIPOS>CRYSIN
  10.6771   13.0878   18.3378  83.6670  73.1440  75.8980   2 1

