# MOL2 file generated by ConQuest
# Please check atom types

@<TRIPOS>MOLECULE
XICLAX
    30    31     1
SMALL
NO_CHARGES
****
Generated from CSD

@<TRIPOS>ATOM
      1 O1         7.0579    6.7777   13.6621 O.2       1 RES1    0.0000
      2 O2         5.0282   10.8127    7.9929 O.2       1 RES1    0.0000
      3 O3         6.6563    9.9840    6.8403 O.2       1 RES1    0.0000
      4 N1         4.9354    6.9880   14.3695 N.am      1 RES1    0.0000
      5 H1         5.0907    7.5678   15.0413 H         1 RES1    0.0000
      6 H2         4.0498    6.8408   14.3108 H         1 RES1    0.0000
      7 N2         6.1505    5.5995   11.2946 N.pl3     1 RES1    0.0000
      8 N3         5.8607    9.9286    7.7869 N.pl3     1 RES1    0.0000
      9 C1         5.8740    6.5029   13.5613 C.2       1 RES1    0.0000
     10 C2         5.3701    5.5080   12.5181 C.3       1 RES1    0.0000
     11 H3         4.4192    5.6571   12.3309 H         1 RES1    0.0000
     12 C3         5.6088    4.0630   12.9800 C.3       1 RES1    0.0000
     13 H4         5.6495    4.0142   13.9483 H         1 RES1    0.0000
     14 H5         4.8994    3.4811   12.6668 H         1 RES1    0.0000
     15 C4         6.9158    3.6777   12.3753 C.3       1 RES1    0.0000
     16 H6         6.9310    2.7276   12.1816 H         1 RES1    0.0000
     17 H7         7.6432    3.8822   12.9832 H         1 RES1    0.0000
     18 C5         7.0569    4.4695   11.1104 C.3       1 RES1    0.0000
     19 H8         7.9699    4.7730   10.9908 H         1 RES1    0.0000
     20 H9         6.7984    3.9403   10.3403 H         1 RES1    0.0000
     21 C6         6.0757    6.6481   10.4390 C.ar      1 RES1    0.0000
     22 C7         6.9281    6.7418    9.3175 C.ar      1 RES1    0.0000
     23 H10        7.5560    6.0728    9.1620 H         1 RES1    0.0000
     24 C8         6.8467    7.8001    8.4571 C.ar      1 RES1    0.0000
     25 H11        7.4178    7.8489    7.7241 H         1 RES1    0.0000
     26 C9         5.9175    8.7937    8.6762 C.ar      1 RES1    0.0000
     27 C10        5.0614    8.7278    9.7547 C.ar      1 RES1    0.0000
     28 H12        4.4372    9.4034    9.8889 H         1 RES1    0.0000
     29 C11        5.1220    7.6774   10.6277 C.ar      1 RES1    0.0000
     30 H13        4.5348    7.6391   11.3481 H         1 RES1    0.0000
@<TRIPOS>BOND
     1    1    9 2
     2    2    8 2
     3    3    8 2
     4    4    5 1
     5    6    4 1
     6    7   10 1
     7    8   26 1
     8    9    4 1
     9   10    9 1
    10   11   10 1
    11   12   10 1
    12   13   12 1
    13   14   12 1
    14   15   12 1
    15   16   15 1
    16   17   15 1
    17   18    7 1
    18   19   18 1
    19   20   18 1
    20   21    7 1
    21   22   21 ar
    22   23   22 1
    23   24   22 ar
    24   25   24 1
    25   26   24 ar
    26   27   26 ar
    27   28   27 1
    28   29   21 ar
    29   30   29 1
    30   15   18 1
    31   27   29 ar
@<TRIPOS>SUBSTRUCTURE
     1 RES1 1

@<TRIPOS>CRYSIN
   9.4711   13.1959   17.7730  90.0000  90.0000  90.0000  61 1

