# MOL2 file generated by ConQuest
# Please check atom types

@<TRIPOS>MOLECULE
XICPII
    45    48     1
SMALL
NO_CHARGES
****
Generated from CSD

@<TRIPOS>ATOM
      1 O1        10.1788    5.2948    1.5475 O.2       1 RES1    0.0000
      2 C1         9.7523    6.2997    1.0266 C.2       1 RES1    0.0000
      3 O2         9.6839    6.3332   -0.3206 O.3       1 RES1    0.0000
      4 C2         9.2602    7.5554   -1.0075 C.3       1 RES1    0.0000
      5 C3         8.2848    8.3166   -0.1526 C.3       1 RES1    0.0000
      6 O3         8.9116    8.6221    1.0933 O.3       1 RES1    0.0000
      7 C4         9.3064    7.4777    1.8394 C.3       1 RES1    0.0000
      8 C5         8.6998    7.1244   -2.3393 C.ar      1 RES1    0.0000
      9 C6         9.2506    7.5925   -3.5128 C.ar      1 RES1    0.0000
     10 C7         8.7508    7.2145   -4.7493 C.ar      1 RES1    0.0000
     11 C8         7.7003    6.3544   -4.8160 C.ar      1 RES1    0.0000
     12 O4         7.1592    5.8935   -5.9857 O.3       1 RES1    0.0000
     13 C9         7.7119    6.3756   -7.2126 C.3       1 RES1    0.0000
     14 C10        7.1235    5.8688   -3.6578 C.ar      1 RES1    0.0000
     15 C11        7.6165    6.2538   -2.4366 C.ar      1 RES1    0.0000
     16 C12        7.8149    9.6199   -0.7403 C.ar      1 RES1    0.0000
     17 C13        8.6882   10.6319   -1.1143 C.ar      1 RES1    0.0000
     18 C14        8.2039   11.8364   -1.5666 C.ar      1 RES1    0.0000
     19 C15        6.8558   12.0695   -1.6562 C.ar      1 RES1    0.0000
     20 O5         6.4726   13.3023   -2.1218 O.3       1 RES1    0.0000
     21 C16        5.1024   13.6290   -1.9959 C.3       1 RES1    0.0000
     22 C17        5.9796   11.0752   -1.3147 C.ar      1 RES1    0.0000
     23 C18        6.4639    9.8725   -0.8777 C.ar      1 RES1    0.0000
     24 C19        8.2800    7.0573    2.8946 C.3       1 RES1    0.0000
     25 O6         8.1009    8.1841    3.7609 O.3       1 RES1    0.0000
     26 C20        8.3040    7.9510    5.1271 C.3       1 RES1    0.0000
     27 C21        6.9415    6.6317    2.3298 C.3       1 RES1    0.0000
     28 C22        6.0162    5.9412    3.3086 C.3       1 RES1    0.0000
     29 C23        6.5439    4.5689    3.7513 C.3       1 RES1    0.0000
     30 C24        4.6248    5.7893    2.6942 C.3       1 RES1    0.0000
     31 C25        3.8766    7.0838    2.5683 C.ar      1 RES1    0.0000
     32 C26        3.7476    7.7479    1.3490 C.ar      1 RES1    0.0000
     33 O7         4.3793    7.2587    0.2366 O.3       1 RES1    0.0000
     34 C27        3.6282    6.3067   -0.5305 C.3       1 RES1    0.0000
     35 C28        3.1063    8.9718    1.3490 C.ar      1 RES1    0.0000
     36 N1         2.9532    9.7648    0.1011 N.pl3     1 RES1    0.0000
     37 O8         2.8357    9.1802   -0.9483 O.2       1 RES1    0.0000
     38 O9         2.9494   10.9639    0.1851 O.2       1 RES1    0.0000
     39 C29        2.5555    9.5352    2.4767 C.ar      1 RES1    0.0000
     40 C30        2.6201    8.8641    3.6502 C.ar      1 RES1    0.0000
     41 O10        2.0962    9.3020    4.8332 O.3       1 RES1    0.0000
     42 C31        1.2479   10.4500    4.7893 C.3       1 RES1    0.0000
     43 C32        3.2845    7.6401    3.6960 C.ar      1 RES1    0.0000
     44 O11        3.4982    6.9955    4.9038 O.3       1 RES1    0.0000
     45 C33        2.3745    6.4851    5.5812 C.3       1 RES1    0.0000
@<TRIPOS>BOND
     1    1    2 2
     2    2    3 1
     3    3    4 1
     4    4    5 1
     5    5    6 1
     6    6    7 1
     7    7    2 1
     8    8    4 1
     9    9    8 ar
    10   10    9 ar
    11   11   10 ar
    12   12   11 1
    13   13   12 1
    14   14   11 ar
    15   15    8 ar
    16   16    5 1
    17   17   16 ar
    18   18   17 ar
    19   19   18 ar
    20   20   19 1
    21   21   20 1
    22   22   19 ar
    23   23   16 ar
    24   24    7 1
    25   25   24 1
    26   26   25 1
    27   27   24 1
    28   28   27 1
    29   29   28 1
    30   30   28 1
    31   31   30 1
    32   32   31 ar
    33   33   32 1
    34   34   33 1
    35   35   32 ar
    36   36   35 1
    37   37   36 2
    38   38   36 2
    39   39   35 ar
    40   40   39 ar
    41   41   40 1
    42   42   41 1
    43   43   31 ar
    44   44   43 1
    45   45   44 1
    46   14   15 ar
    47   22   23 ar
    48   40   43 ar
@<TRIPOS>SUBSTRUCTURE
     1 RES1 1

@<TRIPOS>CRYSIN
   9.6290   17.6610   19.0810  90.0000  90.0000  90.0000  19 1

