# MOL2 file generated by ConQuest
# Please check atom types

@<TRIPOS>MOLECULE
XICRIK
    55    61     1
SMALL
NO_CHARGES
****
Generated from CSD

@<TRIPOS>ATOM
      1 C1        14.7756    2.7407    2.9107 C.ar      1 RES1    0.0000
      2 C2        14.8710    1.4233    3.2901 C.ar      1 RES1    0.0000
      3 C3        14.2878    0.4684    2.4690 C.ar      1 RES1    0.0000
      4 C4        13.6521    0.8223    1.2911 C.ar      1 RES1    0.0000
      5 C5        13.5413    2.1643    0.9268 C.ar      1 RES1    0.0000
      6 N1        12.8355    2.5044   -0.2869 N.3       1 RES1    0.0000
      7 C6        11.3710    2.3525   -0.1510 C.3       1 RES1    0.0000
      8 C7        10.7823    3.4219    0.7475 C.ar      1 RES1    0.0000
      9 C8         9.4928    3.2636    1.2817 C.ar      1 RES1    0.0000
     10 C9         8.5914    2.1301    0.8154 C.3       1 RES1    0.0000
     11 N2         7.3834    1.9697    1.6498 N.3       1 RES1    0.0000
     12 C10        7.6469    1.2618    2.8691 C.ar      1 RES1    0.0000
     13 C11        7.7175   -0.1369    2.8219 C.ar      1 RES1    0.0000
     14 C12        7.9537   -0.8480    3.9771 C.ar      1 RES1    0.0000
     15 C13        8.1202   -0.1572    5.1663 C.ar      1 RES1    0.0000
     16 C14        8.0401    1.2180    5.2305 C.ar      1 RES1    0.0000
     17 C15        7.7973    1.9419    4.0829 C.ar      1 RES1    0.0000
     18 C16        7.6872    3.4518    4.1414 C.3       1 RES1    0.0000
     19 N3         7.6930    4.0859    2.7993 N.3       1 RES1    0.0000
     20 C17        9.0253    4.1736    2.2368 C.ar      1 RES1    0.0000
     21 C18        9.8324    5.2440    2.6143 C.ar      1 RES1    0.0000
     22 C19       11.0686    5.4419    2.0367 C.ar      1 RES1    0.0000
     23 C20       11.5480    4.5404    1.0854 C.ar      1 RES1    0.0000
     24 N4        12.8260    4.7971    0.4662 N.3       1 RES1    0.0000
     25 C21       13.9442    4.5960    1.4157 C.3       1 RES1    0.0000
     26 C22       14.1165    3.1374    1.7460 C.ar      1 RES1    0.0000
     27 C23       13.0838    3.9052   -0.6550 C.3       1 RES1    0.0000
     28 C24        6.8323    3.2936    1.9253 C.3       1 RES1    0.0000
     29 N5         8.3767   -0.9047    6.3970 N.pl3     1 RES1    0.0000
     30 O1         8.6761   -0.2780    7.4201 O.2       1 RES1    0.0000
     31 O2         8.3195   -2.1141    6.3517 O.2       1 RES1    0.0000
     32 C25       15.5331    1.0522    4.5944 C.3       1 RES1    0.0000
     33 H1        15.1821    3.3887    3.4052 H         1 RES1    0.0000
     34 H2        14.3723   -0.4309    2.6558 H         1 RES1    0.0000
     35 H3        13.2817    0.1465    0.7003 H         1 RES1    0.0000
     36 H4        10.9295    2.3173   -1.0703 H         1 RES1    0.0000
     37 H5        11.2235    1.4554    0.1982 H         1 RES1    0.0000
     38 H6         8.2682    2.2927   -0.1378 H         1 RES1    0.0000
     39 H7         9.0855    1.2992    0.8740 H         1 RES1    0.0000
     40 H8         7.5529   -0.6609    1.9895 H         1 RES1    0.0000
     41 H9         7.9886   -1.7655    3.9715 H         1 RES1    0.0000
     42 H10        8.2155    1.6767    6.0290 H         1 RES1    0.0000
     43 H11        6.8400    3.6604    4.6208 H         1 RES1    0.0000
     44 H12        8.3552    3.8443    4.7624 H         1 RES1    0.0000
     45 H13        9.4699    5.8696    3.2183 H         1 RES1    0.0000
     46 H14       11.5641    6.1722    2.2292 H         1 RES1    0.0000
     47 H15       13.7276    5.1008    2.2500 H         1 RES1    0.0000
     48 H16       14.7295    5.0056    1.0514 H         1 RES1    0.0000
     49 H17       14.0059    4.0175   -0.9306 H         1 RES1    0.0000
     50 H18       12.4941    4.1277   -1.3685 H         1 RES1    0.0000
     51 H19        5.9663    3.2059    2.3104 H         1 RES1    0.0000
     52 H20        6.7421    3.7266    1.1005 H         1 RES1    0.0000
     53 H21       15.2254    0.0086    4.8171 H         1 RES1    0.0000
     54 H22       15.8482    1.8970    5.1173 H         1 RES1    0.0000
     55 H23       16.3924    0.7378    4.4962 H         1 RES1    0.0000
@<TRIPOS>BOND
     1    1    2 ar
     2    2    3 ar
     3    3    4 ar
     4    4    5 ar
     5    5    6 1
     6    6    7 1
     7    7    8 1
     8    8    9 ar
     9    9   10 1
    10   10   11 1
    11   11   12 1
    12   12   13 ar
    13   13   14 ar
    14   14   15 ar
    15   15   16 ar
    16   16   17 ar
    17   17   12 ar
    18   18   17 1
    19   19   18 1
    20   20    9 ar
    21   21   20 ar
    22   22   21 ar
    23   23    8 ar
    24   24   23 1
    25   25   24 1
    26   26    1 ar
    27   27    6 1
    28   28   11 1
    29   29   15 1
    30   30   29 2
    31   31   29 2
    32   32    2 1
    33   33    1 1
    34   34    3 1
    35   35    4 1
    36   36    7 1
    37   37    7 1
    38   38   10 1
    39   39   10 1
    40   40   13 1
    41   41   14 1
    42   42   16 1
    43   43   18 1
    44   44   18 1
    45   45   21 1
    46   46   22 1
    47   47   25 1
    48   48   25 1
    49   49   27 1
    50   50   27 1
    51   51   28 1
    52   52   28 1
    53   53   32 1
    54   54   32 1
    55   55   32 1
    56    5   26 ar
    57   19   20 1
    58   19   28 1
    59   22   23 ar
    60   24   27 1
    61   25   26 1
@<TRIPOS>SUBSTRUCTURE
     1 RES1 1

@<TRIPOS>CRYSIN
  20.2730   10.6934   18.9360  90.0000  94.5670  90.0000  15 1

