# MOL2 file generated by ConQuest
# Please check atom types

@<TRIPOS>MOLECULE
XIDKIF
    38    40     1
SMALL
NO_CHARGES
****
Generated from CSD

@<TRIPOS>ATOM
      1 C1         5.5408    2.1634    8.5157 C.2       1 RES1    0.0000
      2 C2         4.5046    1.2577    8.5783 C.2       1 RES1    0.0000
      3 C3         4.7211    0.2933    7.5689 C.2       1 RES1    0.0000
      4 C4         5.8758    0.6102    6.8995 C.2       1 RES1    0.0000
      5 C5         6.6288    0.0417    5.8393 C.2       1 RES1    0.0000
      6 C6         7.7713    0.6192    5.4485 C.2       1 RES1    0.0000
      7 C7         8.2584    1.7980    6.0766 C.2       1 RES1    0.0000
      8 C8         7.5661    2.3574    7.0954 C.2       1 RES1    0.0000
      9 N1         6.3802    1.7809    7.4978 N.pl3     1 RES1    0.0000
     10 C9         3.3746    1.3095    9.5145 C.ar      1 RES1    0.0000
     11 C10        3.3108    2.2841   10.5121 C.ar      1 RES1    0.0000
     12 C11        2.2494    2.3552   11.3787 C.ar      1 RES1    0.0000
     13 C12        1.2336    1.4426   11.2606 C.ar      1 RES1    0.0000
     14 C13        1.2558    0.4512   10.2996 C.ar      1 RES1    0.0000
     15 C14        2.3335    0.3937    9.4390 C.ar      1 RES1    0.0000
     16 O1         7.8320    3.4613    7.8123 O.3       1 RES1    0.0000
     17 C15        9.2082    3.9557    7.8345 C.3       1 RES1    0.0000
     18 C16        9.1192    5.3916    8.2324 C.3       1 RES1    0.0000
     19 C17       10.0174    3.1301    8.7825 C.3       1 RES1    0.0000
     20 N2         0.1056    1.5137   12.1815 N.pl3     1 RES1    0.0000
     21 O2        -0.7935    0.6993   12.0811 O.2       1 RES1    0.0000
     22 O3         0.1304    2.3743   13.0540 O.2       1 RES1    0.0000
     23 H1         5.7032    2.9767    9.0281 H         1 RES1    0.0000
     24 H2         4.1635   -0.4376    7.3764 H         1 RES1    0.0000
     25 H3         6.2746   -0.7591    5.4461 H         1 RES1    0.0000
     26 H4         8.2928    0.2312    4.7649 H         1 RES1    0.0000
     27 H5         9.1031    2.1916    5.7732 H         1 RES1    0.0000
     28 H6         3.9956    2.8977   10.5889 H         1 RES1    0.0000
     29 H7         2.2040    3.0466   12.0634 H         1 RES1    0.0000
     30 H8         0.5099   -0.1534   10.2618 H         1 RES1    0.0000
     31 H9         2.3778   -0.2944    8.8180 H         1 RES1    0.0000
     32 H10        9.5480    3.8576    6.9349 H         1 RES1    0.0000
     33 H11       10.0049    5.7503    8.1851 H         1 RES1    0.0000
     34 H12        8.7017    5.5021    9.2300 H         1 RES1    0.0000
     35 H13        8.5558    5.8552    7.6137 H         1 RES1    0.0000
     36 H14       10.9288    3.4515    8.8274 H         1 RES1    0.0000
     37 H15        9.5780    3.2406    9.6515 H         1 RES1    0.0000
     38 H16       10.0828    2.1815    8.5488 H         1 RES1    0.0000
@<TRIPOS>BOND
     1    1    2 2
     2    2    3 1
     3    3    4 2
     4    4    5 1
     5    5    6 2
     6    6    7 1
     7    7    8 2
     8    8    9 1
     9    9    1 1
    10   10    2 1
    11   11   10 ar
    12   12   11 ar
    13   13   12 ar
    14   14   13 ar
    15   15   10 ar
    16   16    8 1
    17   17   16 1
    18   18   17 1
    19   19   17 1
    20   20   13 1
    21   21   20 2
    22   22   20 2
    23   23    1 1
    24   24    3 1
    25   25    5 1
    26   26    6 1
    27   27    7 1
    28   28   11 1
    29   29   12 1
    30   30   14 1
    31   31   15 1
    32   32   17 1
    33   33   18 1
    34   34   18 1
    35   35   18 1
    36   36   19 1
    37   37   19 1
    38   38   19 1
    39    4    9 1
    40   14   15 ar
@<TRIPOS>SUBSTRUCTURE
     1 RES1 1

@<TRIPOS>CRYSIN
  11.1579   11.2795   12.2594  90.0000 105.6300  90.0000  14 1

