# MOL2 file generated by ConQuest
# Please check atom types

@<TRIPOS>MOLECULE
XIDSUA
    50    52     1
SMALL
NO_CHARGES
****
Generated from CSD

@<TRIPOS>ATOM
      1 N1        -4.2596   10.3178    8.6436 N.3       1 RES1    0.0000
      2 N2        -6.2343    8.2188    7.8980 N.3       1 RES1    0.0000
      3 N3        -0.8732    7.1994    5.4952 N.pl3     1 RES1    0.0000
      4 N4        -1.6501    5.0462    7.3011 N.am      1 RES1    0.0000
      5 H1        -1.6530    4.5472    6.6073 H         1 RES1    0.0000
      6 O1        -1.3527    6.1942    4.9390 O.2       1 RES1    0.0000
      7 O2         0.2391    7.6402    5.1823 O.2       1 RES1    0.0000
      8 O3        -0.6125    5.4794    9.2743 O.2       1 RES1    0.0000
      9 C1        -3.5186    9.5336    7.8152 C.ar      1 RES1    0.0000
     10 C2        -2.4019   10.0906    7.1578 C.ar      1 RES1    0.0000
     11 H2        -2.2508   11.0279    7.1998 H         1 RES1    0.0000
     12 C3        -1.5254    9.2884    6.4538 C.ar      1 RES1    0.0000
     13 H3        -0.8152    9.6867    5.9639 H         1 RES1    0.0000
     14 C4        -1.6679    7.9091    6.4520 C.ar      1 RES1    0.0000
     15 C5        -2.7379    7.2724    7.1592 C.ar      1 RES1    0.0000
     16 C6        -2.7825    5.8935    7.4951 C.ar      1 RES1    0.0000
     17 C7        -3.9253    5.3642    8.0500 C.ar      1 RES1    0.0000
     18 H4        -3.9239    4.4614    8.3441 H         1 RES1    0.0000
     19 C8        -5.0842    6.1250    8.1892 C.ar      1 RES1    0.0000
     20 H5        -5.8892    5.7089    8.4724 H         1 RES1    0.0000
     21 C9        -5.0721    7.4948    7.9152 C.ar      1 RES1    0.0000
     22 C10       -3.8013    8.1206    7.6273 C.ar      1 RES1    0.0000
     23 C11       -4.0563   11.7679    8.6469 C.3       1 RES1    0.0000
     24 H6        -4.0630   12.1004    7.7251 H         1 RES1    0.0000
     25 H7        -3.1941   11.9759    9.0629 H         1 RES1    0.0000
     26 H8        -4.7761   12.1971    9.1545 H         1 RES1    0.0000
     27 C12       -4.9608    9.8220    9.8255 C.3       1 RES1    0.0000
     28 H9        -4.7120    8.8878    9.9853 H         1 RES1    0.0000
     29 H10       -5.9284    9.8826    9.6809 H         1 RES1    0.0000
     30 H11       -4.7130   10.3633   10.6042 H         1 RES1    0.0000
     31 C13       -7.4576    7.6255    8.4075 C.3       1 RES1    0.0000
     32 H12       -7.2812    7.2089    9.2767 H         1 RES1    0.0000
     33 H13       -7.7774    6.9451    7.7781 H         1 RES1    0.0000
     34 H14       -8.1401    8.3211    8.5111 H         1 RES1    0.0000
     35 C14       -6.4398    9.3032    6.9510 C.3       1 RES1    0.0000
     36 H15       -5.6501    9.3904    6.3782 H         1 RES1    0.0000
     37 H16       -6.5826   10.1404    7.4391 H         1 RES1    0.0000
     38 H17       -7.2251    9.1089    6.3976 H         1 RES1    0.0000
     39 C15       -0.6289    4.9302    8.1772 C.2       1 RES1    0.0000
     40 C16        0.5301    4.0938    7.7002 C.ar      1 RES1    0.0000
     41 C17        1.3330    3.4759    8.6558 C.ar      1 RES1    0.0000
     42 H18        1.1042    3.5372    9.5760 H         1 RES1    0.0000
     43 C18        2.4691    2.7686    8.2714 C.ar      1 RES1    0.0000
     44 H19        3.0117    2.3479    8.9285 H         1 RES1    0.0000
     45 C19        2.8087    2.6782    6.9282 C.ar      1 RES1    0.0000
     46 H20        3.5904    2.2057    6.6663 H         1 RES1    0.0000
     47 C20        2.0057    3.2778    5.9690 C.ar      1 RES1    0.0000
     48 H21        2.2306    3.2030    5.0486 H         1 RES1    0.0000
     49 C21        0.8709    3.9885    6.3515 C.ar      1 RES1    0.0000
     50 H22        0.3275    4.4026    5.6920 H         1 RES1    0.0000
@<TRIPOS>BOND
     1    1    9 1
     2    2   21 1
     3    3    6 2
     4    4    5 1
     5    7    3 2
     6    8   39 2
     7    9   10 ar
     8   10   11 1
     9   12   10 ar
    10   13   12 1
    11   14    3 1
    12   15   14 ar
    13   16    4 1
    14   17   16 ar
    15   18   17 1
    16   19   17 ar
    17   20   19 1
    18   21   19 ar
    19   22    9 ar
    20   23    1 1
    21   24   23 1
    22   25   23 1
    23   26   23 1
    24   27    1 1
    25   28   27 1
    26   29   27 1
    27   30   27 1
    28   31    2 1
    29   32   31 1
    30   33   31 1
    31   34   31 1
    32   35    2 1
    33   36   35 1
    34   37   35 1
    35   38   35 1
    36   39    4 1
    37   40   39 1
    38   41   40 ar
    39   42   41 1
    40   43   41 ar
    41   44   43 1
    42   45   43 ar
    43   46   45 1
    44   47   45 ar
    45   48   47 1
    46   49   40 ar
    47   50   49 1
    48   12   14 ar
    49   15   16 ar
    50   15   22 ar
    51   21   22 ar
    52   47   49 ar
@<TRIPOS>SUBSTRUCTURE
     1 RES1 1

@<TRIPOS>CRYSIN
   9.0881   10.1372   10.3417  93.1450  98.9410  99.6430   2 1

