# MOL2 file generated by ConQuest
# Please check atom types

@<TRIPOS>MOLECULE
XIDXEQ
    34    34     2
SMALL
USER_CHARGES
****
Generated from CSD

@<TRIPOS>ATOM
      1 N1         5.7187    5.6873    5.8966 N.pl3     1 RES1    0.0000
      2 C1         6.1946    7.0181    6.2483 C.3       1 RES1    0.0000
      3 H1         6.5805    6.9983    7.1271 H         1 RES1    0.0000
      4 H2         5.4584    7.6348    6.2359 H         1 RES1    0.0000
      5 H3         6.8574    7.2994    5.6132 H         1 RES1    0.0000
      6 O1         5.2702    7.1780    3.6103 O.2       1 RES1    0.0000
      7 C2         5.7603    4.6270    6.6937 C.2       1 RES1    0.0000
      8 O2         4.5565    5.4286    2.5814 O.2       1 RES1    0.0000
      9 N2         5.0070    5.9834    3.5830 N.pl3     1 RES1    0.0000
     10 N3         5.3324    3.5097    6.1488 N.2       1 RES1    0.0000
     11 C3         4.4519    2.9117    3.9671 C.2       1 RES1    0.0000
     12 N4         4.2782    1.7009    4.4049 N.1       1 RES1    1.0000
     13 C4         4.9767    3.8569    4.8825 C.2       1 RES1    0.0000
     14 C5         5.2097    5.2059    4.7092 C.2       1 RES1    0.0000
     15 N5         4.1444    0.6652    4.8024 N.2       1 RES1   -1.0000
     16 H4         6.0856    4.7079    7.5585 H         1 RES1    0.0000
     17 H5         4.1845    3.0702    3.1180 H         1 RES1    0.0000
     18 N6         8.6819    7.3956    1.3616 N.pl3     2 RES2    0.0000
     19 O3         7.8963    6.4154   -1.1078 O.2       2 RES2    0.0000
     20 C6         8.3642    6.0014    1.6246 C.3       2 RES2    0.0000
     21 H6         8.4948    5.8137    2.5572 H         2 RES2    0.0000
     22 H7         8.9384    5.4378    1.1009 H         2 RES2    0.0000
     23 H8         7.4489    5.8316    1.3889 H         2 RES2    0.0000
     24 O4         8.1118    8.3837   -1.9721 O.2       2 RES2    0.0000
     25 N7         8.1777    7.6109   -1.0217 N.pl3     2 RES2    0.0000
     26 C7         9.1264    8.2629    2.2680 C.2       2 RES2    0.0000
     27 N8         9.3257    9.4809    1.8111 N.2       2 RES2    0.0000
     28 C8         9.0740   10.5439   -0.3516 C.2       2 RES2    0.0000
     29 C9         8.9898    9.4200    0.4970 C.2       2 RES2    0.0000
     30 N9         9.5012   11.6554    0.1871 N.1       2 RES2    1.0000
     31 C10        8.5908    8.1330    0.1988 C.2       2 RES2    0.0000
     32 N10        9.8742   12.5892    0.6679 N.2       2 RES2   -1.0000
     33 H9         9.2348    7.9492    3.1712 H         2 RES2    0.0000
     34 H10        8.8941   10.5532   -1.2911 H         2 RES2    0.0000
@<TRIPOS>BOND
     1    1    2 1
     2    2    3 1
     3    4    2 1
     4    5    2 1
     5    6    9 2
     6    7    1 1
     7    8    9 2
     8    9   14 1
     9   10    7 2
    10   11   12 2
    11   12   15 2
    12   13   10 1
    13   14    1 1
    14   16    7 1
    15   17   11 1
    16   18   20 1
    17   19   25 2
    18   20   21 1
    19   22   20 1
    20   23   20 1
    21   24   25 2
    22   25   31 1
    23   26   18 1
    24   27   26 2
    25   28   29 1
    26   29   27 1
    27   30   28 2
    28   31   18 1
    29   32   30 2
    30   33   26 1
    31   34   28 1
    32   11   13 1
    33   13   14 2
    34   29   31 2
@<TRIPOS>SUBSTRUCTURE
     1 RES1 1
     2 RES2 18

@<TRIPOS>CRYSIN
   7.0876    9.8869   11.4194  89.7610  73.2440  69.0930   2 1

