# MOL2 file generated by ConQuest
# Please check atom types

@<TRIPOS>MOLECULE
XIFFIB
    41    41     2
SMALL
NO_CHARGES
****
Generated from CSD

@<TRIPOS>ATOM
      1 O1         1.0786    6.6799    2.4629 O.3       1 RES1    0.0000
      2 O2        -1.3763    7.5590    1.5327 O.2       1 RES1    0.0000
      3 O3        -1.6159    8.1128    0.5748 Du        2 SUP2    0.0000
      4 O4        -0.9847    7.7637   -0.5265 O.2       1 RES1    0.0000
      5 O5        -0.3614    6.4957    0.0453 Du        2 SUP2    0.0000
      6 O6         3.7773   10.5646    1.7816 O.2       1 RES1    0.0000
      7 N1         1.9746   10.1302    0.5205 N.am      1 RES1    0.0000
      8 N2         0.8352    9.4717    0.2399 N.2       1 RES1    0.0000
      9 N3         3.3965    8.2663    3.3219 N.3       1 RES1    0.0000
     10 N4        -0.6115    7.7409    0.5657 N.pl3     1 RES1    0.0000
     11 C1         0.6382    8.4096    0.9308 C.2       1 RES1    0.0000
     12 C2         1.4519    7.8706    1.9234 C.2       1 RES1    0.0000
     13 C3         2.1575    5.7440    2.6913 C.3       1 RES1    0.0000
     14 H1         2.8262    5.8509    1.9974 H         1 RES1    0.0000
     15 H2         1.8126    4.8388    2.6370 H         1 RES1    0.0000
     16 C4         2.7950    5.9510    4.0279 C.3       1 RES1    0.0000
     17 H3         3.6890    5.5746    4.0188 H         1 RES1    0.0000
     18 H4         2.2806    5.4847    4.7052 H         1 RES1    0.0000
     19 C5         2.8718    7.4202    4.3779 C.3       1 RES1    0.0000
     20 H5         1.9819    7.7307    4.6102 H         1 RES1    0.0000
     21 H6         3.4316    7.5226    5.1639 H         1 RES1    0.0000
     22 C6         2.5772    8.5824    2.2629 C.2       1 RES1    0.0000
     23 C7         2.8446    9.8084    1.5327 C.2       1 RES1    0.0000
     24 C8         2.1707   11.3538   -0.2444 C.3       1 RES1    0.0000
     25 H7         1.4823   11.4289   -0.9097 H         1 RES1    0.0000
     26 H8         3.0286   11.3276   -0.6743 H         1 RES1    0.0000
     27 H9         2.1307   12.1100    0.3455 H         1 RES1    0.0000
     28 C9         4.8416    8.1890    3.1273 C.3       1 RES1    0.0000
     29 H10        5.0841    8.7200    2.3519 H         1 RES1    0.0000
     30 H11        5.0859    7.2690    2.9432 H         1 RES1    0.0000
     31 C10        5.6202    8.6723    4.3100 C.ar      1 RES1    0.0000
     32 C11        5.2776    9.8243    5.0024 C.ar      1 RES1    0.0000
     33 H12        4.5412   10.3201    4.7264 H         1 RES1    0.0000
     34 C12        6.0060   10.2428    6.0871 C.ar      1 RES1    0.0000
     35 H13        5.7412   11.0035    6.5532 H         1 RES1    0.0000
     36 C13        7.1178    9.5525    6.4914 C.ar      1 RES1    0.0000
     37 H14        7.6151    9.8436    7.2215 H         1 RES1    0.0000
     38 C14        7.4834    8.4301    5.8035 C.ar      1 RES1    0.0000
     39 H15        8.2435    7.9604    6.0630 H         1 RES1    0.0000
     40 C15        6.7459    7.9866    4.7369 C.ar      1 RES1    0.0000
     41 H16        7.0054    7.2121    4.2919 H         1 RES1    0.0000
@<TRIPOS>BOND
     1    1   12 1
     2    2   10 2
     3    4   10 2
     4    6   23 2
     5    7    8 1
     6    8   11 2
     7    9   19 1
     8   10   11 1
     9   11   12 1
    10   12   22 2
    11   13    1 1
    12   14   13 1
    13   15   13 1
    14   16   13 1
    15   17   16 1
    16   18   16 1
    17   19   16 1
    18   20   19 1
    19   21   19 1
    20   22    9 1
    21   23    7 1
    22   24    7 1
    23   25   24 1
    24   26   24 1
    25   27   24 1
    26   28    9 1
    27   29   28 1
    28   30   28 1
    29   31   28 1
    30   32   31 ar
    31   33   32 1
    32   34   32 ar
    33   35   34 1
    34   36   34 ar
    35   37   36 1
    36   38   36 ar
    37   39   38 1
    38   40   31 ar
    39   41   40 1
    40   22   23 1
    41   38   40 ar
@<TRIPOS>SUBSTRUCTURE
     1 RES1 1
     2 SUP2 3

@<TRIPOS>CRYSIN
   8.7590   11.3720   15.2920  90.0000  99.4210  90.0000 231 1

