# MOL2 file generated by ConQuest
# Please check atom types

@<TRIPOS>MOLECULE
XIFGOL
    46    45     1
SMALL
USER_CHARGES
****
Generated from CSD

@<TRIPOS>ATOM
      1 O1         4.0068    4.6670    6.3734 O.2       1 RES1    0.0000
      2 O2         2.2341    6.6625    4.1150 O.2       1 RES1   -1.0000
      3 O3         2.0732    7.9066    6.2255 O.3       1 RES1    0.0000
      4 H1         2.0778    8.5168    7.0430 H         1 RES1    0.0000
      5 N1         5.6563    5.8567    5.4095 N.am      1 RES1    0.0000
      6 H2         6.4649    6.2348    5.4817 H         1 RES1    0.0000
      7 N2         3.2237    7.3357    4.5205 N.pl3     1 RES1    1.0000
      8 N3         3.2677    8.0289    5.5893 N.2       1 RES1    0.0000
      9 C1         4.5023    7.2440    3.7676 C.3       1 RES1    0.0000
     10 H3         5.1233    7.9372    4.1047 H         1 RES1    0.0000
     11 C2         5.0804    5.8662    4.0843 C.3       1 RES1    0.0000
     12 H4         4.3714    5.1922    4.0287 H         1 RES1    0.0000
     13 H5         5.7686    5.6390    3.4235 H         1 RES1    0.0000
     14 C3         5.0700    5.3086    6.4661 C.2       1 RES1    0.0000
     15 C4         5.7026    5.5741    7.7990 C.3       1 RES1    0.0000
     16 H6         6.5661    6.0219    7.6745 H         1 RES1    0.0000
     17 H7         5.8577    4.7291    8.2679 H         1 RES1    0.0000
     18 C5         4.7679    6.4639    8.6211 C.3       1 RES1    0.0000
     19 H8         4.7384    7.3481    8.2007 H         1 RES1    0.0000
     20 H9         3.8644    6.0868    8.5720 H         1 RES1    0.0000
     21 C6         5.1157    6.6454   10.0563 C.3       1 RES1    0.0000
     22 H10        6.0071    7.0492   10.1098 H         1 RES1    0.0000
     23 H11        5.1678    5.7612   10.4753 H         1 RES1    0.0000
     24 C7         4.1637    7.4913   10.8480 C.3       1 RES1    0.0000
     25 H12        3.2683    7.0941   10.8085 H         1 RES1    0.0000
     26 H13        4.1156    8.3850   10.4489 H         1 RES1    0.0000
     27 C8         4.5914    7.6107   12.2850 C.3       1 RES1    0.0000
     28 H14        4.4959    6.7399   12.7235 H         1 RES1    0.0000
     29 H15        5.5377    7.8646   12.3201 H         1 RES1    0.0000
     30 C9         3.7776    8.6294   13.0217 C.3       1 RES1    0.0000
     31 H16        4.2569    8.8777   13.8374 H         1 RES1    0.0000
     32 H17        3.7076    9.4334   12.4633 H         1 RES1    0.0000
     33 C10        2.4065    8.1921   13.3930 C.3       1 RES1    0.0000
     34 H18        1.8868    8.0394   12.5861 H         1 RES1    0.0000
     35 H19        1.9811    8.8805   13.9251 H         1 RES1    0.0000
     36 H20        2.4569    7.3700   13.9046 H         1 RES1    0.0000
     37 C11        4.2117    7.5142    2.2757 C.3       1 RES1    0.0000
     38 H21        3.6023    6.8115    1.9383 H         1 RES1    0.0000
     39 C12        3.5334    8.8681    2.1155 C.3       1 RES1    0.0000
     40 H22        2.7237    8.8891    2.6488 H         1 RES1    0.0000
     41 H23        3.3082    9.0085    1.1811 H         1 RES1    0.0000
     42 H24        4.1353    9.5689    2.4120 H         1 RES1    0.0000
     43 C13        5.5110    7.4627    1.4732 C.3       1 RES1    0.0000
     44 H25        6.1483    8.0900    1.8506 H         1 RES1    0.0000
     45 H26        5.3305    7.7004    0.5496 H         1 RES1    0.0000
     46 H27        5.8791    6.5661    1.5115 H         1 RES1    0.0000
@<TRIPOS>BOND
     1    1   14 2
     2    2    7 1
     3    3    4 1
     4    5    6 1
     5    7    8 2
     6    8    3 1
     7    9    7 1
     8   10    9 1
     9   11    5 1
    10   12   11 1
    11   13   11 1
    12   14    5 1
    13   15   14 1
    14   16   15 1
    15   17   15 1
    16   18   15 1
    17   19   18 1
    18   20   18 1
    19   21   18 1
    20   22   21 1
    21   23   21 1
    22   24   21 1
    23   25   24 1
    24   26   24 1
    25   27   24 1
    26   28   27 1
    27   29   27 1
    28   30   27 1
    29   31   30 1
    30   32   30 1
    31   33   30 1
    32   34   33 1
    33   35   33 1
    34   36   33 1
    35   37    9 1
    36   38   37 1
    37   39   37 1
    38   40   39 1
    39   41   39 1
    40   42   39 1
    41   43   37 1
    42   44   43 1
    43   45   43 1
    44   46   43 1
    45    9   11 1
@<TRIPOS>SUBSTRUCTURE
     1 RES1 1

@<TRIPOS>CRYSIN
   5.7877    9.5479   29.2360  90.0000  90.0000  90.0000  19 1

