# MOL2 file generated by ConQuest
# Please check atom types

@<TRIPOS>MOLECULE
XIFQIN
    26    27     1
SMALL
NO_CHARGES
****
Generated from CSD

@<TRIPOS>ATOM
      1 N1         7.1762    0.9282   13.2096 N.pl3     1 RES1    0.0000
      2 C1         5.9605    1.2129   12.5014 C.ar      1 RES1    0.0000
      3 C2         4.7897    1.4065   13.2191 C.ar      1 RES1    0.0000
      4 H1         4.7905    1.3653   14.1587 H         1 RES1    0.0000
      5 C3         3.6075    1.6629   12.5330 C.ar      1 RES1    0.0000
      6 H2         2.8406    1.8153   13.0117 H         1 RES1    0.0000
      7 C4         3.6507    1.7067   11.1489 C.ar      1 RES1    0.0000
      8 N2         2.3850    1.8851   10.4171 N.pl3     1 RES1    0.0000
      9 O1         2.4365    2.0369    9.2001 O.2       1 RES1    0.0000
     10 O2         1.3287    1.8421   11.0533 O.2       1 RES1    0.0000
     11 C5         4.8068    1.5319   10.4231 C.ar      1 RES1    0.0000
     12 H3         4.7742    1.5687    9.5147 H         1 RES1    0.0000
     13 C6         5.9881    1.2842   11.1072 C.ar      1 RES1    0.0000
     14 H4         6.8479    1.2127   10.6388 H         1 RES1    0.0000
     15 C7         7.7687    1.7110   14.1781 C.2       1 RES1    0.0000
     16 C8         7.2094    2.9974   14.6645 C.3       1 RES1    0.0000
     17 H5         6.8080    3.5098   13.9447 H         1 RES1    0.0000
     18 H6         7.9063    3.4755   15.0273 H         1 RES1    0.0000
     19 H7         6.5369    2.8513   15.3535 H         1 RES1    0.0000
     20 N3         8.8781    1.1469   14.6215 N.2       1 RES1    0.0000
     21 C9         8.9696   -0.0202   13.9169 C.2       1 RES1    0.0000
     22 N4        10.0387   -0.9401   14.1436 N.pl3     1 RES1    0.0000
     23 O3        10.8164   -0.7265   15.0724 O.2       1 RES1    0.0000
     24 O4        10.1251   -1.9165   13.3781 O.2       1 RES1    0.0000
     25 C10        7.9584   -0.1850   13.0317 C.2       1 RES1    0.0000
     26 H8         7.6873   -0.8721   12.4632 H         1 RES1    0.0000
@<TRIPOS>BOND
     1    1    2 1
     2    2    3 ar
     3    3    4 1
     4    5    3 ar
     5    6    5 1
     6    7    5 ar
     7    8    7 1
     8    9    8 2
     9   10    8 2
    10   11    7 ar
    11   12   11 1
    12   13    2 ar
    13   14   13 1
    14   15    1 1
    15   16   15 1
    16   17   16 1
    17   18   16 1
    18   19   16 1
    19   20   15 2
    20   21   20 1
    21   22   21 1
    22   23   22 2
    23   24   22 2
    24   25    1 1
    25   26   25 1
    26   11   13 ar
    27   21   25 2
@<TRIPOS>SUBSTRUCTURE
     1 RES1 1

@<TRIPOS>CRYSIN
   8.1416   12.7121   20.7789  90.0000  90.0000  90.0000  61 1

