# MOL2 file generated by ConQuest
# Please check atom types

@<TRIPOS>MOLECULE
XIGFOK
    83    68     2
SMALL
NO_CHARGES
****
Generated from CSD

@<TRIPOS>ATOM
      1 O1         2.4537    0.6575    9.3452 O.2       1 RES1    0.0000
      2 O2        -0.2203   -2.0029    6.6097 O.2       1 RES1    0.0000
      3 N1         2.4304    1.0668    7.1085 N.am      1 RES1    0.0000
      4 C1         1.9561    0.4491    8.2404 C.2       1 RES1    0.0000
      5 C2         0.6614   -0.4006    8.1368 C.3       1 RES1    0.0000
      6 C3         0.4360   -1.0327    6.7248 C.2       1 RES1    0.0000
      7 C4         1.0132   -0.2520    5.6031 C.ar      1 RES1    0.0000
      8 C5         0.5927   -0.5861    4.3154 C.ar      1 RES1    0.0000
      9 H1        -0.0662   -1.2601    4.1947 H         1 RES1    0.0000
     10 C6         1.1248    0.0572    3.2151 C.ar      1 RES1    0.0000
     11 H2         0.8310   -0.1630    2.3383 H         1 RES1    0.0000
     12 C7         2.0954    1.0287    3.4081 C.ar      1 RES1    0.0000
     13 H3         2.4734    1.4666    2.6554 H         1 RES1    0.0000
     14 C8         2.5243    1.3723    4.6833 C.ar      1 RES1    0.0000
     15 H4         3.1919    2.0389    4.7939 H         1 RES1    0.0000
     16 C9         1.9774    0.7392    5.8096 C.ar      1 RES1    0.0000
     17 C10        3.5213    2.0385    7.2518 C.3       1 RES1    0.0000
     18 H5         3.2444    2.8992    6.8726 H         1 RES1    0.0000
     19 H6         4.3150    1.7130    6.7778 H         1 RES1    0.0000
     20 H7         3.7331    2.1545    8.2020 H         1 RES1    0.0000
     21 O3         5.5161   -4.7400   11.4750 O.2       1 RES1    0.0000
     22 O4         5.4163   -5.4773    9.4784 O.2       1 RES1    0.0000
     23 O5        -0.4920   -4.7586    9.9727 O.2       1 RES1    0.0000
     24 O6        -4.2076   -1.9646   10.3889 O.2       1 RES1    0.0000
     25 N2         4.9915   -4.7859   10.3808 N.pl3     1 RES1    0.0000
     26 C11        0.5505   -1.3855    9.2881 C.2       1 RES1    0.0000
     27 C12       -0.5825   -1.1801    9.9922 C.2       1 RES1    0.0000
     28 C13       -1.2602    0.0222    9.4833 C.ar      1 RES1    0.0000
     29 C14       -2.3717    0.7130    9.9531 C.ar      1 RES1    0.0000
     30 H8        -2.8770    0.3809   10.6859 H         1 RES1    0.0000
     31 C15       -2.7261    1.9040    9.3233 C.ar      1 RES1    0.0000
     32 H9        -3.4803    2.3894    9.6364 H         1 RES1    0.0000
     33 C16       -2.0004    2.3944    8.2501 C.ar      1 RES1    0.0000
     34 H10       -2.2638    3.2099    7.8386 H         1 RES1    0.0000
     35 C17       -0.8857    1.7044    7.7652 C.ar      1 RES1    0.0000
     36 H11       -0.3888    2.0332    7.0250 H         1 RES1    0.0000
     37 C18       -0.5319    0.5340    8.3966 C.ar      1 RES1    0.0000
     38 C19        1.6449   -2.3349    9.5763 C.ar      1 RES1    0.0000
     39 C20        2.1659   -3.1618    8.5847 C.ar      1 RES1    0.0000
     40 H12        1.7721   -3.1644    7.7202 H         1 RES1    0.0000
     41 C21        3.2522   -3.9808    8.8458 C.ar      1 RES1    0.0000
     42 H13        3.6096   -4.5420    8.1682 H         1 RES1    0.0000
     43 C22        3.8055   -3.9639   10.1130 C.ar      1 RES1    0.0000
     44 C23        3.3092   -3.1643   11.1236 C.ar      1 RES1    0.0000
     45 H14        3.6960   -3.1796   11.9916 H         1 RES1    0.0000
     46 C24        2.2337   -2.3419   10.8403 C.ar      1 RES1    0.0000
     47 H15        1.8908   -1.7717   11.5187 H         1 RES1    0.0000
     48 C25       -1.1253   -2.0184   11.1147 C.3       1 RES1    0.0000
     49 H16       -1.5854   -1.4249   11.7591 H         1 RES1    0.0000
     50 H17       -0.3666   -2.4425   11.5887 H         1 RES1    0.0000
     51 C26       -2.1132   -3.1267   10.6703 C.3       1 RES1    0.0000
     52 C27       -1.4463   -4.0816    9.6826 C.2       1 RES1    0.0000
     53 C28       -2.1732   -4.0717    8.3578 C.3       1 RES1    0.0000
     54 H18       -1.5379   -3.8940    7.6186 H         1 RES1    0.0000
     55 H19       -2.6083   -4.9456    8.1964 H         1 RES1    0.0000
     56 C29       -3.2086   -2.9752    8.4356 C.3       1 RES1    0.0000
     57 H20       -2.9315   -2.1962    7.8906 H         1 RES1    0.0000
     58 H21       -4.0833   -3.2990    8.1027 H         1 RES1    0.0000
     59 C30       -3.3064   -2.5931    9.8930 C.2       1 RES1    0.0000
     60 C31       -2.5848   -3.8894   11.9126 C.3       1 RES1    0.0000
     61 H22       -3.2431   -4.5667   11.6496 H         1 RES1    0.0000
     62 H23       -2.9955   -3.2630   12.5445 H         1 RES1    0.0000
     63 H24       -1.8182   -4.3279   12.3369 H         1 RES1    0.0000
     64 O7        -0.5609   -2.1924    6.9358 Du        2 SUP2    0.0000
     65 O8         2.5238    0.5495    9.0394 Du        2 SUP2    0.0000
     66 C32        1.8643    0.9228    4.3515 Du        2 SUP2    0.0000
     67 H25        1.4130    0.6405    3.5650 Du        2 SUP2    0.0000
     68 C33        2.8366    1.8456    4.2680 Du        2 SUP2    0.0000
     69 H26        3.0531    2.2075    3.4171 Du        2 SUP2    0.0000
     70 C34        3.5231    2.2795    5.3604 Du        2 SUP2    0.0000
     71 H27        4.2242    2.9143    5.2623 Du        2 SUP2    0.0000
     72 C35        3.1897    1.7831    6.6436 Du        2 SUP2    0.0000
     73 H28        3.6429    2.0938    7.4188 Du        2 SUP2    0.0000
     74 C36        2.1987    0.8451    6.7383 Du        2 SUP2    0.0000
     75 C37        1.5006    0.3600    5.6301 Du        2 SUP2    0.0000
     76 N3         0.5642   -0.6291    5.7283 Du        2 SUP2    0.0000
     77 C38        0.2013   -1.0422    6.9742 Du        2 SUP2    0.0000
     78 C39        0.6614   -0.4006    8.1368 Du        2 SUP2    0.0000
     79 C40        1.7840    0.3790    8.0689 Du        2 SUP2    0.0000
     80 C41       -0.0811   -1.1824    4.4870 Du        2 SUP2    0.0000
     81 H29       -0.6609   -1.9347    4.7285 Du        2 SUP2    0.0000
     82 H30        0.6142   -1.4932    3.8685 Du        2 SUP2    0.0000
     83 H31       -0.6146   -0.4832    4.0559 Du        2 SUP2    0.0000
@<TRIPOS>BOND
     1    1    4 2
     2    2    6 2
     3    3    4 1
     4    4    5 1
     5    5    6 1
     6    6    7 1
     7    7    8 ar
     8    8    9 1
     9   10    8 ar
    10   11   10 1
    11   12   10 ar
    12   13   12 1
    13   14   12 ar
    14   15   14 1
    15   16    3 1
    16   17    3 1
    17   18   17 1
    18   19   17 1
    19   20   17 1
    20   21   25 2
    21   22   25 2
    22   23   52 2
    23   24   59 2
    24   25   43 1
    25   26    5 1
    26   27   26 2
    27   28   27 1
    28   29   28 ar
    29   30   29 1
    30   31   29 ar
    31   32   31 1
    32   33   31 ar
    33   34   33 1
    34   35   33 ar
    35   36   35 1
    36   37    5 1
    37   38   26 1
    38   39   38 ar
    39   40   39 1
    40   41   39 ar
    41   42   41 1
    42   43   41 ar
    43   44   43 ar
    44   45   44 1
    45   46   38 ar
    46   47   46 1
    47   48   27 1
    48   49   48 1
    49   50   48 1
    50   51   48 1
    51   52   51 1
    52   53   52 1
    53   54   53 1
    54   55   53 1
    55   56   53 1
    56   57   56 1
    57   58   56 1
    58   59   51 1
    59   60   51 1
    60   61   60 1
    61   62   60 1
    62   63   60 1
    63    7   16 ar
    64   14   16 ar
    65   28   37 ar
    66   35   37 ar
    67   44   46 ar
    68   56   59 1
@<TRIPOS>SUBSTRUCTURE
     1 RES1 1
     2 SUP2 64

@<TRIPOS>CRYSIN
  11.8817   18.9488   12.1070  90.0000 111.2330  90.0000 231 1

