# MOL2 file generated by ConQuest
# Please check atom types

@<TRIPOS>MOLECULE
XIGQAG
    57    60     1
SMALL
NO_CHARGES
****
Generated from CSD

@<TRIPOS>ATOM
      1 O1         6.7641    4.7680    0.0155 O.2       1 RES1    0.0000
      2 O2         5.4670    3.6594   -1.2833 O.2       1 RES1    0.0000
      3 O3         1.2027    2.7753    0.8378 O.2       1 RES1    0.0000
      4 O4         1.1394    2.5529    2.9888 O.2       1 RES1    0.0000
      5 N1         7.7214    0.1896    2.0067 N.3       1 RES1    0.0000
      6 N2         7.3352    3.0083    2.2353 N.3       1 RES1    0.0000
      7 N3         5.8793    3.9559   -0.1656 N.pl3     1 RES1    0.0000
      8 N4         1.7447    2.7138    1.9293 N.pl3     1 RES1    0.0000
      9 C1         8.7029    1.1128    1.4944 C.3       1 RES1    0.0000
     10 H1         9.1025    0.7311    0.6973 H         1 RES1    0.0000
     11 H2         9.4061    1.2169    2.1549 H         1 RES1    0.0000
     12 C2         8.1465    2.4785    1.1545 C.3       1 RES1    0.0000
     13 H3         8.8794    3.0883    0.9753 H         1 RES1    0.0000
     14 H4         7.6077    2.4142    0.3506 H         1 RES1    0.0000
     15 C3         8.3558   -1.0102    2.5869 C.3       1 RES1    0.0000
     16 H5         8.9346   -1.4096    1.9186 H         1 RES1    0.0000
     17 H6         7.6649   -1.6552    2.8009 H         1 RES1    0.0000
     18 C4         9.1721   -0.7352    3.8391 C.ar      1 RES1    0.0000
     19 C5        10.5871   -0.7864    3.8217 C.ar      1 RES1    0.0000
     20 C6        11.3482   -1.0345    2.6508 C.ar      1 RES1    0.0000
     21 H7        10.9131   -1.1728    1.8411 H         1 RES1    0.0000
     22 C7        12.6938   -1.0716    2.6963 C.ar      1 RES1    0.0000
     23 H8        13.1721   -1.2385    1.9167 H         1 RES1    0.0000
     24 C8        13.4023   -0.8612    3.9205 C.ar      1 RES1    0.0000
     25 H9        14.3314   -0.8818    3.9408 H         1 RES1    0.0000
     26 C9        12.7073   -0.6355    5.0188 C.ar      1 RES1    0.0000
     27 H10       13.1676   -0.5196    5.8188 H         1 RES1    0.0000
     28 C10       11.2934   -0.5605    5.0362 C.ar      1 RES1    0.0000
     29 C11       10.6163   -0.3015    6.2158 C.ar      1 RES1    0.0000
     30 H11       11.0986   -0.1587    6.9984 H         1 RES1    0.0000
     31 C12        9.2175   -0.2511    6.2507 C.ar      1 RES1    0.0000
     32 C13        8.5207    0.0417    7.4613 C.ar      1 RES1    0.0000
     33 H12        8.9985    0.2001    8.2429 H         1 RES1    0.0000
     34 C14        7.1877    0.0891    7.4778 C.ar      1 RES1    0.0000
     35 H13        6.7422    0.2463    8.2797 H         1 RES1    0.0000
     36 C15        6.4339   -0.1008    6.2740 C.ar      1 RES1    0.0000
     37 H14        5.5055   -0.0455    6.2894 H         1 RES1    0.0000
     38 C16        7.0771   -0.3613    5.1176 C.ar      1 RES1    0.0000
     39 H15        6.5802   -0.4922    4.3418 H         1 RES1    0.0000
     40 C17        8.4929   -0.4410    5.0536 C.ar      1 RES1    0.0000
     41 C18        5.9756    3.0304    2.1627 C.ar      1 RES1    0.0000
     42 C19        5.2543    3.3376    0.9908 C.ar      1 RES1    0.0000
     43 C20        3.8919    3.2097    0.8920 C.ar      1 RES1    0.0000
     44 H16        3.4553    3.3883    0.0901 H         1 RES1    0.0000
     45 C21        3.1772    2.8083    2.0096 C.ar      1 RES1    0.0000
     46 C22        3.8398    2.5721    3.2096 C.ar      1 RES1    0.0000
     47 H17        3.3540    2.3352    3.9660 H         1 RES1    0.0000
     48 C23        5.1971    2.6847    3.2861 C.ar      1 RES1    0.0000
     49 H18        5.6194    2.5308    4.0997 H         1 RES1    0.0000
     50 C24        6.7406   -0.1946    1.0169 C.3       1 RES1    0.0000
     51 H19        6.1044   -0.7936    1.4121 H         1 RES1    0.0000
     52 H20        7.1807   -0.6321    0.2838 H         1 RES1    0.0000
     53 H21        6.2865    0.5885    0.6964 H         1 RES1    0.0000
     54 C25        7.9762    3.0105    3.5341 C.3       1 RES1    0.0000
     55 H22        8.9291    2.9947    3.4207 H         1 RES1    0.0000
     56 H23        7.6993    2.2366    4.0290 H         1 RES1    0.0000
     57 H24        7.7243    3.8034    4.0135 H         1 RES1    0.0000
@<TRIPOS>BOND
     1    1    7 2
     2    2    7 2
     3    3    8 2
     4    4    8 2
     5    5    9 1
     6    6   12 1
     7    7   42 1
     8    8   45 1
     9    9   10 1
    10   11    9 1
    11   12    9 1
    12   13   12 1
    13   14   12 1
    14   15    5 1
    15   16   15 1
    16   17   15 1
    17   18   15 1
    18   19   18 ar
    19   20   19 ar
    20   21   20 1
    21   22   20 ar
    22   23   22 1
    23   24   22 ar
    24   25   24 1
    25   26   24 ar
    26   27   26 1
    27   28   19 ar
    28   29   28 ar
    29   30   29 1
    30   31   29 ar
    31   32   31 ar
    32   33   32 1
    33   34   32 ar
    34   35   34 1
    35   36   34 ar
    36   37   36 1
    37   38   36 ar
    38   39   38 1
    39   40   18 ar
    40   41    6 1
    41   42   41 ar
    42   43   42 ar
    43   44   43 1
    44   45   43 ar
    45   46   45 ar
    46   47   46 1
    47   48   41 ar
    48   49   48 1
    49   50    5 1
    50   51   50 1
    51   52   50 1
    52   53   50 1
    53   54    6 1
    54   55   54 1
    55   56   54 1
    56   57   54 1
    57   26   28 ar
    58   31   40 ar
    59   38   40 ar
    60   46   48 ar
@<TRIPOS>SUBSTRUCTURE
     1 RES1 1

@<TRIPOS>CRYSIN
  10.3260   10.8450   10.9970 114.5720 102.1090  92.3260   2 1

