# MOL2 file generated by ConQuest
# Please check atom types

@<TRIPOS>MOLECULE
XIHLIL
    48    48     4
SMALL
NO_CHARGES
****
Generated from CSD

@<TRIPOS>ATOM
      1 N1         2.2511    8.5349   -1.3992 N.3       1 RES1    0.0000
      2 C1         1.4554    7.6204   -1.5503 C.2       1 RES1    0.0000
      3 N2         1.6130    6.5216   -0.6638 N.2       1 RES1    0.0000
      4 O1         0.6263    5.5533   -0.9858 O.3       1 RES1    0.0000
      5 N3        -0.1416    6.0533   -2.0710 N.2       1 RES1    0.0000
      6 C2         0.3708    7.3305   -2.4198 C.2       1 RES1    0.0000
      7 C3        -0.0950    8.0915   -3.4702 C.2       1 RES1    0.0000
      8 O2        -1.1263    7.7633   -4.1917 O.3       1 RES1    0.0000
      9 O3         0.5918    9.1591   -3.6203 O.2       1 RES1    0.0000
     10 H1         2.2146    9.2403   -1.9239 H         1 RES1    0.0000
     11 H2         2.8601    8.4887   -0.7662 H         1 RES1    0.0000
     12 H3        -1.0771    6.9506   -4.3974 H         1 RES1    0.0000
     13 N4        -2.4423    4.8505   -3.6402 N.3       2 RES2    0.0000
     14 C4        -3.1238    3.8747   -3.4802 C.2       2 RES2    0.0000
     15 N5        -4.2385    3.6337   -4.3259 N.2       2 RES2    0.0000
     16 O4        -4.8311    2.4050   -3.9313 O.3       2 RES2    0.0000
     17 N6        -4.0817    1.8872   -2.8422 N.2       2 RES2    0.0000
     18 C5        -3.0270    2.7954   -2.5629 C.2       2 RES2    0.0000
     19 C6        -2.1763    2.5235   -1.5075 C.2       2 RES2    0.0000
     20 O5        -2.1366    1.4715   -0.7831 O.3       2 RES2    0.0000
     21 O6        -1.3865    3.5330   -1.3436 O.2       2 RES2    0.0000
     22 H4        -2.6322    5.4190   -4.2831 H         2 RES2    0.0000
     23 H5        -1.7516    4.9961   -3.1135 H         2 RES2    0.0000
     24 H6        -2.5446    0.8485   -1.1716 H         2 RES2    0.0000
     25 N7        -0.3140    0.8038    1.4261 N.3       3 RES3    0.0000
     26 C7         0.4054    1.8081    1.5085 C.2       3 RES3    0.0000
     27 N8         0.3359    2.9607    0.6817 N.2       3 RES3    0.0000
     28 O7         1.3517    3.8615    1.0991 O.3       3 RES3    0.0000
     29 N9         2.0475    3.2658    2.1843 N.2       3 RES3    0.0000
     30 C8         1.4634    1.9972    2.4367 C.2       3 RES3    0.0000
     31 C9         2.0486    1.3138    3.4861 C.2       3 RES3    0.0000
     32 O8         3.0545    1.8391    4.0556 O.3       3 RES3    0.0000
     33 O9         1.3836    0.2219    3.6441 O.2       3 RES3    0.0000
     34 H7        -0.1887    0.1268    1.9746 H         3 RES3    0.0000
     35 H8        -0.9505    0.7673    0.8199 H         3 RES3    0.0000
     36 H9         3.2169    1.4297    4.7711 H         3 RES3    0.0000
     37 N10        4.3347    4.5358    3.5626 N.3       4 RES4    0.0000
     38 C10        5.0739    5.5323    3.4732 C.2       4 RES4    0.0000
     39 N11        6.1931    5.7992    4.3060 N.2       4 RES4    0.0000
     40 O10        6.7647    7.0309    3.8916 O.3       4 RES4    0.0000
     41 N12        5.9994    7.5255    2.8024 N.2       4 RES4    0.0000
     42 C11        4.9544    6.5997    2.5440 C.2       4 RES4    0.0000
     43 C12        4.0729    6.8790    1.4410 C.2       4 RES4    0.0000
     44 O11        4.2445    8.0452    0.8894 O.3       4 RES4    0.0000
     45 O12        3.2792    5.8802    1.2780 O.2       4 RES4    0.0000
     46 H10        3.6549    4.4418    3.0121 H         4 RES4    0.0000
     47 H11        4.4919    3.9251    4.1758 H         4 RES4    0.0000
     48 H12        4.0113    8.0106    0.0835 H         4 RES4    0.0000
@<TRIPOS>BOND
     1    1    2 1
     2    2    3 2
     3    3    4 1
     4    4    5 1
     5    5    6 2
     6    6    2 1
     7    7    6 1
     8    8    7 1
     9    9    7 2
    10   10    1 1
    11   11    1 1
    12   12    8 1
    13   13   14 1
    14   14   15 2
    15   15   16 1
    16   16   17 1
    17   17   18 2
    18   18   14 1
    19   19   18 1
    20   20   19 1
    21   21   19 2
    22   22   13 1
    23   23   13 1
    24   24   20 1
    25   25   26 1
    26   26   27 2
    27   27   28 1
    28   28   29 1
    29   29   30 2
    30   30   26 1
    31   31   30 1
    32   32   31 1
    33   33   31 2
    34   34   25 1
    35   35   25 1
    36   36   32 1
    37   37   38 1
    38   38   39 2
    39   39   40 1
    40   40   41 1
    41   41   42 2
    42   42   38 1
    43   43   42 1
    44   44   43 1
    45   45   43 2
    46   46   37 1
    47   47   37 1
    48   48   44 1
@<TRIPOS>SUBSTRUCTURE
     1 RES1 1
     2 RES2 13
     3 RES3 25
     4 RES4 37

@<TRIPOS>CRYSIN
   9.7550    9.7750   11.4630 108.3620 105.6130 108.1180   2 1

