# MOL2 file generated by ConQuest
# Please check atom types

@<TRIPOS>MOLECULE
XIJHUT
   122   132     2
SMALL
USER_CHARGES
****
Generated from CSD

@<TRIPOS>ATOM
      1 O1         1.9772   12.1371   29.3700 O.2       1 RES1   -1.0000
      2 N1         0.6786   12.1948   29.2551 N.pl3     1 RES1    1.0000
      3 C1        -0.1101   11.8611   30.3362 C.ar      1 RES1    0.0000
      4 C2        -1.5024   11.8434   30.2224 C.ar      1 RES1    0.0000
      5 C3        -2.0873   12.2347   29.0070 C.ar      1 RES1    0.0000
      6 H1        -3.0319   12.2236   28.9054 H         1 RES1    0.0000
      7 C4        -1.2793   12.6402   27.9495 C.ar      1 RES1    0.0000
      8 C5         0.1087   12.5942   28.0778 C.ar      1 RES1    0.0000
      9 C6        -1.8299   13.1112   26.6085 C.3       1 RES1    0.0000
     10 H2        -2.4026   13.9066   26.7486 H         1 RES1    0.0000
     11 H3        -2.3898   12.3970   26.2142 H         1 RES1    0.0000
     12 C7        -0.6886   13.4659   25.6358 C.3       1 RES1    0.0000
     13 H4        -0.9761   13.8124   24.7445 H         1 RES1    0.0000
     14 C8         0.3840   12.3100   25.5999 C.3       1 RES1    0.0000
     15 C9         0.9575   13.0050   26.9078 C.3       1 RES1    0.0000
     16 H5         1.9486   12.9793   27.0387 H         1 RES1    0.0000
     17 C10        0.3504   14.3407   26.3882 C.3       1 RES1    0.0000
     18 H6        -0.0372   14.9131   27.0960 H         1 RES1    0.0000
     19 H7         0.9525   14.8575   25.7942 H         1 RES1    0.0000
     20 C11       -2.3504   11.3996   31.3940 C.3       1 RES1    0.0000
     21 H8        -2.1602   10.4598   31.5967 H         1 RES1    0.0000
     22 H9        -3.2986   11.4999   31.1653 H         1 RES1    0.0000
     23 H10       -2.1416   11.9527   32.1769 H         1 RES1    0.0000
     24 C12        1.3615   12.4525   24.4280 C.3       1 RES1    0.0000
     25 H11        2.1130   11.8365   24.5536 H         1 RES1    0.0000
     26 H12        1.6969   13.3731   24.3932 H         1 RES1    0.0000
     27 H13        0.8996   12.2405   23.5916 H         1 RES1    0.0000
     28 C13       -0.0758   10.8641   25.6927 C.3       1 RES1    0.0000
     29 H14       -0.5177   10.6079   24.8552 H         1 RES1    0.0000
     30 H15       -0.7051   10.7678   26.4394 H         1 RES1    0.0000
     31 H16        0.7001   10.2831   25.8439 H         1 RES1    0.0000
     32 C14        0.5978   11.6590   31.6379 C.ar      1 RES1    0.0000
     33 N2         0.5027   12.7311   32.4648 N.ar      1 RES1    0.0000
     34 C15        1.2678   10.4797   31.9708 C.ar      1 RES1    0.0000
     35 C16        1.8442   10.4134   33.2489 C.ar      1 RES1    0.0000
     36 H17        2.2947    9.6234   33.5245 H         1 RES1    0.0000
     37 C17        1.7584   11.4947   34.1147 C.ar      1 RES1    0.0000
     38 C18        1.0912   12.6536   33.6703 C.ar      1 RES1    0.0000
     39 C19        2.2861   11.4929   35.5477 C.3       1 RES1    0.0000
     40 H18        3.2593   11.3114   35.5439 H         1 RES1    0.0000
     41 H19        1.8420   10.7746   36.0631 H         1 RES1    0.0000
     42 C20        2.0172   12.8541   36.2177 C.3       1 RES1    0.0000
     43 H20        2.3647   12.9423   37.1510 H         1 RES1    0.0000
     44 C21        0.5292   13.3248   36.0142 C.3       1 RES1    0.0000
     45 C22        1.0340   13.8284   34.6105 C.3       1 RES1    0.0000
     46 H21        0.6100   14.6623   34.2574 H         1 RES1    0.0000
     47 C23        2.4513   13.9840   35.2458 C.3       1 RES1    0.0000
     48 H22        3.1978   13.7400   34.6430 H         1 RES1    0.0000
     49 H23        2.6093   14.8592   35.6813 H         1 RES1    0.0000
     50 C24        1.3665    9.3263   30.9958 C.3       1 RES1    0.0000
     51 H24        0.4777    9.1303   30.6309 H         1 RES1    0.0000
     52 H25        1.7119    8.5345   31.4593 H         1 RES1    0.0000
     53 H26        1.9729    9.5679   30.2644 H         1 RES1    0.0000
     54 C25        0.1695   14.5086   36.9361 C.3       1 RES1    0.0000
     55 H27       -0.7086   14.8643   36.6853 H         1 RES1    0.0000
     56 H28        0.8452   15.2126   36.8418 H         1 RES1    0.0000
     57 H29        0.1423   14.2012   37.8649 H         1 RES1    0.0000
     58 C26       -0.6057   12.3044   36.0589 C.3       1 RES1    0.0000
     59 H30       -0.7036   11.9644   36.9716 H         1 RES1    0.0000
     60 H31       -0.4012   11.5605   35.4561 H         1 RES1    0.0000
     61 H32       -1.4416   12.7336   35.7768 H         1 RES1    0.0000
     62 O2         1.5288    0.4443   33.9925 O.2       2 RES2   -1.0000
     63 N3         2.8302    0.2979   33.9112 N.pl3     2 RES2    1.0000
     64 C27        3.6090    0.7459   34.9583 C.ar      2 RES2    0.0000
     65 C28        4.9998    0.6259   34.9144 C.ar      2 RES2    0.0000
     66 C29        5.5897    0.0263   33.7944 C.ar      2 RES2    0.0000
     67 H33        6.5336   -0.0656   33.7459 H         2 RES2    0.0000
     68 C30        4.7917   -0.4335   32.7526 C.ar      2 RES2    0.0000
     69 C31        3.4002   -0.2913   32.8179 C.ar      2 RES2    0.0000
     70 C32        5.3559   -1.0780   31.4898 C.3       2 RES2    0.0000
     71 H34        5.8929   -1.8715   31.7379 H         2 RES2    0.0000
     72 H35        5.9522   -0.4359   31.0317 H         2 RES2    0.0000
     73 C33        4.2296   -1.5002   30.5366 C.3       2 RES2    0.0000
     74 H36        4.5264   -1.9708   29.7071 H         2 RES2    0.0000
     75 C34        3.1871   -0.3528   30.3221 C.3       2 RES2    0.0000
     76 C35        2.5635   -0.8317   31.6948 C.3       2 RES2    0.0000
     77 H37        1.5710   -0.7607   31.7914 H         2 RES2    0.0000
     78 C36        3.1477   -2.2490   31.3795 C.3       2 RES2    0.0000
     79 H38        3.5060   -2.7265   32.1693 H         2 RES2    0.0000
     80 H39        2.5471   -2.8291   30.8485 H         2 RES2    0.0000
     81 C37        5.8464    1.1587   36.0501 C.3       2 RES2    0.0000
     82 H40        5.6591    2.1122   36.1776 H         2 RES2    0.0000
     83 H41        6.7946    1.0384   35.8340 H         2 RES2    0.0000
     84 H42        5.6333    0.6715   36.8724 H         2 RES2    0.0000
     85 C38        2.2389   -0.6665   29.1436 C.3       2 RES2    0.0000
     86 H43        1.4831   -0.0421   29.1574 H         2 RES2    0.0000
     87 H44        1.9064   -1.5837   29.2261 H         2 RES2    0.0000
     88 H45        2.7251   -0.5705   28.2985 H         2 RES2    0.0000
     89 C39        3.6798    1.0908   30.1934 C.3       2 RES2    0.0000
     90 H46        4.2196    1.1815   29.3788 H         2 RES2    0.0000
     91 H47        4.2253    1.3212   30.9745 H         2 RES2    0.0000
     92 H48        2.9103    1.6948   30.1423 H         2 RES2    0.0000
     93 C40        2.8717    1.3238   36.1238 C.ar      2 RES2    0.0000
     94 N4         2.7673    0.5084   37.1991 N.ar      2 RES2    0.0000
     95 C41        2.3526    2.6304   36.0803 C.ar      2 RES2    0.0000
     96 C42        1.7405    3.1090   37.2472 C.ar      2 RES2    0.0000
     97 H49        1.3987    3.9954   37.2732 H         2 RES2    0.0000
     98 C43        1.6311    2.2953   38.3688 C.ar      2 RES2    0.0000
     99 C44        2.1373    0.9819   38.2844 C.ar      2 RES2    0.0000
    100 C45        1.0075    2.7377   39.6835 C.3       2 RES2    0.0000
    101 H50        0.0915    3.0748   39.5178 H         2 RES2    0.0000
    102 H51        1.5410    3.4754   40.0714 H         2 RES2    0.0000
    103 C46        0.9518    1.5687   40.6753 C.3       2 RES2    0.0000
    104 H52        0.4955    1.7655   41.5449 H         2 RES2    0.0000
    105 C47        2.3383    0.8449   40.7963 C.3       2 RES2    0.0000
    106 C48        1.9114    0.0882   39.4808 C.3       2 RES2    0.0000
    107 H53        2.2139   -0.8600   39.3919 H         2 RES2    0.0000
    108 C49        0.4362    0.3085   39.9259 C.3       2 RES2    0.0000
    109 H54       -0.1881    0.5049   39.1819 H         2 RES2    0.0000
    110 H55        0.0801   -0.4006   40.5180 H         2 RES2    0.0000
    111 C50        2.4348    3.4645   34.8297 C.3       2 RES2    0.0000
    112 H56        1.9607    3.0109   34.1009 H         2 RES2    0.0000
    113 H57        3.3744    3.5882   34.5819 H         2 RES2    0.0000
    114 H58        2.0229    4.3388   34.9942 H         2 RES2    0.0000
    115 C51        2.3712   -0.1060   42.0117 C.3       2 RES2    0.0000
    116 H59        3.1728   -0.6682   41.9648 H         2 RES2    0.0000
    117 H60        1.5732   -0.6749   42.0030 H         2 RES2    0.0000
    118 H61        2.3898    0.4208   42.8390 H         2 RES2    0.0000
    119 C52        3.6211    1.6628   40.7619 C.3       2 RES2    0.0000
    120 H62        3.6619    2.2401   41.5525 H         2 RES2    0.0000
    121 H63        3.6340    2.2148   39.9530 H         2 RES2    0.0000
    122 H64        4.3927    1.0586   40.7585 H         2 RES2    0.0000
@<TRIPOS>BOND
     1    1    2 1
     2    2    3 ar
     3    3    4 ar
     4    4    5 ar
     5    5    6 1
     6    7    5 ar
     7    8    2 ar
     8    9    7 1
     9   10    9 1
    10   11    9 1
    11   12    9 1
    12   13   12 1
    13   14   12 1
    14   15    8 1
    15   16   15 1
    16   17   12 1
    17   18   17 1
    18   19   17 1
    19   20    4 1
    20   21   20 1
    21   22   20 1
    22   23   20 1
    23   24   14 1
    24   25   24 1
    25   26   24 1
    26   27   24 1
    27   28   14 1
    28   29   28 1
    29   30   28 1
    30   31   28 1
    31   32    3 1
    32   33   32 ar
    33   34   32 ar
    34   35   34 ar
    35   36   35 1
    36   37   35 ar
    37   38   33 ar
    38   39   37 1
    39   40   39 1
    40   41   39 1
    41   42   39 1
    42   43   42 1
    43   44   42 1
    44   45   38 1
    45   46   45 1
    46   47   42 1
    47   48   47 1
    48   49   47 1
    49   50   34 1
    50   51   50 1
    51   52   50 1
    52   53   50 1
    53   54   44 1
    54   55   54 1
    55   56   54 1
    56   57   54 1
    57   58   44 1
    58   59   58 1
    59   60   58 1
    60   61   58 1
    61   62   63 1
    62   63   64 ar
    63   64   65 ar
    64   65   66 ar
    65   66   67 1
    66   68   66 ar
    67   69   63 ar
    68   70   68 1
    69   71   70 1
    70   72   70 1
    71   73   70 1
    72   74   73 1
    73   75   73 1
    74   76   69 1
    75   77   76 1
    76   78   73 1
    77   79   78 1
    78   80   78 1
    79   81   65 1
    80   82   81 1
    81   83   81 1
    82   84   81 1
    83   85   75 1
    84   86   85 1
    85   87   85 1
    86   88   85 1
    87   89   75 1
    88   90   89 1
    89   91   89 1
    90   92   89 1
    91   93   64 1
    92   94   93 ar
    93   95   93 ar
    94   96   95 ar
    95   97   96 1
    96   98   96 ar
    97   99   94 ar
    98  100   98 1
    99  101  100 1
   100  102  100 1
   101  103  100 1
   102  104  103 1
   103  105  103 1
   104  106   99 1
   105  107  106 1
   106  108  103 1
   107  109  108 1
   108  110  108 1
   109  111   95 1
   110  112  111 1
   111  113  111 1
   112  114  111 1
   113  115  105 1
   114  116  115 1
   115  117  115 1
   116  118  115 1
   117  119  105 1
   118  120  119 1
   119  121  119 1
   120  122  119 1
   121    7    8 ar
   122   14   15 1
   123   15   17 1
   124   37   38 ar
   125   44   45 1
   126   45   47 1
   127   68   69 ar
   128   75   76 1
   129   76   78 1
   130   98   99 ar
   131  105  106 1
   132  106  108 1
@<TRIPOS>SUBSTRUCTURE
     1 RES1 1
     2 RES2 62

@<TRIPOS>CRYSIN
   7.1507   16.8300   38.1741  90.0000  90.0000  90.0000  19 1

