# MOL2 file generated by ConQuest
# Please check atom types

@<TRIPOS>MOLECULE
XIJVUJ
    48    49     1
SMALL
USER_CHARGES
****
Generated from CSD

@<TRIPOS>ATOM
      1 N1         2.0280    3.4690   10.4696 N.pl3     1 RES1    1.0000
      2 N2         2.8594    6.6384    9.2375 N.pl3     1 RES1    1.0000
      3 O1         2.8930    2.8941    9.7384 O.2       1 RES1   -1.0000
      4 O2         1.7480    6.9982    8.7233 O.2       1 RES1   -1.0000
      5 C1         3.0383    5.5895   10.0591 C.2       1 RES1    0.0000
      6 C2         1.9692    4.7818   10.6223 C.2       1 RES1    0.0000
      7 O3         4.8284    4.5866   11.1529 O.2       1 RES1    0.0000
      8 N3         4.3363    5.4532   10.3584 N.3       1 RES1    0.0000
      9 C3         1.0957    2.6175   11.3146 C.3       1 RES1    0.0000
     10 C4         5.1871    6.3789    9.5304 C.3       1 RES1    0.0000
     11 N4        -0.1083    4.7252   11.7810 N.pl3     1 RES1    1.0000
     12 C5        -0.2849    3.2960   11.3181 C.3       1 RES1    0.0000
     13 C6         4.1290    7.4319    9.0855 C.3       1 RES1    0.0000
     14 C7        -1.2558    2.5950   12.2584 C.3       1 RES1    0.0000
     15 H1        -0.8767    2.4488   13.1605 H         1 RES1    0.0000
     16 H2        -1.4297    1.7052   11.8788 H         1 RES1    0.0000
     17 H3        -2.0851    3.1151   12.2833 H         1 RES1    0.0000
     18 C8         0.9353    5.3927   11.3731 C.2       1 RES1    0.0000
     19 H4         0.9716    6.2827   11.5799 H         1 RES1    0.0000
     20 C9         3.9991    8.6176   10.0417 C.3       1 RES1    0.0000
     21 H5         3.1826    9.0943    9.8063 H         1 RES1    0.0000
     22 H6         3.9022    8.3258   10.9604 H         1 RES1    0.0000
     23 H7         4.8075    9.1839    9.9982 H         1 RES1    0.0000
     24 O4        -1.0641    5.2458   12.4603 O.2       1 RES1   -1.0000
     25 C10        6.3165    6.9244   10.3804 C.3       1 RES1    0.0000
     26 H8         6.8052    7.5408    9.8427 H         1 RES1    0.0000
     27 H9         6.9130    6.2316   10.6384 H         1 RES1    0.0000
     28 H10        6.0019    7.3808   11.1475 H         1 RES1    0.0000
     29 C11        5.7263    5.5178    8.3867 C.3       1 RES1    0.0000
     30 H11        4.9917    5.1721    7.8030 H         1 RES1    0.0000
     31 H12        6.3026    6.0578    7.8285 H         1 RES1    0.0000
     32 H13        6.2717    4.7734    8.7870 H         1 RES1    0.0000
     33 C12       -0.8958    3.4080    9.9205 C.3       1 RES1    0.0000
     34 H14       -1.7979    3.9056   10.0055 H         1 RES1    0.0000
     35 H15       -1.0919    2.4984    9.5524 H         1 RES1    0.0000
     36 H16       -0.2168    3.7635    9.2960 H         1 RES1    0.0000
     37 C13        4.2650    7.9224    7.6596 C.3       1 RES1    0.0000
     38 H17        5.1761    8.3534    7.5649 H         1 RES1    0.0000
     39 H18        3.5307    8.5673    7.4495 H         1 RES1    0.0000
     40 H19        4.1810    7.1739    7.0510 H         1 RES1    0.0000
     41 C14        1.0301    1.2321   10.6846 C.3       1 RES1    0.0000
     42 H20        1.8912    0.7946   10.7210 H         1 RES1    0.0000
     43 H21        0.4027    0.7119   11.1159 H         1 RES1    0.0000
     44 H22        0.8144    1.2665    9.6823 H         1 RES1    0.0000
     45 C15        1.7466    2.5689   12.7055 C.3       1 RES1    0.0000
     46 H23        1.3410    1.8873   13.2625 H         1 RES1    0.0000
     47 H24        2.7009    2.3329   12.6053 H         1 RES1    0.0000
     48 H25        1.5826    3.4917   13.1690 H         1 RES1    0.0000
@<TRIPOS>BOND
     1    1    3 1
     2    2    4 1
     3    5    2 2
     4    6    1 2
     5    7    8 1
     6    8    5 1
     7    9    1 1
     8   10    8 1
     9   11   12 1
    10   12    9 1
    11   13    2 1
    12   14   12 1
    13   15   14 1
    14   16   14 1
    15   17   14 1
    16   18    6 1
    17   19   18 1
    18   20   13 1
    19   21   20 1
    20   22   20 1
    21   23   20 1
    22   24   11 1
    23   25   10 1
    24   26   25 1
    25   27   25 1
    26   28   25 1
    27   29   10 1
    28   30   29 1
    29   31   29 1
    30   32   29 1
    31   33   12 1
    32   34   33 1
    33   35   33 1
    34   36   33 1
    35   37   13 1
    36   38   37 1
    37   39   37 1
    38   40   37 1
    39   41    9 1
    40   42   41 1
    41   43   41 1
    42   44   41 1
    43   45    9 1
    44   46   45 1
    45   47   45 1
    46   48   45 1
    47    5    6 1
    48   10   13 1
    49   11   18 2
@<TRIPOS>SUBSTRUCTURE
     1 RES1 1

@<TRIPOS>CRYSIN
  10.0384   13.7959   12.1488  90.0000  90.4080  90.0000  14 1

