# MOL2 file generated by ConQuest
# Please check atom types

@<TRIPOS>MOLECULE
XIJVIX
   150   102     3
SMALL
USER_CHARGES
****
Generated from CSD

@<TRIPOS>ATOM
      1 O1         4.0900    5.6090   11.6821 O.2       1 RES1    0.0000
      2 N1         5.2363    5.7786   12.2001 N.pl3     1 RES1    0.0000
      3 C1         5.5299    6.9749   13.0644 C.3       1 RES1    0.0000
      4 C2         5.5268    8.1711   12.1473 C.3       1 RES1    0.0000
      5 H1         4.6241    8.3373   11.8327 H         1 RES1    0.0000
      6 H2         6.1062    7.9992   11.3876 H         1 RES1    0.0000
      7 H3         5.8488    8.9501   12.6292 H         1 RES1    0.0000
      8 C3         4.4447    7.1025   14.0860 C.3       1 RES1    0.0000
      9 H4         3.6117    7.3379   13.6464 H         1 RES1    0.0000
     10 H5         4.6803    7.7956   14.7224 H         1 RES1    0.0000
     11 H6         4.3375    6.2581   14.5532 H         1 RES1    0.0000
     12 C4         6.9346    6.6205   13.6173 C.3       1 RES1    0.0000
     13 C5         7.9942    7.6592   13.5121 C.3       1 RES1    0.0000
     14 H7         8.8169    7.3211   13.9002 H         1 RES1    0.0000
     15 H8         7.7144    8.4550   13.9885 H         1 RES1    0.0000
     16 H9         8.1417    7.8759   12.5777 H         1 RES1    0.0000
     17 C6         6.8769    6.0807   15.0664 C.3       1 RES1    0.0000
     18 H10        7.7744    5.8677   15.3680 H         1 RES1    0.0000
     19 H11        6.3303    5.2793   15.0903 H         1 RES1    0.0000
     20 H12        6.4909    6.7532   15.6476 H         1 RES1    0.0000
     21 N2         7.3031    5.4500   12.7787 N.pl3     1 RES1    1.0000
     22 O2         8.4548    4.9114   12.8484 O.2       1 RES1   -1.0000
     23 C7         6.2946    4.9899   12.0468 C.2       1 RES1    0.0000
     24 C8         6.3684    3.7582   11.2237 C.2       1 RES1    0.0000
     25 N3         6.1969    3.9120    9.9643 N.2       1 RES1    0.0000
     26 C9         6.2318    2.6729    9.1505 C.3       1 RES1    0.0000
     27 C10        6.5894    3.1294    7.7364 C.3       1 RES1    0.0000
     28 H13        5.9324    3.7717    7.4274 H         1 RES1    0.0000
     29 H14        6.5966    2.3631    7.1423 H         1 RES1    0.0000
     30 H15        7.4673    3.5419    7.7419 H         1 RES1    0.0000
     31 C11        4.7945    2.1315    9.1498 C.3       1 RES1    0.0000
     32 H16        4.1947    2.8059    8.7941 H         1 RES1    0.0000
     33 H17        4.5307    1.9111   10.0577 H         1 RES1    0.0000
     34 H18        4.7489    1.3357    8.5973 H         1 RES1    0.0000
     35 C12        7.2460    1.6594    9.7062 C.3       1 RES1    0.0000
     36 C13        7.1237    0.2896    9.0442 C.3       1 RES1    0.0000
     37 H19        7.7767   -0.3157    9.4287 H         1 RES1    0.0000
     38 H20        7.2840    0.3755    8.0914 H         1 RES1    0.0000
     39 H21        6.2316   -0.0616    9.1914 H         1 RES1    0.0000
     40 C14        8.6912    2.1369    9.6341 C.3       1 RES1    0.0000
     41 H22        8.7663    3.0039   10.0614 H         1 RES1    0.0000
     42 H23        8.9617    2.2100    8.7058 H         1 RES1    0.0000
     43 H24        9.2645    1.5001   10.0890 H         1 RES1    0.0000
     44 N4         6.9616    1.4838   11.1831 N.pl3     1 RES1    1.0000
     45 O3         7.1947    0.3209   11.6955 O.2       1 RES1   -1.0000
     46 C15        6.6252    2.5096   11.9170 C.2       1 RES1    0.0000
     47 C16        6.4864    2.3463   13.3885 C.3       1 RES1    0.0000
     48 H25        6.7190    1.4366   13.6353 H         1 RES1    0.0000
     49 H26        5.5689    2.5275   13.6482 H         1 RES1    0.0000
     50 H27        7.0795    2.9665   13.8413 H         1 RES1    0.0000
     51 O4         4.9064    0.2242   16.9646 O.2       2 RES2    0.0000
     52 N5         4.9612    1.6215   17.2074 N.pl3     2 RES2    0.0000
     53 C17        5.9383    1.9297   18.1915 C.3       2 RES2    0.0000
     54 C18        7.1351    2.2324   17.2166 C.3       2 RES2    0.0000
     55 H28        7.4072    3.1571   17.3159 H         2 RES2    0.0000
     56 H29        6.8538    2.0736   16.3006 H         2 RES2    0.0000
     57 H30        7.8810    1.6514   17.4300 H         2 RES2    0.0000
     58 N6         4.6841    3.8035   17.1577 N.pl3     2 RES2    1.0000
     59 O5         4.3281    4.9467   16.7144 O.2       2 RES2   -1.0000
     60 C19        4.1533    2.7125   16.8156 C.2       2 RES2    0.0000
     61 C20        3.0755    2.0885   15.8683 C.2       2 RES2    0.0000
     62 N7         3.3294    1.7317   14.7353 N.2       2 RES2    0.0000
     63 C21        2.2710    1.5449   13.7255 C.3       2 RES2    0.0000
     64 C22        1.7986    0.1177   13.8137 C.3       2 RES2    0.0000
     65 H31        2.5521   -0.4801   13.6868 H         2 RES2    0.0000
     66 H32        1.1359   -0.0467   13.1240 H         2 RES2    0.0000
     67 H33        1.4049   -0.0411   14.6856 H         2 RES2    0.0000
     68 C23        2.9746    1.7504   12.3901 C.3       2 RES2    0.0000
     69 H34        3.6657    1.0779   12.2834 H         2 RES2    0.0000
     70 H35        3.3748    2.6322   12.3680 H         2 RES2    0.0000
     71 H36        2.3297    1.6682   11.6690 H         2 RES2    0.0000
     72 C24        1.1166    2.6116   13.9223 C.3       2 RES2    0.0000
     73 C25       -0.0537    2.3108   12.9860 C.3       2 RES2    0.0000
     74 H37        0.0815    2.7685   12.1417 H         2 RES2    0.0000
     75 H38       -0.8799    2.6172   13.3925 H         2 RES2    0.0000
     76 H39       -0.1061    1.3544   12.8297 H         2 RES2    0.0000
     77 C26        1.4910    4.1136   13.7586 C.3       2 RES2    0.0000
     78 H40        1.5579    4.3284   12.8150 H         2 RES2    0.0000
     79 H41        2.3433    4.2817   14.1890 H         2 RES2    0.0000
     80 H42        0.8068    4.6646   14.1669 H         2 RES2    0.0000
     81 N8         0.8658    1.7840   15.5207 N.pl3     2 RES2    1.0000
     82 O6        -0.2984    1.3880   15.9051 O.2       2 RES2   -1.0000
     83 C27        1.5538    2.2062   16.2417 C.2       2 RES2    0.0000
     84 C28        1.0682    2.4192   17.7371 C.3       2 RES2    0.0000
     85 H43        0.1032    2.5145   17.7537 H         2 RES2    0.0000
     86 H44        1.4782    3.2206   18.0977 H         2 RES2    0.0000
     87 H45        1.3272    1.6551   18.2742 H         2 RES2    0.0000
     88 C29        6.2765    1.1732   19.2969 C.3       2 RES2    0.0000
     89 H46        5.5232    0.8612   19.8230 H         2 RES2    0.0000
     90 H47        6.9830    1.4739   19.8892 H         2 RES2    0.0000
     91 H48        6.6059    0.4502   18.7414 H         2 RES2    0.0000
     92 C30        5.9044    4.5600   18.9658 C.3       2 RES2    0.0000
     93 H49        5.9442    5.4138   18.5042 H         2 RES2    0.0000
     94 H50        6.6923    4.4554   19.5195 H         2 RES2    0.0000
     95 H51        5.1105    4.5320   19.5232 H         2 RES2    0.0000
     96 C31        5.2272    3.3626   18.5998 C.3       2 RES2    0.0000
     97 C32        4.4216    3.2524   19.7954 C.3       2 RES2    0.0000
     98 H52        3.8462    4.0295   19.8708 H         2 RES2    0.0000
     99 H53        3.8767    2.4509   19.7457 H         2 RES2    0.0000
    100 H54        5.0002    3.2019   20.5716 H         2 RES2    0.0000
    101 O7         4.5231    0.3661   17.3564 Du        3 SUP3    0.0000
    102 N9         4.7276    1.4048   17.5422 Du        3 SUP3    0.0000
    103 C33        5.8302    2.3314   18.4104 Du        3 SUP3    0.0000
    104 C34        7.1678    3.7530   17.0768 Du        3 SUP3    0.0000
    105 H55        8.0539    4.1341   16.9793 Du        3 SUP3    0.0000
    106 H56        7.2227    2.9329   17.5900 Du        3 SUP3    0.0000
    107 H57        6.5936    4.3863   17.5385 Du        3 SUP3    0.0000
    108 C35        6.1873    4.7599   18.6587 Du        3 SUP3    0.0000
    109 H58        6.6440    4.8757   17.8107 Du        3 SUP3    0.0000
    110 H59        6.8422    4.6740   19.3687 Du        3 SUP3    0.0000
    111 H60        5.6249    5.5314   18.8297 Du        3 SUP3    0.0000
    112 N10        4.2468    3.4971   17.4778 Du        3 SUP3    0.0000
    113 O8         3.6323    4.5843   17.2423 Du        3 SUP3    0.0000
    114 C36        4.0252    2.2342   16.8855 Du        3 SUP3    0.0000
    115 C37        2.9130    2.4920   15.8665 Du        3 SUP3    0.0000
    116 N11        3.3307    2.7573   14.6286 Du        3 SUP3    0.0000
    117 C38        2.1703    2.6639   13.6721 Du        3 SUP3    0.0000
    118 C39        1.5662    3.9884   13.6813 Du        3 SUP3    0.0000
    119 H61        1.1327    4.1397   14.5348 Du        3 SUP3    0.0000
    120 H62        0.9103    4.0500   12.9695 Du        3 SUP3    0.0000
    121 H63        2.2545    4.6590   13.5452 Du        3 SUP3    0.0000
    122 C40        2.8133    2.4042   12.2944 Du        3 SUP3    0.0000
    123 H64        2.1184    2.3314   11.6212 Du        3 SUP3    0.0000
    124 H65        3.3217    1.5785   12.3238 Du        3 SUP3    0.0000
    125 H66        3.4048    3.1403   12.0682 Du        3 SUP3    0.0000
    126 C41        1.2202    1.5898   14.0694 Du        3 SUP3    0.0000
    127 C42        1.8555    0.1905   14.0437 Du        3 SUP3    0.0000
    128 H67        2.0948   -0.0392   13.1332 Du        3 SUP3    0.0000
    129 H68        1.2208   -0.4596   14.3858 Du        3 SUP3    0.0000
    130 H69        2.6516    0.1868   14.5973 Du        3 SUP3    0.0000
    131 C43       -0.1115    1.6047   13.2858 Du        3 SUP3    0.0000
    132 H70       -0.4713    2.5051   13.2785 Du        3 SUP3    0.0000
    133 H71       -0.7449    1.0069   13.7144 Du        3 SUP3    0.0000
    134 H72        0.0464    1.3095   12.3753 Du        3 SUP3    0.0000
    135 N12        0.6614    2.5238   15.3588 Du        3 SUP3    0.0000
    136 O9        -0.5605    2.7218   15.6016 Du        3 SUP3    0.0000
    137 C44        1.7750    2.3407   16.4772 Du        3 SUP3    0.0000
    138 C45        1.4948    2.3220   17.8365 Du        3 SUP3    0.0000
    139 H73        0.5381    2.2361   17.9689 Du        3 SUP3    0.0000
    140 H74        1.8053    3.1459   18.2430 Du        3 SUP3    0.0000
    141 H75        1.9470    1.5692   18.2485 Du        3 SUP3    0.0000
    142 C46        6.9347    1.3151   18.6991 Du        3 SUP3    0.0000
    143 H76        6.8161    0.3587   18.5851 Du        3 SUP3    0.0000
    144 H77        6.9975    1.5244   19.6427 Du        3 SUP3    0.0000
    145 H78        7.7497    1.5954   18.2522 Du        3 SUP3    0.0000
    146 C47        5.8572    3.6166   18.1105 Du        3 SUP3    0.0000
    147 H79        4.3563    3.0693   20.2663 Du        3 SUP3    0.0000
    148 H80        5.7902    2.4547   19.9867 Du        3 SUP3    0.0000
    149 H81        4.5865    1.5057   20.3877 Du        3 SUP3    0.0000
    150 C48        4.8352    2.3071   19.9021 Du        3 SUP3    0.0000
@<TRIPOS>BOND
     1    1    2 1
     2    2    3 1
     3    3    4 1
     4    4    5 1
     5    6    4 1
     6    7    4 1
     7    8    3 1
     8    9    8 1
     9   10    8 1
    10   11    8 1
    11   12    3 1
    12   13   12 1
    13   14   13 1
    14   15   13 1
    15   16   13 1
    16   17   12 1
    17   18   17 1
    18   19   17 1
    19   20   17 1
    20   21   12 1
    21   22   21 1
    22   23    2 1
    23   24   23 1
    24   25   24 2
    25   26   25 1
    26   27   26 1
    27   28   27 1
    28   29   27 1
    29   30   27 1
    30   31   26 1
    31   32   31 1
    32   33   31 1
    33   34   31 1
    34   35   26 1
    35   36   35 1
    36   37   36 1
    37   38   36 1
    38   39   36 1
    39   40   35 1
    40   41   40 1
    41   42   40 1
    42   43   40 1
    43   44   35 1
    44   45   44 1
    45   46   24 1
    46   47   46 1
    47   48   47 1
    48   49   47 1
    49   50   47 1
    50   51   52 1
    51   52   53 1
    52   53   54 1
    53   54   55 1
    54   56   54 1
    55   57   54 1
    56   58   59 1
    57   60   52 1
    58   61   60 1
    59   62   61 2
    60   63   62 1
    61   64   63 1
    62   65   64 1
    63   66   64 1
    64   67   64 1
    65   68   63 1
    66   69   68 1
    67   70   68 1
    68   71   68 1
    69   72   63 1
    70   73   72 1
    71   74   73 1
    72   75   73 1
    73   76   73 1
    74   77   72 1
    75   78   77 1
    76   79   77 1
    77   80   77 1
    78   81   72 1
    79   82   81 1
    80   83   61 1
    81   84   83 1
    82   85   84 1
    83   86   84 1
    84   87   84 1
    85   88   53 1
    86   89   88 1
    87   90   88 1
    88   91   88 1
    89   92   93 1
    90   94   92 1
    91   95   92 1
    92   96   53 1
    93   97   96 1
    94   98   97 1
    95   99   97 1
    96  100   97 1
    97   21   23 2
    98   44   46 2
    99   58   60 2
   100   58   96 1
   101   81   83 2
   102   92   96 1
@<TRIPOS>SUBSTRUCTURE
     1 RES1 1
     2 RES2 51
     3 SUP3 101

@<TRIPOS>CRYSIN
  10.2963   18.6810   18.4520  90.0000  94.5520  90.0000 231 1

