# MOL2 file generated by ConQuest
# Please check atom types

@<TRIPOS>MOLECULE
XIJWUK
    38    41     1
SMALL
NO_CHARGES
****
Generated from CSD

@<TRIPOS>ATOM
      1 N1         1.4132    3.4230    3.1658 N.ar      1 RES1    0.0000
      2 C1         3.3468    3.8615    1.8503 C.ar      1 RES1    0.0000
      3 C2         3.0976    2.7365    1.0953 C.ar      1 RES1    0.0000
      4 C3         1.1884    2.3032    2.4464 C.ar      1 RES1    0.0000
      5 O1         5.0932    3.2393   -0.1607 O.3       1 RES1    0.0000
      6 C4         0.0165    1.4911    2.8457 C.ar      1 RES1    0.0000
      7 C5         2.4603    4.1968    2.8817 C.ar      1 RES1    0.0000
      8 C6         2.0093    1.9420    1.3783 C.ar      1 RES1    0.0000
      9 H1         1.8266    1.1848    0.8706 H         1 RES1    0.0000
     10 N2         5.3715    4.3869    0.6551 N.2       1 RES1    0.0000
     11 C7         4.5255    4.6510    1.5863 C.2       1 RES1    0.0000
     12 C8         2.6999    5.4131    3.7060 C.3       1 RES1    0.0000
     13 H2         3.1450    5.1494    4.5271 H         1 RES1    0.0000
     14 H3         1.8440    5.8003    3.9471 H         1 RES1    0.0000
     15 C9         4.8178    5.8118    2.4716 C.3       1 RES1    0.0000
     16 H4         5.3344    6.4661    1.9757 H         1 RES1    0.0000
     17 H5         5.3586    5.5113    3.2192 H         1 RES1    0.0000
     18 C10        4.0261    2.4123    0.0024 C.2       1 RES1    0.0000
     19 C11       -1.9687    1.2438    4.1869 C.ar      1 RES1    0.0000
     20 H6        -2.5427    1.5780    4.8377 H         1 RES1    0.0000
     21 O2         3.9137    1.4905   -0.7580 O.2       1 RES1    0.0000
     22 C12       -0.8578    1.9647    3.8132 C.ar      1 RES1    0.0000
     23 H7        -0.6892    2.7856    4.2176 H         1 RES1    0.0000
     24 C13        3.5445    6.4834    3.0116 C.3       1 RES1    0.0000
     25 C14       -2.2273    0.0369    3.6003 C.ar      1 RES1    0.0000
     26 H8        -2.9842   -0.4463    3.8425 H         1 RES1    0.0000
     27 C15       -0.2575    0.2578    2.2821 C.ar      1 RES1    0.0000
     28 H9         0.3181   -0.0931    1.6418 H         1 RES1    0.0000
     29 C16        3.9355    7.5656    4.0071 C.3       1 RES1    0.0000
     30 H10        4.4159    7.1701    4.7374 H         1 RES1    0.0000
     31 H11        3.1440    7.9951    4.3401 H         1 RES1    0.0000
     32 H12        4.4923    8.2144    3.5720 H         1 RES1    0.0000
     33 C17       -1.3755   -0.4580    2.6598 C.ar      1 RES1    0.0000
     34 H13       -1.5478   -1.2848    2.2694 H         1 RES1    0.0000
     35 C18        2.7564    7.1108    1.8580 C.3       1 RES1    0.0000
     36 H14        1.9606    7.5232    2.2007 H         1 RES1    0.0000
     37 H15        2.5164    6.4288    1.2266 H         1 RES1    0.0000
     38 H16        3.2985    7.7736    1.4231 H         1 RES1    0.0000
@<TRIPOS>BOND
     1    1    4 ar
     2    2    3 ar
     3    3    8 ar
     4    4    6 1
     5    5   10 1
     6    6   22 ar
     7    7    1 ar
     8    8    4 ar
     9    9    8 1
    10   10   11 2
    11   11    2 1
    12   12    7 1
    13   13   12 1
    14   14   12 1
    15   15   11 1
    16   16   15 1
    17   17   15 1
    18   18    3 1
    19   19   20 1
    20   21   18 2
    21   22   19 ar
    22   23   22 1
    23   24   12 1
    24   25   19 ar
    25   26   25 1
    26   27    6 ar
    27   28   27 1
    28   29   24 1
    29   30   29 1
    30   31   29 1
    31   32   29 1
    32   33   25 ar
    33   34   33 1
    34   35   24 1
    35   36   35 1
    36   37   35 1
    37   38   35 1
    38    2    7 ar
    39    5   18 1
    40   15   24 1
    41   27   33 ar
@<TRIPOS>SUBSTRUCTURE
     1 RES1 1

@<TRIPOS>CRYSIN
   6.0405   11.8451   12.0501 117.8380  93.8030  95.9080   2 1

