# MOL2 file generated by ConQuest
# Please check atom types

@<TRIPOS>MOLECULE
XIJWAQ
    47    48     1
SMALL
USER_CHARGES
****
Generated from CSD

@<TRIPOS>ATOM
      1 O1         6.2320    3.3003   14.3650 O.2       1 RES1   -1.0000
      2 N1         6.6384    3.1068   13.1796 N.pl3     1 RES1    1.0000
      3 C1         6.9344    4.2558   12.2634 C.3       1 RES1    0.0000
      4 C2         8.1657    4.9248   12.8276 C.3       1 RES1    0.0000
      5 H1         7.9395    5.3734   13.6560 H         1 RES1    0.0000
      6 H2         8.5022    5.5748   12.1890 H         1 RES1    0.0000
      7 H3         8.8479    4.2569   12.9975 H         1 RES1    0.0000
      8 C3         5.7691    5.2280   12.2939 C.3       1 RES1    0.0000
      9 H4         5.7151    5.6408   13.1701 H         1 RES1    0.0000
     10 H5         4.9442    4.7503   12.1120 H         1 RES1    0.0000
     11 H6         5.9011    5.9138   11.6208 H         1 RES1    0.0000
     12 C4         7.1504    3.5140   10.9211 C.3       1 RES1    0.0000
     13 C5         8.3847    3.9414   10.1498 C.3       1 RES1    0.0000
     14 H7         8.4425    3.4335    9.3253 H         1 RES1    0.0000
     15 H8         9.1746    3.7769   10.6875 H         1 RES1    0.0000
     16 H9         8.3251    4.8879    9.9440 H         1 RES1    0.0000
     17 C6         5.9341    3.4872   10.0157 C.3       1 RES1    0.0000
     18 H10        6.1512    3.0151    9.1965 H         1 RES1    0.0000
     19 H11        5.6687    4.3956    9.8046 H         1 RES1    0.0000
     20 H12        5.2056    3.0330   10.4671 H         1 RES1    0.0000
     21 N2         7.3513    2.1044   11.3967 N.pl3     1 RES1    0.0000
     22 O2         7.7458    1.1892   10.5925 O.2       1 RES1    0.0000
     23 C7         6.9670    1.9287   12.6510 C.2       1 RES1    0.0000
     24 C8         6.9235    0.6276   13.3507 C.2       1 RES1    0.0000
     25 C9         8.0242   -0.2741   13.1276 C.2       1 RES1    0.0000
     26 H13        8.6424   -0.1063   12.4399 H         1 RES1    0.0000
     27 N3         8.1553   -1.3235   13.8831 N.pl3     1 RES1    1.0000
     28 O3         9.1071   -2.1648   13.7450 O.2       1 RES1   -1.0000
     29 C10        7.2573   -1.4533   15.0992 C.3       1 RES1    0.0000
     30 C11        7.2617   -2.9065   15.5493 C.3       1 RES1    0.0000
     31 H14        6.8566   -3.4592   14.8629 H         1 RES1    0.0000
     32 H15        6.7560   -2.9916   16.3724 H         1 RES1    0.0000
     33 H16        8.1756   -3.1952   15.6993 H         1 RES1    0.0000
     34 C12        7.8756   -0.5392   16.1985 C.3       1 RES1    0.0000
     35 H17        8.7546   -0.8715   16.4374 H         1 RES1    0.0000
     36 H18        7.3034   -0.5437   16.9818 H         1 RES1    0.0000
     37 H19        7.9528    0.3658   15.8586 H         1 RES1    0.0000
     38 C13        5.8648   -0.9733   14.7009 C.3       1 RES1    0.0000
     39 C14        5.2249   -1.9433   13.6667 C.3       1 RES1    0.0000
     40 H20        5.8191   -2.0440   12.9073 H         1 RES1    0.0000
     41 H21        4.3748   -1.5819   13.3679 H         1 RES1    0.0000
     42 H22        5.0793   -2.8081   14.0822 H         1 RES1    0.0000
     43 C15        4.9472   -0.7977   15.9197 C.3       1 RES1    0.0000
     44 H23        5.3654   -0.1980   16.5556 H         1 RES1    0.0000
     45 H24        4.7968   -1.6602   16.3379 H         1 RES1    0.0000
     46 H25        4.0978   -0.4251   15.6342 H         1 RES1    0.0000
     47 N4         5.9061    0.3725   14.0650 N.2       1 RES1    0.0000
@<TRIPOS>BOND
     1    1    2 1
     2    2    3 1
     3    3    4 1
     4    4    5 1
     5    6    4 1
     6    7    4 1
     7    8    3 1
     8    9    8 1
     9   10    8 1
    10   11    8 1
    11   12    3 1
    12   13   12 1
    13   14   13 1
    14   15   13 1
    15   16   13 1
    16   17   12 1
    17   18   17 1
    18   19   17 1
    19   20   17 1
    20   21   12 1
    21   22   21 1
    22   23    2 2
    23   24   23 1
    24   25   24 1
    25   26   25 1
    26   27   25 2
    27   28   27 1
    28   29   27 1
    29   30   29 1
    30   31   30 1
    31   32   30 1
    32   33   30 1
    33   34   29 1
    34   35   34 1
    35   36   34 1
    36   37   34 1
    37   38   29 1
    38   39   38 1
    39   40   39 1
    40   41   39 1
    41   42   39 1
    42   43   38 1
    43   44   43 1
    44   45   43 1
    45   46   43 1
    46   47   24 2
    47   21   23 1
    48   38   47 1
@<TRIPOS>SUBSTRUCTURE
     1 RES1 1

@<TRIPOS>CRYSIN
  11.3433   11.1876   13.3776  90.0000  97.0540  90.0000 231 1

