# MOL2 file generated by ConQuest
# Please check atom types

@<TRIPOS>MOLECULE
XIKBOK
    53    50     2
SMALL
NO_CHARGES
****
Generated from CSD

@<TRIPOS>ATOM
      1 C1         2.2811    3.8285   11.9016 C.ar      1 RES1    0.0000
      2 C2         1.6315    2.6196   11.7482 C.ar      1 RES1    0.0000
      3 H1         0.9850    2.5082   11.0893 H         1 RES1    0.0000
      4 C3         1.9597    1.5779   12.5919 C.ar      1 RES1    0.0000
      5 H2         1.5223    0.7604   12.5190 H         1 RES1    0.0000
      6 C4         2.9311    1.7576   13.5346 C.ar      1 RES1    0.0000
      7 H3         3.1629    1.0543   14.0960 H         1 RES1    0.0000
      8 C5         3.5708    2.9692   13.6613 C.ar      1 RES1    0.0000
      9 H4         4.2218    3.0639   14.3180 H         1 RES1    0.0000
     10 C6         3.2828    4.0579   12.8454 C.ar      1 RES1    0.0000
     11 C7         4.0843    5.3620   12.8773 C.3       1 RES1    0.0000
     12 H5         3.4400    6.0804   13.0464 H         1 RES1    0.0000
     13 C8         5.0871    5.4000   14.0236 C.2       1 RES1    0.0000
     14 C9         4.5964    5.9342   15.3105 C.2       1 RES1    0.0000
     15 C10        5.4543    5.6738   16.5540 C.3       1 RES1    0.0000
     16 H6         5.3355    4.7602   16.8577 H         1 RES1    0.0000
     17 H7         5.1938    6.2726   17.2715 H         1 RES1    0.0000
     18 C11        6.9328    5.9189   16.1668 C.3       1 RES1    0.0000
     19 H8         7.0465    6.8422   15.8916 H         1 RES1    0.0000
     20 H9         7.5000    5.7615   16.9376 H         1 RES1    0.0000
     21 C12        7.3499    4.9969   15.0338 C.3       1 RES1    0.0000
     22 H10        7.9345    5.7671   14.9645 H         1 RES1    0.0000
     23 H11        7.8951    4.1961   14.9751 H         1 RES1    0.0000
     24 C13        6.3510    5.0109   13.9195 C.2       1 RES1    0.0000
     25 H12        6.6399    4.7212   13.0837 H         1 RES1    0.0000
     26 C14        4.6881    5.6390   11.5217 C.2       1 RES1    0.0000
     27 C15        4.6720    6.8645   10.9067 C.2       1 RES1    0.0000
     28 C16        4.0901    8.1583   11.3450 C.3       1 RES1    0.0000
     29 H13        4.2579    8.8268   10.6773 H         1 RES1    0.0000
     30 H14        4.4926    8.4257   12.1744 H         1 RES1    0.0000
     31 H15        3.1433    8.0580   11.4658 H         1 RES1    0.0000
     32 C17        5.6345    5.4509    9.4552 C.ar      1 RES1    0.0000
     33 C18        6.2045    4.8800    8.3335 C.ar      1 RES1    0.0000
     34 H16        6.4205    5.3925    7.5870 H         1 RES1    0.0000
     35 C19        6.4386    3.5346    8.3615 C.ar      1 RES1    0.0000
     36 H17        6.8077    3.1210    7.6154 H         1 RES1    0.0000
     37 C20        6.1341    2.7686    9.4856 C.ar      1 RES1    0.0000
     38 H18        6.3177    1.8578    9.4820 H         1 RES1    0.0000
     39 C21        5.5663    3.3424   10.6043 C.ar      1 RES1    0.0000
     40 H19        5.3674    2.8216   11.3486 H         1 RES1    0.0000
     41 C22        5.2909    4.7198   10.6069 C.ar      1 RES1    0.0000
     42 N1         1.8730    4.8981   10.9873 N.pl3     1 RES1    0.0000
     43 N2         5.2570    6.7461    9.6720 N.pl3     1 RES1    0.0000
     44 H20        5.3691    7.3923    9.1162 H         1 RES1    0.0000
     45 O1         1.8917    4.6623    9.7942 O.2       1 RES1    0.0000
     46 O2         1.5042    5.9639   11.4628 O.2       1 RES1    0.0000
     47 O3         3.4675    6.3813   15.4358 O.2       1 RES1    0.0000
     48 C23        5.6917    6.2086   16.3462 Du        2 SUP2    0.0000
     49 H21        6.2032    6.9913   16.0905 Du        2 SUP2    0.0000
     50 H22        5.2934    6.3757   17.2147 Du        2 SUP2    0.0000
     51 C24        6.5746    5.0304   16.4155 Du        2 SUP2    0.0000
     52 H23        6.0549    4.2212   16.5362 Du        2 SUP2    0.0000
     53 H24        7.1980    5.1139   17.1543 Du        2 SUP2    0.0000
@<TRIPOS>BOND
     1    1    2 ar
     2    2    3 1
     3    4    2 ar
     4    5    4 1
     5    6    4 ar
     6    7    6 1
     7    8    6 ar
     8    9    8 1
     9   10    1 ar
    10   11   10 1
    11   12   11 1
    12   13   11 1
    13   14   13 1
    14   15   14 1
    15   16   15 1
    16   17   15 1
    17   18   15 1
    18   19   18 1
    19   20   18 1
    20   21   18 1
    21   22   21 1
    22   23   21 1
    23   24   13 2
    24   25   24 1
    25   26   11 1
    26   27   26 2
    27   28   27 1
    28   29   28 1
    29   30   28 1
    30   31   28 1
    31   32   33 ar
    32   33   34 1
    33   35   33 ar
    34   36   35 1
    35   37   35 ar
    36   38   37 1
    37   39   37 ar
    38   40   39 1
    39   41   26 1
    40   42    1 1
    41   43   27 1
    42   44   43 1
    43   45   42 2
    44   46   42 2
    45   47   14 2
    46    8   10 ar
    47   21   24 1
    48   32   41 ar
    49   32   43 1
    50   39   41 ar
@<TRIPOS>SUBSTRUCTURE
     1 RES1 1
     2 SUP2 48

@<TRIPOS>CRYSIN
   7.4004   13.9268   17.7637  90.0000  91.1850  90.0000 231 1

