# MOL2 file generated by ConQuest
# Please check atom types

@<TRIPOS>MOLECULE
XIKHEH
    22    22     1
SMALL
NO_CHARGES
****
Generated from CSD

@<TRIPOS>ATOM
      1 O1        -1.2529    1.1660    5.3408 O.3       1 RES1    0.0000
      2 O2        -1.1524   -4.4545    8.0638 O.2       1 RES1    0.0000
      3 O3         0.5737   -5.7465    8.2973 O.2       1 RES1    0.0000
      4 O4         1.2952    0.5631    5.2293 O.2       1 RES1    0.0000
      5 O5        -1.7640   -1.0255    5.3356 O.2       1 RES1    0.0000
      6 C1        -2.6589    1.4837    5.1328 C.3       1 RES1    0.0000
      7 H1        -3.0074    0.9507    4.3880 H         1 RES1    0.0000
      8 H2        -2.7513    2.4368    4.9235 H         1 RES1    0.0000
      9 H3        -3.1641    1.2777    5.9472 H         1 RES1    0.0000
     10 C2        -0.9700   -0.1241    5.4239 C.2       1 RES1    0.0000
     11 C3         0.5546   -0.3261    5.5755 C.2       1 RES1    0.0000
     12 C4         1.0662   -1.6342    6.0818 C.ar      1 RES1    0.0000
     13 C5         0.2652   -2.5746    6.7270 C.ar      1 RES1    0.0000
     14 H4        -0.6622   -2.4180    6.8622 H         1 RES1    0.0000
     15 C6         0.8643   -3.7458    7.1658 C.ar      1 RES1    0.0000
     16 N1         0.0315   -4.7215    7.8900 N.pl3     1 RES1    0.0000
     17 C7         2.4359   -1.8828    5.9147 C.ar      1 RES1    0.0000
     18 H5         2.9838   -1.2336    5.4904 H         1 RES1    0.0000
     19 C8         2.9961   -3.0671    6.3637 C.ar      1 RES1    0.0000
     20 H6         3.9244   -3.2262    6.2397 H         1 RES1    0.0000
     21 C9         2.2114   -4.0237    6.9936 C.ar      1 RES1    0.0000
     22 H7         2.5855   -4.8422    7.2966 H         1 RES1    0.0000
@<TRIPOS>BOND
     1    1    6 1
     2    2   16 2
     3    3   16 2
     4    4   11 2
     5    5   10 2
     6    6    7 1
     7    8    6 1
     8    9    6 1
     9   10    1 1
    10   11   10 1
    11   12   11 1
    12   13   12 ar
    13   14   13 1
    14   15   13 ar
    15   16   15 1
    16   17   12 ar
    17   18   17 1
    18   19   17 ar
    19   20   19 1
    20   21   15 ar
    21   22   21 1
    22   19   21 ar
@<TRIPOS>SUBSTRUCTURE
     1 RES1 1

@<TRIPOS>CRYSIN
   7.2306    7.3257    8.8664 106.5730 100.8590  94.5010   2 1

