# MOL2 file generated by ConQuest
# Please check atom types

@<TRIPOS>MOLECULE
XIKMOW
    57    61     1
SMALL
NO_CHARGES
****
Generated from CSD

@<TRIPOS>ATOM
      1 N1         3.2824    1.3701    4.3726 N.am      1 RES1    0.0000
      2 O1         4.5608    0.1563    5.8413 O.2       1 RES1    0.0000
      3 O2         2.1739    2.9685    3.1580 O.2       1 RES1    0.0000
      4 O3         2.4765    0.2974    3.9963 O.3       1 RES1    0.0000
      5 O4         5.7962   -1.0658    0.9087 O.3       1 RES1    0.0000
      6 O5         4.2589   -2.5950    1.4995 O.2       1 RES1    0.0000
      7 O6         1.4559   -2.0383    2.2279 O.3       1 RES1    0.0000
      8 O7         2.4538   -2.6322    4.1671 O.2       1 RES1    0.0000
      9 C1         2.9849    2.6747    3.9941 C.2       1 RES1    0.0000
     10 C2         3.8824    3.5590    4.8265 C.3       1 RES1    0.0000
     11 H1         3.3244    4.1880    5.3666 H         1 RES1    0.0000
     12 C3         4.6556    2.6103    5.7723 C.3       1 RES1    0.0000
     13 H2         4.4094    2.8043    6.7232 H         1 RES1    0.0000
     14 C4         4.2088    1.2217    5.4037 C.2       1 RES1    0.0000
     15 C5         4.9017    4.3730    3.9651 C.3       1 RES1    0.0000
     16 H3         4.4468    4.9968    3.3305 H         1 RES1    0.0000
     17 C6         5.7785    3.3666    3.2519 C.ar      1 RES1    0.0000
     18 C7         6.4766    2.5147    4.1149 C.ar      1 RES1    0.0000
     19 C8         6.1951    2.7887    5.5768 C.3       1 RES1    0.0000
     20 H4         6.7251    2.1944    6.1817 H         1 RES1    0.0000
     21 C9         5.7581    5.1085    4.9784 C.ar      1 RES1    0.0000
     22 C10        6.4622    4.2573    5.8381 C.ar      1 RES1    0.0000
     23 C11        5.9162    3.2268    1.8745 C.ar      1 RES1    0.0000
     24 H5         5.4403    3.7983    1.2834 H         1 RES1    0.0000
     25 C12        6.7587    2.2395    1.3725 C.ar      1 RES1    0.0000
     26 H6         6.8632    2.1419    0.4332 H         1 RES1    0.0000
     27 C13        7.4452    1.3993    2.2292 C.ar      1 RES1    0.0000
     28 H7         8.0217    0.7333    1.8737 H         1 RES1    0.0000
     29 C14        7.2994    1.5200    3.6091 C.ar      1 RES1    0.0000
     30 H8         7.7576    0.9286    4.1942 H         1 RES1    0.0000
     31 C15        5.8564    6.4817    5.1235 C.ar      1 RES1    0.0000
     32 H9         5.3754    7.0604    4.5435 H         1 RES1    0.0000
     33 C16        6.6659    7.0069    6.1248 C.ar      1 RES1    0.0000
     34 H10        6.7416    7.9485    6.2250 H         1 RES1    0.0000
     35 C17        7.3644    6.1635    6.9791 C.ar      1 RES1    0.0000
     36 H11        7.9142    6.5316    7.6601 H         1 RES1    0.0000
     37 C18        7.2623    4.7814    6.8418 C.ar      1 RES1    0.0000
     38 H12        7.7357    4.2036    7.4299 H         1 RES1    0.0000
     39 C19        3.0773   -0.5958    3.1347 C.2       1 RES1    0.0000
     40 C20        4.1743   -0.3964    2.4166 C.2       1 RES1    0.0000
     41 H13        4.6131    0.4459    2.4450 H         1 RES1    0.0000
     42 C21        4.7130   -1.4768    1.5756 C.2       1 RES1    0.0000
     43 C22        6.4442   -2.0549    0.0625 C.3       1 RES1    0.0000
     44 H14        5.8761   -2.2607   -0.7230 H         1 RES1    0.0000
     45 H15        6.5974   -2.8918    0.5686 H         1 RES1    0.0000
     46 C23        7.7558   -1.4666   -0.3826 C.3       1 RES1    0.0000
     47 H16        8.2241   -2.1087   -0.9558 H         1 RES1    0.0000
     48 H17        8.3069   -1.2658    0.4034 H         1 RES1    0.0000
     49 H18        7.5900   -0.6412   -0.8854 H         1 RES1    0.0000
     50 C24        2.3004   -1.8882    3.2403 C.2       1 RES1    0.0000
     51 C25        0.7546   -3.3260    2.1821 C.3       1 RES1    0.0000
     52 H19        1.3650   -4.0461    2.4802 H         1 RES1    0.0000
     53 H20        0.4798   -3.5201    1.2510 H         1 RES1    0.0000
     54 C26       -0.4421   -3.2981    3.0578 C.3       1 RES1    0.0000
     55 H21       -0.8940   -4.1668    3.0218 H         1 RES1    0.0000
     56 H22       -1.0546   -2.5970    2.7510 H         1 RES1    0.0000
     57 H23       -0.1675   -3.1110    3.9803 H         1 RES1    0.0000
@<TRIPOS>BOND
     1    1    4 1
     2    2   14 2
     3    3    9 2
     4    4   39 1
     5    5   42 1
     6    6   42 2
     7    7   50 1
     8    8   50 2
     9    9    1 1
    10   10    9 1
    11   11   10 1
    12   12   10 1
    13   13   12 1
    14   14    1 1
    15   15   10 1
    16   16   15 1
    17   17   15 1
    18   18   17 ar
    19   19   12 1
    20   20   19 1
    21   21   15 1
    22   22   19 1
    23   23   17 ar
    24   24   23 1
    25   25   23 ar
    26   26   25 1
    27   27   25 ar
    28   28   27 1
    29   29   18 ar
    30   30   29 1
    31   31   21 ar
    32   32   31 1
    33   33   31 ar
    34   34   33 1
    35   35   33 ar
    36   36   35 1
    37   37   22 ar
    38   38   37 1
    39   39   40 2
    40   40   41 1
    41   42   40 1
    42   43    5 1
    43   44   43 1
    44   45   43 1
    45   46   43 1
    46   47   46 1
    47   48   46 1
    48   49   46 1
    49   50   39 1
    50   51    7 1
    51   52   51 1
    52   53   51 1
    53   54   51 1
    54   55   54 1
    55   56   54 1
    56   57   54 1
    57   12   14 1
    58   18   19 1
    59   21   22 ar
    60   27   29 ar
    61   35   37 ar
@<TRIPOS>SUBSTRUCTURE
     1 RES1 1

@<TRIPOS>CRYSIN
   9.1335    9.2125   27.1668  90.0000  94.6623  90.0000  14 1

