# MOL2 file generated by ConQuest
# Please check atom types

@<TRIPOS>MOLECULE
XIKQEP
    54    56     1
SMALL
NO_CHARGES
****
Generated from CSD

@<TRIPOS>ATOM
      1 O1        -5.0770   -9.7074   -3.6157 O.2       1 RES1    0.0000
      2 O2        -3.2539  -14.2812   -8.2518 O.3       1 RES1    0.0000
      3 O3        -6.8748  -13.4787   -6.5672 O.2       1 RES1    0.0000
      4 O4        -7.3722  -15.4057   -7.2673 O.2       1 RES1    0.0000
      5 O5        -7.4636  -10.2637   -7.0165 O.2       1 RES1    0.0000
      6 O6        -7.3965  -10.3902   -4.7642 O.3       1 RES1    0.0000
      7 N1        -1.0298   -9.9468  -13.5902 N.1       1 RES1    0.0000
      8 N2        -3.5975  -15.5338   -8.7946 N.2       1 RES1    0.0000
      9 N3        -6.5847  -14.4869   -7.1446 N.pl3     1 RES1    0.0000
     10 N4        -5.5023  -10.0833   -5.8800 N.am      1 RES1    0.0000
     11 C1        -4.4560  -10.5807  -10.3001 C.ar      1 RES1    0.0000
     12 H1        -5.3680  -10.4003  -10.2654 H         1 RES1    0.0000
     13 C2        -3.7902  -10.3075  -11.4312 C.ar      1 RES1    0.0000
     14 H2        -4.2428   -9.9619  -12.1661 H         1 RES1    0.0000
     15 C3        -2.4188  -10.5419  -11.5017 C.ar      1 RES1    0.0000
     16 C4        -1.7627  -11.0949  -10.4076 C.ar      1 RES1    0.0000
     17 H3        -0.8497  -11.2702  -10.4499 H         1 RES1    0.0000
     18 C5        -2.4752  -11.3815   -9.2559 C.ar      1 RES1    0.0000
     19 H4        -2.0294  -11.7524   -8.5286 H         1 RES1    0.0000
     20 C6        -3.8321  -11.1319   -9.1582 C.ar      1 RES1    0.0000
     21 C7        -4.6439  -11.3309   -7.8947 C.3       1 RES1    0.0000
     22 H5        -5.5559  -11.5517   -8.1704 H         1 RES1    0.0000
     23 C8        -4.7100   -9.9923   -7.1088 C.3       1 RES1    0.0000
     24 H6        -5.0994   -9.3044   -7.6874 H         1 RES1    0.0000
     25 C9        -3.3882   -9.5169   -6.6182 C.2       1 RES1    0.0000
     26 H7        -2.6592   -9.3264   -7.1609 H         1 RES1    0.0000
     27 C10       -3.4019   -9.3988   -5.2819 C.2       1 RES1    0.0000
     28 H8        -2.6748   -9.1342   -4.7663 H         1 RES1    0.0000
     29 C11       -4.7139   -9.7428   -4.7479 C.2       1 RES1    0.0000
     30 C12       -4.1591  -12.4672   -6.9861 C.3       1 RES1    0.0000
     31 H9        -3.2267  -12.3188   -6.7636 H         1 RES1    0.0000
     32 H10       -4.6672  -12.4503   -6.1601 H         1 RES1    0.0000
     33 C13       -4.2983  -13.7839   -7.6038 C.2       1 RES1    0.0000
     34 C14       -5.3252  -14.6555   -7.7037 C.2       1 RES1    0.0000
     35 C15       -4.8259  -15.7732   -8.5134 C.2       1 RES1    0.0000
     36 C16       -5.4800  -17.0477   -8.9313 C.3       1 RES1    0.0000
     37 H11       -5.3544  -17.1776   -9.8746 H         1 RES1    0.0000
     38 H12       -6.4173  -17.0056   -8.7349 H         1 RES1    0.0000
     39 H13       -5.0838  -17.7811   -8.4548 H         1 RES1    0.0000
     40 C17       -1.6751  -10.2081  -12.6730 C.1       1 RES1    0.0000
     41 C18       -6.8816  -10.2536   -5.9593 C.2       1 RES1    0.0000
     42 C19       -8.8760  -10.4879   -4.5460 C.3       1 RES1    0.0000
     43 C20       -9.3724  -11.7422   -5.2440 C.3       1 RES1    0.0000
     44 H14       -9.0006  -11.7861   -6.1275 H         1 RES1    0.0000
     45 H15      -10.3321  -11.7186   -5.3004 H         1 RES1    0.0000
     46 H16       -9.1008  -12.5161   -4.7435 H         1 RES1    0.0000
     47 C21       -9.5680   -9.2555   -5.0746 C.3       1 RES1    0.0000
     48 H17       -9.1962   -8.4767   -4.6556 H         1 RES1    0.0000
     49 H18      -10.5054   -9.3078   -4.8803 H         1 RES1    0.0000
     50 H19       -9.4386   -9.1999   -6.0244 H         1 RES1    0.0000
     51 C22       -8.9899  -10.5469   -3.0480 C.3       1 RES1    0.0000
     52 H20       -8.2988  -11.1134   -2.6963 H         1 RES1    0.0000
     53 H21       -9.8484  -10.9043   -2.8060 H         1 RES1    0.0000
     54 H22       -8.8964   -9.6635   -2.6844 H         1 RES1    0.0000
@<TRIPOS>BOND
     1    1   29 2
     2    2    8 1
     3    3    9 2
     4    4    9 2
     5    5   41 2
     6    6   41 1
     7    7   40 3
     8    8   35 2
     9    9   34 1
    10   10   23 1
    11   11   12 1
    12   13   11 ar
    13   14   13 1
    14   15   13 ar
    15   16   15 ar
    16   17   16 1
    17   18   16 ar
    18   19   18 1
    19   20   11 ar
    20   21   20 1
    21   22   21 1
    22   23   21 1
    23   24   23 1
    24   25   23 1
    25   26   25 1
    26   27   25 2
    27   28   27 1
    28   29   10 1
    29   30   21 1
    30   31   30 1
    31   32   30 1
    32   33    2 1
    33   34   33 2
    34   35   34 1
    35   36   35 1
    36   37   36 1
    37   38   36 1
    38   39   36 1
    39   40   15 1
    40   41   10 1
    41   42    6 1
    42   43   42 1
    43   44   43 1
    44   45   43 1
    45   46   43 1
    46   47   42 1
    47   48   47 1
    48   49   47 1
    49   50   47 1
    50   51   42 1
    51   52   51 1
    52   53   51 1
    53   54   51 1
    54   18   20 ar
    55   27   29 1
    56   30   33 1
@<TRIPOS>SUBSTRUCTURE
     1 RES1 1

@<TRIPOS>CRYSIN
  19.4670   19.4670   10.8548  90.0000  90.0000 120.0000 170 1

