# MOL2 file generated by ConQuest
# Please check atom types

@<TRIPOS>MOLECULE
XILGUX
    47    49     1
SMALL
NO_CHARGES
****
Generated from CSD

@<TRIPOS>ATOM
      1 C1         5.2392    5.1691   13.0342 C.2       1 RES1    0.0000
      2 C2         5.0516    3.3456   11.7403 C.2       1 RES1    0.0000
      3 C3         4.4217    4.0399   12.7558 C.2       1 RES1    0.0000
      4 C4         5.0693    0.8643   12.0387 C.3       1 RES1    0.0000
      5 H1         4.8662    0.0354   11.5992 H         1 RES1    0.0000
      6 H2         4.5481    0.9370   12.8416 H         1 RES1    0.0000
      7 H3         6.0031    0.8888   12.2599 H         1 RES1    0.0000
      8 C5         4.7345    2.0342   11.1040 C.3       1 RES1    0.0000
      9 H4         5.2418    1.9446   10.2821 H         1 RES1    0.0000
     10 H5         3.7914    2.0059   10.8785 H         1 RES1    0.0000
     11 C6         8.1908    2.9239   11.0432 C.ar      1 RES1    0.0000
     12 C7         8.3345    2.6591   12.4280 C.ar      1 RES1    0.0000
     13 H6         7.7156    3.0148   13.0240 H         1 RES1    0.0000
     14 C8         9.3613    1.8932   12.9096 C.ar      1 RES1    0.0000
     15 H7         9.4366    1.7342   13.8229 H         1 RES1    0.0000
     16 C9        10.2956    1.3512   12.0243 C.ar      1 RES1    0.0000
     17 C10       10.1960    1.5561   10.6655 C.ar      1 RES1    0.0000
     18 H8        10.8169    1.1830   10.0824 H         1 RES1    0.0000
     19 C11        9.1508    2.3301   10.1860 C.ar      1 RES1    0.0000
     20 C12        5.0113    6.2641   14.0009 C.ar      1 RES1    0.0000
     21 C13        3.1880    3.5404   13.3970 C.2       1 RES1    0.0000
     22 C14        2.0523    3.1492   15.4139 C.3       1 RES1    0.0000
     23 H9         1.8410    2.2519   15.1461 H         1 RES1    0.0000
     24 H10        1.3224    3.7307   15.1885 H         1 RES1    0.0000
     25 H11        2.1998    3.1738   16.3622 H         1 RES1    0.0000
     26 C15        3.7159    6.6217   14.3881 C.ar      1 RES1    0.0000
     27 H12        2.9832    6.1894   14.0122 H         1 RES1    0.0000
     28 C16        3.5212    7.6223   15.3342 C.ar      1 RES1    0.0000
     29 H13        2.6575    7.8502   15.5934 H         1 RES1    0.0000
     30 C17        4.6030    8.2824   15.8936 C.ar      1 RES1    0.0000
     31 H14        4.4679    8.9390   16.5384 H         1 RES1    0.0000
     32 C18        5.8957    7.9568   15.4847 C.ar      1 RES1    0.0000
     33 H15        6.6243    8.4095   15.8441 H         1 RES1    0.0000
     34 C19        6.0971    6.9573   14.5413 C.ar      1 RES1    0.0000
     35 H16        6.9608    6.7481   14.2675 H         1 RES1    0.0000
     36 N1         6.3150    5.1868   12.2417 N.2       1 RES1    0.0000
     37 N2         6.1717    4.0641   11.4782 N.3       1 RES1    0.0000
     38 N3         7.1606    3.6930   10.5950 N.3       1 RES1    0.0000
     39 H17        7.1280    3.9430    9.7728 H         1 RES1    0.0000
     40 N4        11.3795    0.5196   12.5362 N.pl3     1 RES1    0.0000
     41 N5         9.0610    2.4604    8.7366 N.pl3     1 RES1    0.0000
     42 O1         2.2402    3.0909   12.7859 O.2       1 RES1    0.0000
     43 O2         3.2523    3.5897   14.7261 O.3       1 RES1    0.0000
     44 O3         9.7304    1.7000    8.0454 O.2       1 RES1    0.0000
     45 O4         8.3093    3.3202    8.2679 O.2       1 RES1    0.0000
     46 O5        12.1131   -0.0407   11.7278 O.2       1 RES1    0.0000
     47 O6        11.4868    0.4000   13.7528 O.2       1 RES1    0.0000
@<TRIPOS>BOND
     1    1    3 1
     2    2    3 2
     3    3   21 1
     4    4    5 1
     5    6    4 1
     6    7    4 1
     7    8    2 1
     8    9    8 1
     9   10    8 1
    10   11   12 ar
    11   12   13 1
    12   14   12 ar
    13   15   14 1
    14   16   14 ar
    15   17   16 ar
    16   18   17 1
    17   19   11 ar
    18   20    1 1
    19   21   42 2
    20   22   23 1
    21   24   22 1
    22   25   22 1
    23   26   20 ar
    24   27   26 1
    25   28   26 ar
    26   29   28 1
    27   30   28 ar
    28   31   30 1
    29   32   30 ar
    30   33   32 1
    31   34   20 ar
    32   35   34 1
    33   36    1 2
    34   37    2 1
    35   38   11 1
    36   39   38 1
    37   40   16 1
    38   41   19 1
    39   43   21 1
    40   44   41 2
    41   45   41 2
    42   46   40 2
    43   47   40 2
    44    4    8 1
    45   17   19 ar
    46   22   43 1
    47   32   34 ar
    48   36   37 1
    49   37   38 1
@<TRIPOS>SUBSTRUCTURE
     1 RES1 1

@<TRIPOS>CRYSIN
  10.6894    8.2917   21.3266  90.0000  96.4790  90.0000 231 1

