# MOL2 file generated by ConQuest
# Please check atom types

@<TRIPOS>MOLECULE
XILVOE
    21    21     1
SMALL
NO_CHARGES
****
Generated from CSD

@<TRIPOS>ATOM
      1 O1         8.7806    2.3250    1.2556 O.3       1 RES1    0.0000
      2 H1         9.2760    1.5650    1.5574 H         1 RES1    0.0000
      3 O2         6.1979    0.7978    3.2198 O.3       1 RES1    0.0000
      4 H2         6.1744    0.3214    3.9472 H         1 RES1    0.0000
      5 O3         8.4250    0.7745    3.4884 O.2       1 RES1    0.0000
      6 O4         7.8563   -0.4964   -1.3842 O.2       1 RES1    0.0000
      7 O5         8.0317   -0.3726    0.7607 O.2       1 RES1    0.0000
      8 N1         7.5227   -0.0356   -0.2973 N.pl3     1 RES1    0.0000
      9 C1         7.4217    1.1547    2.9065 C.2       1 RES1    0.0000
     10 C2         7.4790    2.1716    1.7801 C.3       1 RES1    0.0000
     11 H3         7.2543    3.0509    2.2016 H         1 RES1    0.0000
     12 C3         6.4307    1.9604    0.6938 C.ar      1 RES1    0.0000
     13 C4         6.4564    0.9633   -0.2825 C.ar      1 RES1    0.0000
     14 C5         5.4914    0.8471   -1.2763 C.ar      1 RES1    0.0000
     15 H4         5.5518    0.1583   -1.9283 H         1 RES1    0.0000
     16 C6         4.4448    1.7477   -1.3027 C.ar      1 RES1    0.0000
     17 H5         3.7685    1.6773   -1.9665 H         1 RES1    0.0000
     18 C7         4.3893    2.7519   -0.3567 C.ar      1 RES1    0.0000
     19 H6         3.6721    3.3752   -0.3718 H         1 RES1    0.0000
     20 C8         5.3701    2.8574    0.6114 C.ar      1 RES1    0.0000
     21 H7         5.3181    3.5657    1.2424 H         1 RES1    0.0000
@<TRIPOS>BOND
     1    1    2 1
     2    3    4 1
     3    5    9 2
     4    6    8 2
     5    7    8 2
     6    8   13 1
     7    9    3 1
     8   10    1 1
     9   11   10 1
    10   12   10 1
    11   13   12 ar
    12   14   13 ar
    13   15   14 1
    14   16   14 ar
    15   17   16 1
    16   18   16 ar
    17   19   18 1
    18   20   12 ar
    19   21   20 1
    20    9   10 1
    21   18   20 ar
@<TRIPOS>SUBSTRUCTURE
     1 RES1 1

@<TRIPOS>CRYSIN
   9.4343    9.7690    9.8842  90.0000 116.1300  90.0000  14 1

