# MOL2 file generated by ConQuest
# Please check atom types

@<TRIPOS>MOLECULE
XILXOI
    37    38     1
SMALL
NO_CHARGES
****
Generated from CSD

@<TRIPOS>ATOM
      1 N1         1.0292    3.8287    8.3665 N.am      1 RES1    0.0000
      2 C1         0.7762    3.5294    9.7338 C.2       1 RES1    0.0000
      3 O1         0.4046    2.4203   10.0569 O.2       1 RES1    0.0000
      4 C2         1.0519    4.6506   10.6116 C.2       1 RES1    0.0000
      5 C3         1.5865    5.8270   10.2051 C.2       1 RES1    0.0000
      6 H1         1.7942    6.5157   10.8253 H         1 RES1    0.0000
      7 C4         1.8208    5.9893    8.8305 C.2       1 RES1    0.0000
      8 C5         1.5154    5.0061    7.9473 C.2       1 RES1    0.0000
      9 H2         1.6473    5.1534    7.0181 H         1 RES1    0.0000
     10 N2         0.7585    4.4986   12.0389 N.pl3     1 RES1    0.0000
     11 O2        -0.1861    3.7940   12.3656 O.2       1 RES1    0.0000
     12 O3         1.4610    5.1084   12.8308 O.2       1 RES1    0.0000
     13 N3         2.4314    7.2108    8.3407 N.pl3     1 RES1    0.0000
     14 O4         2.9569    7.9529    9.1559 O.2       1 RES1    0.0000
     15 O5         2.4186    7.4126    7.1321 O.2       1 RES1    0.0000
     16 C6         0.7933    2.6898    7.4112 C.3       1 RES1    0.0000
     17 H3        -0.0754    2.2610    7.6601 H         1 RES1    0.0000
     18 C7         1.8957    1.6165    7.5313 C.3       1 RES1    0.0000
     19 H4         1.9940    1.3810    8.4877 H         1 RES1    0.0000
     20 H5         1.5875    0.8040    7.0574 H         1 RES1    0.0000
     21 C8         3.2798    1.9899    6.9876 C.3       1 RES1    0.0000
     22 H6         3.8689    1.1981    7.0716 H         1 RES1    0.0000
     23 H7         3.1896    2.1888    6.0213 H         1 RES1    0.0000
     24 C9         3.9697    3.1645    7.6481 C.ar      1 RES1    0.0000
     25 C10        4.5328    4.1749    6.8751 C.ar      1 RES1    0.0000
     26 H8         4.4793    4.1224    5.9285 H         1 RES1    0.0000
     27 C11        5.1696    5.2585    7.4603 C.ar      1 RES1    0.0000
     28 H9         5.5518    5.9349    6.9133 H         1 RES1    0.0000
     29 C12        5.2498    5.3579    8.8382 C.ar      1 RES1    0.0000
     30 H10        5.6789    6.1038    9.2410 H         1 RES1    0.0000
     31 C13        4.6967    4.3578    9.6243 C.ar      1 RES1    0.0000
     32 H11        4.7502    4.4179   10.5709 H         1 RES1    0.0000
     33 C14        4.0671    3.2724    9.0401 C.ar      1 RES1    0.0000
     34 H12        3.6972    2.5931    9.5904 H         1 RES1    0.0000
     35 C15        0.6616    3.2048    6.0453 C.1       1 RES1    0.0000
     36 C16        0.5987    3.5857    4.9371 C.1       1 RES1    0.0000
     37 H13        0.5485    3.8934    4.0397 H         1 RES1    0.0000
@<TRIPOS>BOND
     1    1    2 1
     2    2    3 2
     3    4    2 1
     4    5    4 2
     5    6    5 1
     6    7    5 1
     7    8    1 1
     8    9    8 1
     9   10    4 1
    10   11   10 2
    11   12   10 2
    12   13    7 1
    13   14   13 2
    14   15   13 2
    15   16    1 1
    16   17   16 1
    17   18   16 1
    18   19   18 1
    19   20   18 1
    20   21   18 1
    21   22   21 1
    22   23   21 1
    23   24   21 1
    24   25   24 ar
    25   26   25 1
    26   27   25 ar
    27   28   27 1
    28   29   27 ar
    29   30   29 1
    30   31   29 ar
    31   32   31 1
    32   33   24 ar
    33   34   33 1
    34   35   16 1
    35   36   35 3
    36   37   36 1
    37    7    8 2
    38   31   33 ar
@<TRIPOS>SUBSTRUCTURE
     1 RES1 1

@<TRIPOS>CRYSIN
   7.2451    9.3818   10.9185  90.0000  90.4932  90.0000   4 1

