# MOL2 file generated by ConQuest
# Please check atom types

@<TRIPOS>MOLECULE
XILZAU
    17    17     1
SMALL
NO_CHARGES
****
Generated from CSD

@<TRIPOS>ATOM
      1 O1         3.2920   10.5972    2.1950 O.3       1 RES1    0.0000
      2 H1         3.6433   10.6710    1.4574 H         1 RES1    0.0000
      3 N1        -1.3775    7.8481    4.6038 N.ar      1 RES1    0.0000
      4 N2         1.9708   10.3458    4.3479 N.pl3     1 RES1    0.0000
      5 H2         2.8200   10.8515    4.2541 H         1 RES1    0.0000
      6 H3         2.1724   10.0602    5.2622 H         1 RES1    0.0000
      7 N3         2.2613    9.6175    2.1334 N.2       1 RES1    0.0000
      8 C1        -1.4925    6.8601    3.7550 C.ar      1 RES1    0.0000
      9 H4        -2.2064    6.2728    3.8614 H         1 RES1    0.0000
     10 C2        -0.6213    6.6351    2.7117 C.ar      1 RES1    0.0000
     11 H5        -0.7517    5.9278    2.1217 H         1 RES1    0.0000
     12 C3         0.4502    7.4895    2.5720 C.ar      1 RES1    0.0000
     13 H6         1.0729    7.3473    1.8960 H         1 RES1    0.0000
     14 C4         0.5987    8.5516    3.4307 C.ar      1 RES1    0.0000
     15 C5        -0.3369    8.6889    4.4417 C.ar      1 RES1    0.0000
     16 H7        -0.2429    9.3962    5.0385 H         1 RES1    0.0000
     17 C6         1.7145    9.5334    3.3095 C.2       1 RES1    0.0000
@<TRIPOS>BOND
     1    1    2 1
     2    3    8 ar
     3    4    5 1
     4    6    4 1
     5    7    1 1
     6    8    9 1
     7   10    8 ar
     8   11   10 1
     9   12   10 ar
    10   13   12 1
    11   14   12 ar
    12   15    3 ar
    13   16   15 1
    14   17    4 1
    15    7   17 2
    16   14   15 ar
    17   14   17 1
@<TRIPOS>SUBSTRUCTURE
     1 RES1 1

@<TRIPOS>CRYSIN
   5.5220   12.3650    9.7970  90.0000  94.3800  90.0000  14 1

