# MOL2 file generated by ConQuest
# Please check atom types

@<TRIPOS>MOLECULE
XIMCED
    81    85     1
SMALL
USER_CHARGES
****
Generated from CSD

@<TRIPOS>ATOM
      1 O1         4.0035   11.6516   21.3399 O.3       1 RES1    0.0000
      2 N1         3.2292   10.4433   21.4269 N.pl3     1 RES1    1.0000
      3 O2         2.3143   10.5574   22.2848 O.2       1 RES1   -1.0000
      4 O3         6.1020   10.6733   21.7412 O.3       1 RES1    0.0000
      5 O4         2.0851   10.0667   15.5174 O.3       1 RES1    0.0000
      6 O5         2.9044    7.6627   14.5285 O.3       1 RES1    0.0000
      7 O6        -0.6567    6.8485   20.2888 O.3       1 RES1    0.0000
      8 O7         0.8710    6.2514   21.8117 O.2       1 RES1    0.0000
      9 C1         3.4911    9.4161   20.6762 C.2       1 RES1    0.0000
     10 C2         4.6152    9.3965   19.6716 C.3       1 RES1    0.0000
     11 H1         5.3010    8.7498   20.0035 H         1 RES1    0.0000
     12 C3         5.3011   10.7560   19.5314 C.3       1 RES1    0.0000
     13 H2         6.2198   10.6319   19.1839 H         1 RES1    0.0000
     14 H3         4.8012   11.3160   18.8858 H         1 RES1    0.0000
     15 C4         5.3523   11.4450   20.8678 C.3       1 RES1    0.0000
     16 H4         5.7970   12.3339   20.7566 H         1 RES1    0.0000
     17 C5         6.3610   11.2657   23.0419 C.3       1 RES1    0.0000
     18 H5         5.5074   11.6262   23.4177 H         1 RES1    0.0000
     19 C6         6.8446   10.1046   23.9089 C.3       1 RES1    0.0000
     20 H6         7.6346    9.6957   23.4523 H         1 RES1    0.0000
     21 C7         7.3170   10.6165   25.2823 C.3       1 RES1    0.0000
     22 H7         6.5402   10.9712   25.7834 H         1 RES1    0.0000
     23 H8         7.6931    9.8605   25.7994 H         1 RES1    0.0000
     24 C8         8.3724   11.7103   25.1498 C.3       1 RES1    0.0000
     25 H9         8.6343   12.0320   26.0495 H         1 RES1    0.0000
     26 H10        9.1780   11.3451   24.7057 H         1 RES1    0.0000
     27 C9         7.8132   12.8686   24.3315 C.3       1 RES1    0.0000
     28 H11        8.5026   13.5734   24.2426 H         1 RES1    0.0000
     29 H12        7.0339   13.2590   24.8015 H         1 RES1    0.0000
     30 C10        7.3855   12.3925   22.9403 C.3       1 RES1    0.0000
     31 H13        6.9938   13.1510   22.4384 H         1 RES1    0.0000
     32 H14        8.1791   12.0722   22.4437 H         1 RES1    0.0000
     33 C11        5.8004    9.0125   24.0816 C.ar      1 RES1    0.0000
     34 C12        6.1929    7.6726   24.0481 C.ar      1 RES1    0.0000
     35 H15        7.0978    7.4549   23.8568 H         1 RES1    0.0000
     36 C13        4.4605    9.2979   24.3451 C.ar      1 RES1    0.0000
     37 H16        4.1712   10.2026   24.3704 H         1 RES1    0.0000
     38 C14        5.2748    6.6479   24.2892 C.ar      1 RES1    0.0000
     39 H17        5.5613    5.7418   24.2746 H         1 RES1    0.0000
     40 C15        3.5435    8.2792   24.5691 C.ar      1 RES1    0.0000
     41 H18        2.6332    8.4922   24.7376 H         1 RES1    0.0000
     42 C16        3.9509    6.9504   24.5481 C.ar      1 RES1    0.0000
     43 H19        3.3240    6.2556   24.7110 H         1 RES1    0.0000
     44 C17        4.1193    8.8803   18.3275 C.ar      1 RES1    0.0000
     45 C18        3.2204    9.6282   17.5582 C.ar      1 RES1    0.0000
     46 H20        2.8742   10.4408   17.9092 H         1 RES1    0.0000
     47 C19        2.8244    9.2137   16.3003 C.ar      1 RES1    0.0000
     48 C20        3.3065    7.9878   15.7926 C.ar      1 RES1    0.0000
     49 C21        4.1616    7.2167   16.5656 C.ar      1 RES1    0.0000
     50 H21        4.4662    6.3775   16.2434 H         1 RES1    0.0000
     51 C22        4.5739    7.6725   17.8163 C.ar      1 RES1    0.0000
     52 H22        5.1770    7.1475   18.3297 H         1 RES1    0.0000
     53 C23        3.5485    6.5556   13.9066 C.3       1 RES1    0.0000
     54 H23        3.2069    6.4495   12.9942 H         1 RES1    0.0000
     55 H24        3.3664    5.7404   14.4205 H         1 RES1    0.0000
     56 H25        4.5154    6.7140   13.8776 H         1 RES1    0.0000
     57 C24        0.7313    9.6313   15.2116 C.3       1 RES1    0.0000
     58 H26        0.7309    8.6847   14.8889 H         1 RES1    0.0000
     59 C25        0.1782   10.5716   14.1320 C.3       1 RES1    0.0000
     60 H27        0.8934   11.1623   13.7845 H         1 RES1    0.0000
     61 H28       -0.1995   10.0530   13.3773 H         1 RES1    0.0000
     62 C26       -0.1989    9.7881   16.4264 C.3       1 RES1    0.0000
     63 H29       -0.4059    8.9063   16.8261 H         1 RES1    0.0000
     64 H30        0.2187   10.3618   17.1162 H         1 RES1    0.0000
     65 C27       -0.9103   11.3936   14.8162 C.3       1 RES1    0.0000
     66 H31       -0.5322   12.2079   15.2348 H         1 RES1    0.0000
     67 H32       -1.6143   11.6581   14.1730 H         1 RES1    0.0000
     68 C28       -1.4625   10.4413   15.8713 C.3       1 RES1    0.0000
     69 H33       -2.0656    9.7691   15.4663 H         1 RES1    0.0000
     70 H34       -1.9516   10.9338   16.5787 H         1 RES1    0.0000
     71 C29        2.7004    8.1812   20.9604 C.3       1 RES1    0.0000
     72 H35        2.7187    8.0116   21.9354 H         1 RES1    0.0000
     73 H36        3.1407    7.4148   20.5144 H         1 RES1    0.0000
     74 C30        1.2408    8.2406   20.5022 C.3       1 RES1    0.0000
     75 H37        0.8087    9.0489   20.8763 H         1 RES1    0.0000
     76 H38        1.2053    8.3025   19.5138 H         1 RES1    0.0000
     77 C31        0.4959    7.0120   20.9572 C.2       1 RES1    0.0000
     78 C32       -1.4263    5.6900   20.6823 C.3       1 RES1    0.0000
     79 H39       -2.2789    5.6850   20.1977 H         1 RES1    0.0000
     80 H40       -1.5981    5.7238   21.6454 H         1 RES1    0.0000
     81 H41       -0.9242    4.8762   20.4692 H         1 RES1    0.0000
@<TRIPOS>BOND
     1    1    2 1
     2    2    3 1
     3    4   15 1
     4    5   47 1
     5    6   48 1
     6    7   77 1
     7    8   77 2
     8    9    2 2
     9   10    9 1
    10   11   10 1
    11   12   10 1
    12   13   12 1
    13   14   12 1
    14   15    1 1
    15   16   15 1
    16   17    4 1
    17   18   17 1
    18   19   17 1
    19   20   19 1
    20   21   19 1
    21   22   21 1
    22   23   21 1
    23   24   21 1
    24   25   24 1
    25   26   24 1
    26   27   24 1
    27   28   27 1
    28   29   27 1
    29   30   17 1
    30   31   30 1
    31   32   30 1
    32   33   19 1
    33   34   33 ar
    34   35   34 1
    35   36   33 ar
    36   37   36 1
    37   38   34 ar
    38   39   38 1
    39   40   36 ar
    40   41   40 1
    41   42   38 ar
    42   43   42 1
    43   44   10 1
    44   45   44 ar
    45   46   45 1
    46   47   45 ar
    47   48   47 ar
    48   49   48 ar
    49   50   49 1
    50   51   44 ar
    51   52   51 1
    52   53    6 1
    53   54   53 1
    54   55   53 1
    55   56   53 1
    56   57    5 1
    57   58   57 1
    58   59   57 1
    59   60   59 1
    60   61   59 1
    61   62   57 1
    62   63   62 1
    63   64   62 1
    64   65   59 1
    65   66   65 1
    66   67   65 1
    67   68   62 1
    68   69   68 1
    69   70   68 1
    70   71    9 1
    71   72   71 1
    72   73   71 1
    73   74   71 1
    74   75   74 1
    75   76   74 1
    76   77   74 1
    77   78    7 1
    78   79   78 1
    79   80   78 1
    80   81   78 1
    81   12   15 1
    82   27   30 1
    83   40   42 ar
    84   49   51 ar
    85   65   68 1
@<TRIPOS>SUBSTRUCTURE
     1 RES1 1

@<TRIPOS>CRYSIN
   7.7016   13.8490   26.6110  90.0000  90.0000  90.0000  19 1

