# MOL2 file generated by ConQuest
# Please check atom types

@<TRIPOS>MOLECULE
XIMHUW
    59    62     1
SMALL
NO_CHARGES
****
Generated from CSD

@<TRIPOS>ATOM
      1 O1         6.6519    3.1427    0.8567 O.3       1 RES1    0.0000
      2 C1         5.3293    2.6595    1.1037 C.3       1 RES1    0.0000
      3 H1         4.7298    2.9625    0.3756 H         1 RES1    0.0000
      4 C2         4.9076    3.3394    2.4235 C.3       1 RES1    0.0000
      5 H2         4.4492    2.6981    3.0228 H         1 RES1    0.0000
      6 C3         6.2108    3.8391    3.0495 C.3       1 RES1    0.0000
      7 H3         6.2412    4.8217    2.9388 H         1 RES1    0.0000
      8 C4         7.2832    3.2350    2.1411 C.3       1 RES1    0.0000
      9 H4         7.4781    2.3185    2.4588 H         1 RES1    0.0000
     10 C5         6.3780    3.5342    4.5275 C.3       1 RES1    0.0000
     11 H5         5.6589    3.9523    5.0270 H         1 RES1    0.0000
     12 H6         7.2291    3.8811    4.8348 H         1 RES1    0.0000
     13 H7         6.3514    2.5744    4.6641 H         1 RES1    0.0000
     14 C6         5.2896    1.1330    1.1875 C.ar      1 RES1    0.0000
     15 C7         6.3954    0.3773    0.8269 C.ar      1 RES1    0.0000
     16 H8         7.1778    0.8084    0.5348 H         1 RES1    0.0000
     17 C8         6.3572   -1.0103    0.8935 C.ar      1 RES1    0.0000
     18 H9         7.1153   -1.5101    0.6545 H         1 RES1    0.0000
     19 C9         5.2159   -1.6555    1.3068 C.ar      1 RES1    0.0000
     20 H10        5.1929   -2.5947    1.3535 H         1 RES1    0.0000
     21 C10        4.0995   -0.9116    1.6540 C.ar      1 RES1    0.0000
     22 H11        3.3141   -1.3491    1.9291 H         1 RES1    0.0000
     23 C11        4.1355    0.4723    1.5990 C.ar      1 RES1    0.0000
     24 H12        3.3758    0.9694    1.8412 H         1 RES1    0.0000
     25 O2         4.0889    4.5136    2.1993 O.3       1 RES1    0.0000
     26 O3         2.3081    3.2215    1.7303 O.2       1 RES1    0.0000
     27 C12        2.8060    4.3085    1.8915 C.2       1 RES1    0.0000
     28 C13        2.0496    5.5895    1.8067 C.ar      1 RES1    0.0000
     29 C14        0.6872    5.5267    1.5750 C.ar      1 RES1    0.0000
     30 H13        0.2733    4.6929    1.4427 H         1 RES1    0.0000
     31 C15       -0.0704    6.6804    1.5371 C.ar      1 RES1    0.0000
     32 H14       -0.9981    6.6436    1.3892 H         1 RES1    0.0000
     33 C16        0.5679    7.8818    1.7210 C.ar      1 RES1    0.0000
     34 C17        1.9232    7.9767    1.9426 C.ar      1 RES1    0.0000
     35 H15        2.3343    8.8147    2.0602 H         1 RES1    0.0000
     36 C18        2.6652    6.8165    1.9884 C.ar      1 RES1    0.0000
     37 H16        3.5925    6.8589    2.1430 H         1 RES1    0.0000
     38 N1        -0.2248    9.1199    1.6829 N.pl3     1 RES1    0.0000
     39 O4        -1.4378    9.0250    1.6069 O.2       1 RES1    0.0000
     40 O5         0.3645   10.1885    1.7357 O.2       1 RES1    0.0000
     41 C19        8.5760    3.9784    2.0255 C.3       1 RES1    0.0000
     42 H17        9.0952    3.8760    2.8509 H         1 RES1    0.0000
     43 H18        9.1038    3.6167    1.2835 H         1 RES1    0.0000
     44 O6         8.2908    5.3834    1.7921 O.3       1 RES1    0.0000
     45 O7        10.4891    5.7944    1.5886 O.2       1 RES1    0.0000
     46 C20        9.3559    6.1806    1.6506 C.2       1 RES1    0.0000
     47 C21        8.9499    7.6198    1.6000 C.ar      1 RES1    0.0000
     48 C22        9.9486    8.5791    1.4542 C.ar      1 RES1    0.0000
     49 H19       10.8459    8.3113    1.3790 H         1 RES1    0.0000
     50 C23        9.6246    9.9222    1.4200 C.ar      1 RES1    0.0000
     51 H20       10.2936   10.5756    1.3217 H         1 RES1    0.0000
     52 C24        8.3000   10.2795    1.5342 C.ar      1 RES1    0.0000
     53 C25        7.2903    9.3531    1.6833 C.ar      1 RES1    0.0000
     54 H21        6.3942    9.6265    1.7597 H         1 RES1    0.0000
     55 C26        7.6258    8.0115    1.7180 C.ar      1 RES1    0.0000
     56 H22        6.9541    7.3622    1.8221 H         1 RES1    0.0000
     57 N2         7.9274   11.7053    1.4778 N.pl3     1 RES1    0.0000
     58 O8         8.8216   12.5315    1.4716 O.2       1 RES1    0.0000
     59 O9         6.7475   11.9977    1.4299 O.2       1 RES1    0.0000
@<TRIPOS>BOND
     1    1    2 1
     2    2    3 1
     3    4    2 1
     4    5    4 1
     5    6    4 1
     6    7    6 1
     7    8    1 1
     8    9    8 1
     9   10    6 1
    10   11   10 1
    11   12   10 1
    12   13   10 1
    13   14    2 1
    14   15   14 ar
    15   16   15 1
    16   17   15 ar
    17   18   17 1
    18   19   17 ar
    19   20   19 1
    20   21   19 ar
    21   22   21 1
    22   23   14 ar
    23   24   23 1
    24   25    4 1
    25   26   27 2
    26   27   25 1
    27   28   27 1
    28   29   28 ar
    29   30   29 1
    30   31   29 ar
    31   32   31 1
    32   33   31 ar
    33   34   33 ar
    34   35   34 1
    35   36   28 ar
    36   37   36 1
    37   38   33 1
    38   39   38 2
    39   40   38 2
    40   41    8 1
    41   42   41 1
    42   43   41 1
    43   44   41 1
    44   45   46 2
    45   46   44 1
    46   47   46 1
    47   48   47 ar
    48   49   48 1
    49   50   48 ar
    50   51   50 1
    51   52   50 ar
    52   53   52 ar
    53   54   53 1
    54   55   47 ar
    55   56   55 1
    56   57   52 1
    57   58   57 2
    58   59   57 2
    59    6    8 1
    60   21   23 ar
    61   34   36 ar
    62   53   55 ar
@<TRIPOS>SUBSTRUCTURE
     1 RES1 1

@<TRIPOS>CRYSIN
  21.8320   16.9480   13.0648  90.0000 102.9380  90.0000  15 1

