# MOL2 file generated by ConQuest
# Please check atom types

@<TRIPOS>MOLECULE
XIMRIX
    49    52     1
SMALL
NO_CHARGES
****
Generated from CSD

@<TRIPOS>ATOM
      1 O1        -2.8065    4.9420    8.7904 O.3       1 RES1    0.0000
      2 O2        -0.4981    3.1744    8.8130 O.2       1 RES1    0.0000
      3 O3         0.8125    2.2849    6.6550 O.2       1 RES1    0.0000
      4 O4         0.6863    3.6234    4.8566 O.3       1 RES1    0.0000
      5 O5         1.5767    5.6847    9.0444 O.2       1 RES1    0.0000
      6 O6         2.2355    4.8766   10.9166 O.2       1 RES1    0.0000
      7 N1        -0.3033    4.2723    6.7595 N.am      1 RES1    0.0000
      8 N2         1.3712    5.3152   10.1853 N.pl3     1 RES1    0.0000
      9 C1        -1.4446    5.3834    8.5170 C.3       1 RES1    0.0000
     10 C2        -0.9589    6.1233    9.8105 C.3       1 RES1    0.0000
     11 H1        -0.5488    6.9759    9.5562 H         1 RES1    0.0000
     12 C3        -2.2766    6.3942   10.4895 C.ar      1 RES1    0.0000
     13 C4        -2.5894    7.2041   11.5577 C.ar      1 RES1    0.0000
     14 H2        -1.9282    7.6912   11.9937 H         1 RES1    0.0000
     15 C5        -3.9044    7.2771   11.9694 C.ar      1 RES1    0.0000
     16 H3        -4.1302    7.8240   12.6876 H         1 RES1    0.0000
     17 C6        -4.8889    6.5524   11.3324 C.ar      1 RES1    0.0000
     18 H4        -5.7683    6.6186   11.6265 H         1 RES1    0.0000
     19 C7        -4.5915    5.7264   10.2622 C.ar      1 RES1    0.0000
     20 H5        -5.2487    5.2277    9.8338 H         1 RES1    0.0000
     21 C8        -3.2720    5.6800    9.8607 C.ar      1 RES1    0.0000
     22 C9        -0.6890    4.1264    8.1104 C.2       1 RES1    0.0000
     23 C10       -1.4016    6.2209    7.2900 C.ar      1 RES1    0.0000
     24 C11       -0.7433    5.5521    6.2659 C.ar      1 RES1    0.0000
     25 C12       -0.6095    6.1242    5.0184 C.ar      1 RES1    0.0000
     26 H6        -0.1820    5.6744    4.3264 H         1 RES1    0.0000
     27 C13       -1.1350    7.3955    4.8310 C.ar      1 RES1    0.0000
     28 H7        -1.0700    7.7927    3.9928 H         1 RES1    0.0000
     29 C14       -1.7492    8.0842    5.8521 C.ar      1 RES1    0.0000
     30 H8        -2.0672    8.9452    5.7049 H         1 RES1    0.0000
     31 C15       -1.8954    7.4978    7.0954 C.ar      1 RES1    0.0000
     32 H9        -2.3168    7.9535    7.7875 H         1 RES1    0.0000
     33 C16        0.4594    3.2757    6.1051 C.2       1 RES1    0.0000
     34 C17        1.5263    2.7632    3.9656 C.3       1 RES1    0.0000
     35 C18        2.9134    2.6600    4.5350 C.3       1 RES1    0.0000
     36 H10        3.2845    3.5397    4.6348 H         1 RES1    0.0000
     37 H11        3.4654    2.1452    3.9419 H         1 RES1    0.0000
     38 H12        2.8761    2.2293    5.3922 H         1 RES1    0.0000
     39 C19        1.4623    3.4993    2.6628 C.3       1 RES1    0.0000
     40 H13        0.5446    3.6305    2.4138 H         1 RES1    0.0000
     41 H14        1.9087    2.9884    1.9840 H         1 RES1    0.0000
     42 H15        1.8932    4.3525    2.7564 H         1 RES1    0.0000
     43 C20        0.8787    1.4190    3.8068 C.3       1 RES1    0.0000
     44 H16        0.9107    0.9486    4.6432 H         1 RES1    0.0000
     45 H17        1.3475    0.9153    3.1380 H         1 RES1    0.0000
     46 H18       -0.0358    1.5343    3.5393 H         1 RES1    0.0000
     47 C21       -0.0199    5.3806   10.7374 C.3       1 RES1    0.0000
     48 H19       -0.0015    5.8264   11.5991 H         1 RES1    0.0000
     49 H20       -0.3518    4.4794   10.8751 H         1 RES1    0.0000
@<TRIPOS>BOND
     1    1    9 1
     2    2   22 2
     3    3   33 2
     4    4   33 1
     5    5    8 2
     6    6    8 2
     7    7   22 1
     8    8   47 1
     9    9   10 1
    10   10   11 1
    11   12   10 1
    12   13   12 ar
    13   14   13 1
    14   15   13 ar
    15   16   15 1
    16   17   15 ar
    17   18   17 1
    18   19   17 ar
    19   20   19 1
    20   21    1 1
    21   22    9 1
    22   23    9 1
    23   24    7 1
    24   25   24 ar
    25   26   25 1
    26   27   25 ar
    27   28   27 1
    28   29   27 ar
    29   30   29 1
    30   31   23 ar
    31   32   31 1
    32   33    7 1
    33   34    4 1
    34   35   34 1
    35   36   35 1
    36   37   35 1
    37   38   35 1
    38   39   34 1
    39   40   39 1
    40   41   39 1
    41   42   39 1
    42   43   34 1
    43   44   43 1
    44   45   43 1
    45   46   43 1
    46   47   10 1
    47   48   47 1
    48   49   47 1
    49   12   21 ar
    50   19   21 ar
    51   23   24 ar
    52   29   31 ar
@<TRIPOS>SUBSTRUCTURE
     1 RES1 1

@<TRIPOS>CRYSIN
  10.1833    9.4729   11.2556  90.0000 114.5060  90.0000   4 1

