# MOL2 file generated by ConQuest
# Please check atom types

@<TRIPOS>MOLECULE
XINBIH
    43    46     1
SMALL
USER_CHARGES
****
Generated from CSD

@<TRIPOS>ATOM
      1 O1         1.0968    7.4216    1.7721 O.2       1 RES1   -1.0000
      2 N1         2.0243    6.8266    2.4264 N.pl3     1 RES1    1.0000
      3 N2         3.8460    6.5949    3.8412 N.2       1 RES1    0.0000
      4 N3         0.2202    3.6117    0.2339 N.3       1 RES1    0.0000
      5 C1         3.4706    5.4454    3.3723 C.2       1 RES1    0.0000
      6 C2         1.5145    4.5281    1.8174 C.2       1 RES1    0.0000
      7 C3         4.2752    4.2370    3.6239 C.ar      1 RES1    0.0000
      8 C4         0.3636    2.6540    1.2116 C.ar      1 RES1    0.0000
      9 C5         2.9817    7.6065    3.2793 C.3       1 RES1    0.0000
     10 C6         2.2963    5.5320    2.4979 C.2       1 RES1    0.0000
     11 C7         0.8892    4.7222    0.6091 C.2       1 RES1    0.0000
     12 C8         4.5497    3.3543    2.5925 C.ar      1 RES1    0.0000
     13 C9         1.1791    3.1937    2.2278 C.ar      1 RES1    0.0000
     14 C10        4.8882    4.0422    4.8482 C.ar      1 RES1    0.0000
     15 C11        1.4499    2.3962    3.3478 C.ar      1 RES1    0.0000
     16 C12        6.0388    2.1309    3.9955 C.ar      1 RES1    0.0000
     17 C13        5.4309    2.3159    2.7757 C.ar      1 RES1    0.0000
     18 C14       -0.1358    1.3653    1.2610 C.ar      1 RES1    0.0000
     19 C15        0.9421    1.1171    3.3921 C.ar      1 RES1    0.0000
     20 C16        5.7573    2.9879    5.0281 C.ar      1 RES1    0.0000
     21 C17        2.1819    8.3182    4.3496 C.3       1 RES1    0.0000
     22 H1         1.6858    7.6734    4.8598 H         1 RES1    0.0000
     23 H2         1.5741    8.9367    3.9374 H         1 RES1    0.0000
     24 H3         2.7786    8.7957    4.9307 H         1 RES1    0.0000
     25 C18        3.7752    8.5342    2.3829 C.3       1 RES1    0.0000
     26 H4         4.2705    8.0162    1.7443 H         1 RES1    0.0000
     27 H5         4.3834    9.0522    2.9157 H         1 RES1    0.0000
     28 H6         3.1751    9.1227    1.9195 H         1 RES1    0.0000
     29 C19        0.1612    0.6103    2.3566 C.ar      1 RES1    0.0000
     30 C20       -0.4632    3.4276   -1.0446 C.3       1 RES1    0.0000
     31 H7        -0.4909    4.2637   -1.5159 H         1 RES1    0.0000
     32 H8        -1.3585    3.1199   -0.8879 H         1 RES1    0.0000
     33 H9         0.0110    2.7791   -1.5701 H         1 RES1    0.0000
     34 H10        2.0108    2.7458    4.0920 H         1 RES1    0.0000
     35 H11        0.9358    5.4917    0.0610 H         1 RES1    0.0000
     36 H12        4.1361    3.4803    1.7354 H         1 RES1    0.0000
     37 H13        6.6864    1.3925    4.0890 H         1 RES1    0.0000
     38 H14        4.6841    4.6887    5.5774 H         1 RES1    0.0000
     39 H15       -0.6780    1.0458    0.5237 H         1 RES1    0.0000
     40 H16        6.1924    2.8692    5.8491 H         1 RES1    0.0000
     41 H17        5.6927    1.7313    2.0189 H         1 RES1    0.0000
     42 H18       -0.1901   -0.2526    2.4757 H         1 RES1    0.0000
     43 H19        1.1597    0.5680    4.1648 H         1 RES1    0.0000
@<TRIPOS>BOND
     1    1    2 1
     2    2    9 1
     3    3    5 2
     4    4    8 1
     5    5    7 1
     6    6   10 1
     7    7   12 ar
     8    8   13 ar
     9    9    3 1
    10   10    2 2
    11   11    4 1
    12   12   17 ar
    13   13    6 1
    14   14    7 ar
    15   15   13 ar
    16   16   17 ar
    17   17   41 1
    18   18    8 ar
    19   19   15 ar
    20   20   14 ar
    21   21    9 1
    22   22   21 1
    23   23   21 1
    24   24   21 1
    25   25    9 1
    26   26   25 1
    27   27   25 1
    28   28   25 1
    29   29   18 ar
    30   30    4 1
    31   31   30 1
    32   32   30 1
    33   33   30 1
    34   34   15 1
    35   35   11 1
    36   36   12 1
    37   37   16 1
    38   38   14 1
    39   39   18 1
    40   40   20 1
    41   42   29 1
    42   43   19 1
    43    5   10 1
    44    6   11 2
    45   16   20 ar
    46   19   29 ar
@<TRIPOS>SUBSTRUCTURE
     1 RES1 1

@<TRIPOS>CRYSIN
   8.7269   19.5851   10.0288  90.0000 101.0280  90.0000  14 1

