# MOL2 file generated by ConQuest
# Please check atom types

@<TRIPOS>MOLECULE
XINFUV
    50    52     2
SMALL
NO_CHARGES
****
Generated from CSD

@<TRIPOS>ATOM
      1 N1        11.6590   -3.4616   14.0501 N.am      1 RES1    0.0000
      2 N2         9.5284   -3.7108   13.0455 N.3       1 RES1    0.0000
      3 N3         9.2438   -2.8045   12.0502 N.2       1 RES1    0.0000
      4 O1         8.0790   -2.4354   12.1131 O.2       1 RES1    0.0000
      5 O2        11.5107   -5.0674   15.7145 O.2       1 RES1    0.0000
      6 O3        12.9174   -3.0307   17.2859 O.2       1 RES1    0.0000
      7 C1        12.2108   -2.0867   14.0018 C.ar      1 RES1    0.0000
      8 C2        12.1507   -1.2624   12.9098 C.ar      1 RES1    0.0000
      9 C3        12.6909    0.0302   13.0292 C.ar      1 RES1    0.0000
     10 C4        13.2698    0.4050   14.2052 C.ar      1 RES1    0.0000
     11 C5        13.3459   -0.4948   15.4147 C.ar      1 RES1    0.0000
     12 C6        12.7652   -1.7521   15.1755 C.ar      1 RES1    0.0000
     13 C7        12.6172   -2.9540   16.1102 C.2       1 RES1    0.0000
     14 C8        11.9348   -3.9623   15.3169 C.2       1 RES1    0.0000
     15 C9        10.9372   -4.1037   13.0209 C.3       1 RES1    0.0000
     16 C10        8.6537   -4.1952   13.9872 C.3       1 RES1    0.0000
     17 H1        11.4708   -1.2366   11.9986 H         1 RES1    0.0000
     18 H2        12.5424    0.7340   12.2735 H         1 RES1    0.0000
     19 H3        13.7169    1.3206   14.2343 H         1 RES1    0.0000
     20 H4        13.7896   -0.2472   16.2672 H         1 RES1    0.0000
     21 H5        11.0120   -5.0247   13.0649 H         1 RES1    0.0000
     22 H6        11.3014   -3.8188   12.1882 H         1 RES1    0.0000
     23 H7         7.7896   -3.8202   13.8116 H         1 RES1    0.0000
     24 H8         8.6124   -5.1393   13.9285 H         1 RES1    0.0000
     25 H9         8.9518   -3.9633   14.8319 H         1 RES1    0.0000
     26 N4         6.2204   -0.6817   14.9668 N.am      2 RES2    0.0000
     27 N5         8.3901   -0.4622   16.0308 N.3       2 RES2    0.0000
     28 N6         8.7682   -1.3914   16.7457 N.2       2 RES2    0.0000
     29 O4         9.9443   -1.7530   16.6500 O.2       2 RES2    0.0000
     30 O5         6.3872    0.9683   13.3555 O.2       2 RES2    0.0000
     31 O6         5.0026   -1.0862   11.7467 O.2       2 RES2    0.0000
     32 C11        5.1407   -2.3170   13.7919 C.ar      2 RES2    0.0000
     33 C12        4.6315   -3.5799   13.6858 C.ar      2 RES2    0.0000
     34 C13        4.6365   -4.4358   14.6183 C.ar      2 RES2    0.0000
     35 C14        5.1733   -4.0889   15.8002 C.ar      2 RES2    0.0000
     36 C15        5.7568   -2.8414   16.1176 C.ar      2 RES2    0.0000
     37 C16        5.7453   -1.9335   15.0490 C.ar      2 RES2    0.0000
     38 C17        6.0882   -0.1102   13.7365 C.2       2 RES2    0.0000
     39 C18        5.2873   -1.2974   12.9048 C.2       2 RES2    0.0000
     40 C19        7.0048   -0.0376   16.0196 C.3       2 RES2    0.0000
     41 C20        9.3720    0.1068   15.0229 C.3       2 RES2    0.0000
     42 H10        4.2323   -3.8502   12.8983 H         2 RES2    0.0000
     43 H11        4.1003   -5.3540   14.2208 H         2 RES2    0.0000
     44 H12        5.1711   -4.8009   16.4752 H         2 RES2    0.0000
     45 H13        6.2386   -2.3637   17.0415 H         2 RES2    0.0000
     46 H14        6.6703   -0.4553   16.9542 H         2 RES2    0.0000
     47 H15        6.8410    1.0656   15.8498 H         2 RES2    0.0000
     48 H16       10.2255   -0.1944   15.1336 H         2 RES2    0.0000
     49 H17        9.0443   -0.0101   14.1453 H         2 RES2    0.0000
     50 H18        9.4002    1.0944   15.1126 H         2 RES2    0.0000
@<TRIPOS>BOND
     1    1    7 1
     2    2    3 1
     3    3    4 2
     4    5   14 2
     5    6   13 2
     6    7    8 ar
     7    8    9 ar
     8    9   10 ar
     9   10   11 ar
    10   11   12 ar
    11   12    7 ar
    12   13   12 1
    13   14    1 1
    14   15    1 1
    15   16    2 1
    16   17    8 1
    17   18    9 1
    18   19   10 1
    19   20   11 1
    20   21   15 1
    21   22   15 1
    22   23   16 1
    23   24   16 1
    24   25   16 1
    25   26   37 1
    26   27   28 1
    27   28   29 2
    28   30   38 2
    29   31   39 2
    30   32   33 ar
    31   33   34 ar
    32   34   35 ar
    33   35   36 ar
    34   36   37 ar
    35   37   32 ar
    36   38   26 1
    37   39   32 1
    38   40   26 1
    39   41   27 1
    40   42   33 1
    41   43   34 1
    42   44   35 1
    43   45   36 1
    44   46   40 1
    45   47   40 1
    46   48   41 1
    47   49   41 1
    48   50   41 1
    49    2   15 1
    50   13   14 1
    51   27   40 1
    52   38   39 1
@<TRIPOS>SUBSTRUCTURE
     1 RES1 1
     2 RES2 26

@<TRIPOS>CRYSIN
  10.8290    8.2060   11.7050  90.0000  96.2900  90.0000   7 1

