# MOL2 file generated by ConQuest
# Please check atom types

@<TRIPOS>MOLECULE
XINGIN
   265   252     5
SMALL
NO_CHARGES
****
Generated from CSD

@<TRIPOS>ATOM
      1 O1         8.1880   17.1251   17.4807 O.2       1 RES1    0.0000
      2 O2         6.0989   17.0030   16.9662 O.2       1 RES1    0.0000
      3 O3         7.7565    8.2337   19.0831 O.3       1 RES1    0.0000
      4 H1         7.9425    8.4900   19.8621 H         1 RES1    0.0000
      5 O4         5.2930    6.9291   21.6261 O.2       1 RES1    0.0000
      6 O5         7.2923    9.1630   21.5493 O.3       1 RES1    0.0000
      7 H2         7.2488    8.4159   21.9300 H         1 RES1    0.0000
      8 O6         8.6202   10.4581   17.1613 O.2       1 RES1    0.0000
      9 O7         5.6101   10.1610   15.4653 O.2       1 RES1    0.0000
     10 O8         7.7314   10.2403   14.7059 O.3       1 RES1    0.0000
     11 O9         3.7844    9.5618   22.1026 O.2       1 RES1    0.0000
     12 O10        5.6127    9.8488   23.4033 O.3       1 RES1    0.0000
     13 N1         7.1359   16.5126   17.4003 N.pl3     1 RES1    0.0000
     14 C1         6.9910   11.1076   19.3468 C.3       1 RES1    0.0000
     15 H3         7.9201   10.8396   19.6017 H         1 RES1    0.0000
     16 C2         6.5025   10.1557   18.2326 C.3       1 RES1    0.0000
     17 H4         5.5839   10.4346   17.9510 H         1 RES1    0.0000
     18 C3         6.4458    8.6831   18.7348 C.3       1 RES1    0.0000
     19 C4         5.9507    7.7421   17.6413 C.3       1 RES1    0.0000
     20 H5         5.0469    8.0233   17.3507 H         1 RES1    0.0000
     21 H6         6.5564    7.7987   16.8607 H         1 RES1    0.0000
     22 C5         5.8988    6.3017   18.1405 C.3       1 RES1    0.0000
     23 H7         6.8161    5.9953   18.3504 H         1 RES1    0.0000
     24 H8         5.5396    5.7190   17.4235 H         1 RES1    0.0000
     25 C6         5.0236    6.1676   19.3868 C.3       1 RES1    0.0000
     26 H9         4.0734    6.2308   19.1162 H         1 RES1    0.0000
     27 H10        5.1643    5.2683   19.7783 H         1 RES1    0.0000
     28 C7         5.2960    7.1992   20.4368 C.2       1 RES1    0.0000
     29 C8         5.5027    8.6284   19.9665 C.3       1 RES1    0.0000
     30 H11        4.6118    8.9729   19.6701 H         1 RES1    0.0000
     31 C9         5.9867    9.5461   21.0987 C.3       1 RES1    0.0000
     32 C10        6.0969   10.9882   20.5871 C.3       1 RES1    0.0000
     33 H12        5.1914   11.3238   20.3675 H         1 RES1    0.0000
     34 H13        6.4650   11.5603   21.3077 H         1 RES1    0.0000
     35 C11        7.0289   12.5365   18.8372 C.ar      1 RES1    0.0000
     36 C12        8.2329   13.2402   18.8000 C.ar      1 RES1    0.0000
     37 H14        9.0293   12.8293   19.1140 H         1 RES1    0.0000
     38 C13        8.2774   14.5345   18.3074 C.ar      1 RES1    0.0000
     39 H15        9.0981   15.0144   18.2798 H         1 RES1    0.0000
     40 C14        7.1085   15.1159   17.8587 C.ar      1 RES1    0.0000
     41 C15        5.9014   14.4406   17.8629 C.ar      1 RES1    0.0000
     42 H16        5.1123   14.8532   17.5316 H         1 RES1    0.0000
     43 C16        5.8682   13.1497   18.3603 C.ar      1 RES1    0.0000
     44 H17        5.0455   12.6736   18.3769 H         1 RES1    0.0000
     45 C17        7.4321   10.2795   17.0466 C.2       1 RES1    0.0000
     46 C18        6.7992   10.2171   15.6392 C.2       1 RES1    0.0000
     47 C19        7.2518   10.2031   13.3323 C.3       1 RES1    0.0000
     48 H18        6.6042   10.9339   13.1708 H         1 RES1    0.0000
     49 H19        6.8075    9.3393   13.1443 H         1 RES1    0.0000
     50 C20        8.4620   10.3718   12.4650 C.3       1 RES1    0.0000
     51 H20        8.1927   10.3582   11.5222 H         1 RES1    0.0000
     52 H21        9.0915    9.6403   12.6367 H         1 RES1    0.0000
     53 H22        8.8930   11.2285   12.6698 H         1 RES1    0.0000
     54 C21        4.9755    9.6061   22.2520 C.2       1 RES1    0.0000
     55 C22        4.8275   10.2849   24.5489 C.3       1 RES1    0.0000
     56 H23        4.7062    9.5385   25.1874 H         1 RES1    0.0000
     57 H24        3.9356   10.5987   24.2561 H         1 RES1    0.0000
     58 C23        5.5882   11.4067   25.1945 C.3       1 RES1    0.0000
     59 H25        5.1082   11.7092   25.9929 H         1 RES1    0.0000
     60 H26        5.6720   12.1512   24.5628 H         1 RES1    0.0000
     61 H27        6.4803   11.0922   25.4500 H         1 RES1    0.0000
     62 O11       13.6026   16.0997   14.7150 O.2       2 RES2    0.0000
     63 O12       11.5221   16.3249   15.1431 O.2       2 RES2    0.0000
     64 O13       12.9955    7.8587   18.3632 O.3       2 RES2    0.0000
     65 H28       13.1017    7.5784   17.5780 H         2 RES2    0.0000
     66 O14       10.3411    5.4561   17.2379 O.2       2 RES2    0.0000
     67 O15       12.2785    7.1552   15.8447 O.3       2 RES2    0.0000
     68 H29       12.1338    6.3273   15.8191 H         2 RES2    0.0000
     69 O16       13.9988   10.7682   18.6324 O.2       2 RES2    0.0000
     70 O17       11.0742   11.6657   20.2664 O.2       2 RES2    0.0000
     71 O18       13.2363   12.0798   20.7656 O.3       2 RES2    0.0000
     72 O19        8.7371    7.4082   15.5132 O.2       2 RES2    0.0000
     73 O20       10.3680    6.7931   14.0891 O.3       2 RES2    0.0000
     74 N2        12.5353   15.6561   15.0899 N.pl3     2 RES2    0.0000
     75 C24       12.2325   10.0867   16.5260 C.3       2 RES2    0.0000
     76 H30       13.1422    9.6827   16.4238 H         2 RES2    0.0000
     77 C25       11.8184    9.9874   18.0077 C.3       2 RES2    0.0000
     78 H31       10.9201   10.4133   18.1143 H         2 RES2    0.0000
     79 C26       11.7180    8.5030   18.4716 C.3       2 RES2    0.0000
     80 C27       11.3111    8.4090   19.9374 C.3       2 RES2    0.0000
     81 H32       10.4445    8.8696   20.0652 H         2 RES2    0.0000
     82 H33       11.9879    8.8705   20.4933 H         2 RES2    0.0000
     83 C28       11.1830    6.9602   20.3980 C.3       2 RES2    0.0000
     84 H34       10.8512    6.9453   21.3297 H         2 RES2    0.0000
     85 H35       12.0780    6.5368   20.3874 H         2 RES2    0.0000
     86 C29       10.2367    6.1435   19.5203 C.3       2 RES2    0.0000
     87 H36       10.3671    5.1833   19.7187 H         2 RES2    0.0000
     88 H37        9.3040    6.3757   19.7562 H         2 RES2    0.0000
     89 C30       10.4335    6.3634   18.0507 C.2       2 RES2    0.0000
     90 C31       10.6756    7.7890   17.5791 C.3       2 RES2    0.0000
     91 H38        9.8130    8.2838   17.6839 H         2 RES2    0.0000
     92 C32       11.0483    7.8468   16.0899 C.3       2 RES2    0.0000
     93 C33       11.2501    9.3030   15.6399 C.3       2 RES2    0.0000
     94 H39       10.3742    9.7657   15.6469 H         2 RES2    0.0000
     95 H40       11.5860    9.3063   14.7090 H         2 RES2    0.0000
     96 C34       12.3060   11.5493   16.1137 C.ar      2 RES2    0.0000
     97 C35       13.5249   12.1220   15.7535 C.ar      2 RES2    0.0000
     98 H41       14.3055   11.5814   15.7198 H         2 RES2    0.0000
     99 C36       13.6136   13.4705   15.4439 C.ar      2 RES2    0.0000
    100 H42       14.4476   13.8584   15.2078 H         2 RES2    0.0000
    101 C37       12.4676   14.2383   15.4845 C.ar      2 RES2    0.0000
    102 C38       11.2420   13.7063   15.8401 C.ar      2 RES2    0.0000
    103 H43       10.4656   14.2525   15.8698 H         2 RES2    0.0000
    104 C39       11.1694   12.3602   16.1523 C.ar      2 RES2    0.0000
    105 H44       10.3332   11.9823   16.3973 H         2 RES2    0.0000
    106 C40       12.8142   10.7455   18.8591 C.2       2 RES2    0.0000
    107 C41       12.2534   11.5523   20.0519 C.2       2 RES2    0.0000
    108 C42       12.8382   12.8732   21.9174 C.3       2 RES2    0.0000
    109 H45       12.4527   12.2922   22.6186 H         2 RES2    0.0000
    110 H46       12.1597   13.5451   21.6541 H         2 RES2    0.0000
    111 C43       14.0722   13.5519   22.4239 C.3       2 RES2    0.0000
    112 H47       13.8469   14.0975   23.2056 H         2 RES2    0.0000
    113 H48       14.4420   14.1255   21.7203 H         2 RES2    0.0000
    114 H49       14.7353   12.8769   22.6781 H         2 RES2    0.0000
    115 C44        9.9003    7.3008   15.2307 C.2       2 RES2    0.0000
    116 C45        9.3993    6.3628   13.1002 C.3       2 RES2    0.0000
    117 H50        8.5555    6.8700   13.2039 H         2 RES2    0.0000
    118 H51        9.2025    5.3983   13.2105 H         2 RES2    0.0000
    119 C46        9.9829    6.6135   11.7714 C.3       2 RES2    0.0000
    120 H52        9.4390    6.1726   11.0875 H         2 RES2    0.0000
    121 H53       10.8956    6.2574   11.7429 H         2 RES2    0.0000
    122 H54       10.0039    7.5787   11.5995 H         2 RES2    0.0000
    123 O21        8.1146   14.1979    7.9106 O.2       3 RES3    0.0000
    124 O22        6.0575   14.1805    7.3090 O.2       3 RES3    0.0000
    125 O23        7.5793    5.1193    8.0706 O.3       3 RES3    0.0000
    126 H55        7.6756    5.2251    8.8982 H         3 RES3    0.0000
    127 O24        4.8804    3.5406   10.2063 O.2       3 RES3    0.0000
    128 O25        6.8777    5.7156   10.6108 O.3       3 RES3    0.0000
    129 H56        6.7554    4.9923   11.0213 H         3 RES3    0.0000
    130 O26        8.6027    7.5633    6.4843 O.2       3 RES3    0.0000
    131 O27        5.7342    7.3604    4.5352 O.2       3 RES3    0.0000
    132 O28        7.8940    7.6629    3.9696 O.3       3 RES3    0.0000
    133 O29        3.3304    6.1301   10.8180 O.2       3 RES3    0.0000
    134 O30        4.9831    6.1187   12.3514 O.3       3 RES3    0.0000
    135 N3         7.0594   13.6165    7.7202 N.pl3     3 RES3    0.0000
    136 C47        6.8041    7.9471    8.6363 C.3       3 RES3    0.0000
    137 H57        7.7065    7.6349    8.9313 H         3 RES3    0.0000
    138 C48        6.4082    7.1607    7.3684 C.3       3 RES3    0.0000
    139 H58        5.5162    7.4874    7.0555 H         3 RES3    0.0000
    140 C49        6.3012    5.6302    7.6694 C.3       3 RES3    0.0000
    141 C50        5.8839    4.8429    6.4316 C.3       3 RES3    0.0000
    142 H59        4.9997    5.1626    6.1220 H         3 RES3    0.0000
    143 H60        6.5381    5.0041    5.7048 H         3 RES3    0.0000
    144 C51        5.8057    3.3474    6.7165 C.3       3 RES3    0.0000
    145 H61        6.7109    3.0099    6.9319 H         3 RES3    0.0000
    146 H62        5.4916    2.8782    5.9035 H         3 RES3    0.0000
    147 C52        4.8604    3.0308    7.8795 C.3       3 RES3    0.0000
    148 H63        3.9270    3.0888    7.5542 H         3 RES3    0.0000
    149 H64        5.0181    2.0982    8.1722 H         3 RES3    0.0000
    150 C53        5.0162    3.9419    9.0638 C.2       3 RES3    0.0000
    151 C54        5.2602    5.4192    8.7956 C.3       3 RES3    0.0000
    152 H65        4.3962    5.8032    8.4701 H         3 RES3    0.0000
    153 C55        5.6319    6.1780   10.0796 C.3       3 RES3    0.0000
    154 C56        5.8007    7.6670    9.7662 C.3       3 RES3    0.0000
    155 H66        6.1025    8.1346   10.5843 H         3 RES3    0.0000
    156 H67        4.9206    8.0417    9.5118 H         3 RES3    0.0000
    157 C57        6.8748    9.4414    8.3838 C.ar      3 RES3    0.0000
    158 C58        8.0813   10.1249    8.5242 C.ar      3 RES3    0.0000
    159 H68        8.8662    9.6441    8.7614 H         3 RES3    0.0000
    160 C59        8.1532   11.4951    8.3231 C.ar      3 RES3    0.0000
    161 H69        8.9755   11.9604    8.4260 H         3 RES3    0.0000
    162 C60        6.9975   12.1679    7.9705 C.ar      3 RES3    0.0000
    163 C61        5.7820   11.5223    7.8213 C.ar      3 RES3    0.0000
    164 H70        5.0016   12.0079    7.5807 H         3 RES3    0.0000
    165 C62        5.7278   10.1582    8.0300 C.ar      3 RES3    0.0000
    166 H71        4.9011    9.7005    7.9316 H         3 RES3    0.0000
    167 C63        7.4247    7.4079    6.2742 C.2       3 RES3    0.0000
    168 C64        6.8959    7.4744    4.8199 C.2       3 RES3    0.0000
    169 C65        7.4982    7.7167    2.5622 C.3       3 RES3    0.0000
    170 H72        6.9031    8.4899    2.3967 H         3 RES3    0.0000
    171 H73        7.0230    6.8876    2.3040 H         3 RES3    0.0000
    172 C66        8.7843    7.8589    1.7808 C.3       3 RES3    0.0000
    173 H74        9.3233    8.5808    2.1672 H         3 RES3    0.0000
    174 H75        8.5767    8.0698    0.8475 H         3 RES3    0.0000
    175 H76        9.2860    7.0183    1.8207 H         3 RES3    0.0000
    176 C67        4.4983    6.0993   11.1056 C.2       3 RES3    0.0000
    177 C68        4.0283    6.1755   13.4436 C.3       3 RES3    0.0000
    178 H77        3.7866    5.2610   13.7336 H         3 RES3    0.0000
    179 H78        3.2043    6.6413   13.1531 H         3 RES3    0.0000
    180 C69        4.6712    6.9182   14.5647 C.3       3 RES3    0.0000
    181 H79        4.1067    6.8555   15.3645 H         3 RES3    0.0000
    182 H80        4.7794    7.8585   14.3140 H         3 RES3    0.0000
    183 H81        5.5500    6.5271   14.7532 H         3 RES3    0.0000
    184 C70        7.5690    7.8477    2.5666 Du        5 SUP5    0.0000
    185 H82        8.0201    8.6536    2.2069 Du        5 SUP5    0.0000
    186 H83        6.5920    7.9528    2.4452 Du        5 SUP5    0.0000
    187 C71        8.0595    6.6095    1.8648 Du        5 SUP5    0.0000
    188 H84        9.0362    6.5635    1.9266 Du        5 SUP5    0.0000
    189 H85        7.7928    6.6399    0.9225 Du        5 SUP5    0.0000
    190 H86        7.6678    5.8168    2.2886 Du        5 SUP5    0.0000
    191 O31        2.8101   12.6857    2.5673 O.2       4 RES4    0.0000
    192 O32        0.7780   13.0164    3.1022 O.2       4 RES4    0.0000
    193 O33        2.2868    4.9368    7.1941 O.3       4 RES4    0.0000
    194 H87        2.3403    4.5809    6.4353 H         4 RES4    0.0000
    195 O34       -0.4353    2.4672    6.3064 O.2       4 RES4    0.0000
    196 O35        1.4742    4.0972    4.7561 O.3       4 RES4    0.0000
    197 H88        1.3328    3.2687    4.7846 H         4 RES4    0.0000
    198 O36        3.2707    7.8666    7.3410 O.2       4 RES4    0.0000
    199 O37        0.3936    8.7044    9.0894 O.2       4 RES4    0.0000
    200 O38        2.5511    9.2219    9.4568 O.3       4 RES4    0.0000
    201 O39       -2.0695    4.3850    4.5603 O.2       4 RES4    0.0000
    202 O40       -0.5180    3.6792    3.0954 O.3       4 RES4    0.0000
    203 N4         1.7609   12.3083    3.0504 N.pl3     4 RES4    0.0000
    204 C72        1.4691    7.0437    5.3129 C.3       4 RES4    0.0000
    205 H89        2.3636    6.6071    5.2171 H         4 RES4    0.0000
    206 C73        1.0834    7.0392    6.8030 C.3       4 RES4    0.0000
    207 H90        0.1853    7.4667    6.9054 H         4 RES4    0.0000
    208 C74        1.0083    5.5743    7.3331 C.3       4 RES4    0.0000
    209 C75        0.6661    5.5368    8.8146 C.3       4 RES4    0.0000
    210 H91       -0.2111    5.9735    8.9600 H         4 RES4    0.0000
    211 H92        1.3479    6.0441    9.3220 H         4 RES4    0.0000
    212 C76        0.6113    4.1074    9.3343 C.3       4 RES4    0.0000
    213 H93        0.3553    4.1195   10.2908 H         4 RES4    0.0000
    214 H94        1.5120    3.7022    9.2646 H         4 RES4    0.0000
    215 C77       -0.3871    3.2512    8.5559 C.3       4 RES4    0.0000
    216 H95       -0.2429    2.2991    8.7901 H         4 RES4    0.0000
    217 H96       -1.3044    3.4950    8.8386 H         4 RES4    0.0000
    218 C78       -0.2834    3.4039    7.0685 C.2       4 RES4    0.0000
    219 C79       -0.0628    4.8095    6.5229 C.3       4 RES4    0.0000
    220 H97       -0.9241    5.3048    6.6362 H         4 RES4    0.0000
    221 C80        0.2549    4.7999    5.0231 C.3       4 RES4    0.0000
    222 C81        0.4428    6.2315    4.5102 C.3       4 RES4    0.0000
    223 H98       -0.4289    6.7002    4.5418 H         4 RES4    0.0000
    224 H99        0.7324    6.1973    3.5641 H         4 RES4    0.0000
    225 C82        1.5537    8.4406    4.7354 C.ar      4 RES4    0.0000
    226 C83        2.7500    8.9140    4.2119 C.ar      4 RES4    0.0000
    227 H100       3.5240    8.3632    4.2373 H         4 RES4    0.0000
    228 C84        2.8305   10.1812    3.6511 C.ar      4 RES4    0.0000
    229 H101       3.6500   10.5056    3.2971 H         4 RES4    0.0000
    230 C85        1.6922   10.9563    3.6222 C.ar      4 RES4    0.0000
    231 C86        0.4899   10.5163    4.1223 C.ar      4 RES4    0.0000
    232 H102      -0.2824   11.0684    4.0806 H         4 RES4    0.0000
    233 C87        0.4223    9.2558    4.6886 C.ar      4 RES4    0.0000
    234 H103      -0.3997    8.9425    5.0472 H         4 RES4    0.0000
    235 C88        2.0943    7.8318    7.6026 C.2       4 RES4    0.0000
    236 C89        1.5579    8.6432    8.8044 C.2       4 RES4    0.0000
    237 C90        2.1474    9.8481   10.7609 C.3       4 RES4    0.0000
    238 H104       1.4732    9.2782   11.2089 H         4 RES4    0.0000
    239 H105       1.7410   10.7355   10.5931 H         4 RES4    0.0000
    240 C91        3.3579    9.9960   11.6436 C.3       4 RES4    0.0000
    241 H106       3.7205    9.1109   11.8533 H         4 RES4    0.0000
    242 H107       3.1035   10.4517   12.4734 H         4 RES4    0.0000
    243 H108       4.0391   10.5264   11.1758 H         4 RES4    0.0000
    244 C92       -0.9227    4.2385    4.2342 C.2       4 RES4    0.0000
    245 C93       -1.5156    2.8924    2.4254 C.3       4 RES4    0.0000
    246 H109      -2.4193    3.2512    2.6152 H         4 RES4    0.0000
    247 H110      -1.4796    1.9532    2.7388 H         4 RES4    0.0000
    248 C94       -1.2298    2.9609    0.9717 C.3       4 RES4    0.0000
    249 H111      -1.2944    3.8912    0.6687 H         4 RES4    0.0000
    250 H112      -1.8804    2.4139    0.4855 H         4 RES4    0.0000
    251 H113      -0.3254    2.6251    0.8011 H         4 RES4    0.0000
    252 C95        2.1981   10.2595   10.4100 Du        5 SUP5    0.0000
    253 H114       1.2559   10.5464   10.3018 Du        5 SUP5    0.0000
    254 H115       2.7900   11.0485   10.3239 Du        5 SUP5    0.0000
    255 C96        2.4101    9.5597   11.7142 Du        5 SUP5    0.0000
    256 H116       1.8058    8.7898   11.7738 Du        5 SUP5    0.0000
    257 H117       2.2236   10.1774   12.4514 Du        5 SUP5    0.0000
    258 H118       3.3383    9.2518   11.7738 Du        5 SUP5    0.0000
    259 C97       -1.5469    3.3568    2.0701 Du        5 SUP5    0.0000
    260 H119      -1.0883    2.8146    1.3815 Du        5 SUP5    0.0000
    261 H120      -2.1978    2.7556    2.5115 Du        5 SUP5    0.0000
    262 C98       -2.2816    4.2825    1.3970 Du        5 SUP5    0.0000
    263 H121      -2.7695    4.8399    2.0392 Du        5 SUP5    0.0000
    264 H122      -2.9193    3.8269    0.8077 Du        5 SUP5    0.0000
    265 H123      -1.6849    4.8464    0.8607 Du        5 SUP5    0.0000
@<TRIPOS>BOND
     1    1   13 2
     2    2   13 2
     3    3    4 1
     4    5   28 2
     5    6    7 1
     6    8   45 2
     7    9   46 2
     8   10   46 1
     9   11   54 2
    10   12   54 1
    11   13   40 1
    12   14   15 1
    13   16   14 1
    14   17   16 1
    15   18    3 1
    16   19   18 1
    17   20   19 1
    18   21   19 1
    19   22   19 1
    20   23   22 1
    21   24   22 1
    22   25   22 1
    23   26   25 1
    24   27   25 1
    25   28   25 1
    26   29   18 1
    27   30   29 1
    28   31    6 1
    29   32   14 1
    30   33   32 1
    31   34   32 1
    32   35   14 1
    33   36   35 ar
    34   37   36 1
    35   38   36 ar
    36   39   38 1
    37   40   38 ar
    38   41   40 ar
    39   42   41 1
    40   43   35 ar
    41   44   43 1
    42   45   16 1
    43   46   45 1
    44   47   10 1
    45   48   47 1
    46   49   47 1
    47   50   47 1
    48   51   50 1
    49   52   50 1
    50   53   50 1
    51   54   31 1
    52   55   12 1
    53   56   55 1
    54   57   55 1
    55   58   55 1
    56   59   58 1
    57   60   58 1
    58   61   58 1
    59   62   74 2
    60   63   74 2
    61   64   65 1
    62   66   89 2
    63   67   68 1
    64   69  106 2
    65   70  107 2
    66   71  107 1
    67   72  115 2
    68   73  115 1
    69   74  101 1
    70   75   76 1
    71   77   75 1
    72   78   77 1
    73   79   64 1
    74   80   79 1
    75   81   80 1
    76   82   80 1
    77   83   80 1
    78   84   83 1
    79   85   83 1
    80   86   83 1
    81   87   86 1
    82   88   86 1
    83   89   86 1
    84   90   79 1
    85   91   90 1
    86   92   67 1
    87   93   75 1
    88   94   93 1
    89   95   93 1
    90   96   75 1
    91   97   96 ar
    92   98   97 1
    93   99   97 ar
    94  100   99 1
    95  101   99 ar
    96  102  101 ar
    97  103  102 1
    98  104   96 ar
    99  105  104 1
   100  106   77 1
   101  107  106 1
   102  108   71 1
   103  109  108 1
   104  110  108 1
   105  111  108 1
   106  112  111 1
   107  113  111 1
   108  114  111 1
   109  115   92 1
   110  116   73 1
   111  117  116 1
   112  118  116 1
   113  119  116 1
   114  120  119 1
   115  121  119 1
   116  122  119 1
   117  123  135 2
   118  124  135 2
   119  125  126 1
   120  127  150 2
   121  128  129 1
   122  130  167 2
   123  131  168 2
   124  132  168 1
   125  133  176 2
   126  134  176 1
   127  135  162 1
   128  136  137 1
   129  138  136 1
   130  139  138 1
   131  140  125 1
   132  141  140 1
   133  142  141 1
   134  143  141 1
   135  144  141 1
   136  145  144 1
   137  146  144 1
   138  147  144 1
   139  148  147 1
   140  149  147 1
   141  150  147 1
   142  151  140 1
   143  152  151 1
   144  153  128 1
   145  154  136 1
   146  155  154 1
   147  156  154 1
   148  157  136 1
   149  158  157 ar
   150  159  158 1
   151  160  158 ar
   152  161  160 1
   153  162  160 ar
   154  163  162 ar
   155  164  163 1
   156  165  157 ar
   157  166  165 1
   158  167  138 1
   159  168  167 1
   160  169  132 1
   161  170  169 1
   162  171  169 1
   163  172  169 1
   164  173  172 1
   165  174  172 1
   166  175  172 1
   167  176  153 1
   168  177  134 1
   169  178  177 1
   170  179  177 1
   171  180  177 1
   172  181  180 1
   173  182  180 1
   174  183  180 1
   175  191  203 2
   176  192  203 2
   177  193  194 1
   178  195  218 2
   179  196  197 1
   180  198  235 2
   181  199  236 2
   182  200  236 1
   183  201  244 2
   184  202  244 1
   185  203  230 1
   186  204  205 1
   187  206  204 1
   188  207  206 1
   189  208  193 1
   190  209  208 1
   191  210  209 1
   192  211  209 1
   193  212  209 1
   194  213  212 1
   195  214  212 1
   196  215  212 1
   197  216  215 1
   198  217  215 1
   199  218  215 1
   200  219  208 1
   201  220  219 1
   202  221  196 1
   203  222  204 1
   204  223  222 1
   205  224  222 1
   206  225  204 1
   207  226  225 ar
   208  227  226 1
   209  228  226 ar
   210  229  228 1
   211  230  228 ar
   212  231  230 ar
   213  232  231 1
   214  233  225 ar
   215  234  233 1
   216  235  206 1
   217  236  235 1
   218  237  200 1
   219  238  237 1
   220  239  237 1
   221  240  237 1
   222  241  240 1
   223  242  240 1
   224  243  240 1
   225  244  221 1
   226  245  202 1
   227  246  245 1
   228  247  245 1
   229  248  245 1
   230  249  248 1
   231  250  248 1
   232  251  248 1
   233   16   18 1
   234   28   29 1
   235   29   31 1
   236   31   32 1
   237   41   43 ar
   238   77   79 1
   239   89   90 1
   240   90   92 1
   241   92   93 1
   242  102  104 ar
   243  138  140 1
   244  150  151 1
   245  151  153 1
   246  153  154 1
   247  163  165 ar
   248  206  208 1
   249  218  219 1
   250  219  221 1
   251  221  222 1
   252  231  233 ar
@<TRIPOS>SUBSTRUCTURE
     1 RES1 1
     2 RES2 62
     3 RES3 123
     4 RES4 191
     5 SUP5 184

@<TRIPOS>CRYSIN
  10.6916   21.0236   23.1022  72.8407  87.0557  83.8652   2 1

