# MOL2 file generated by ConQuest
# Please check atom types

@<TRIPOS>MOLECULE
XINJAF
    36    38     1
SMALL
NO_CHARGES
****
Generated from CSD

@<TRIPOS>ATOM
      1 O1         3.5644    5.1388    0.4840 O.2       1 RES1    0.0000
      2 O2         5.6486    4.3654    1.9511 O.3       1 RES1    0.0000
      3 O3         3.1056    3.4359    2.9361 O.2       1 RES1    0.0000
      4 O4         9.8273    5.8215    3.6787 O.2       1 RES1    0.0000
      5 O5        10.2773    7.8778    4.0118 O.2       1 RES1    0.0000
      6 N1         9.5189    6.9957    3.6666 N.pl3     1 RES1    0.0000
      7 C1         7.2725    6.3278    2.9603 C.ar      1 RES1    0.0000
      8 C2         8.1831    7.3480    3.1908 C.ar      1 RES1    0.0000
      9 C3         7.8743    8.6679    2.9790 C.ar      1 RES1    0.0000
     10 C4         6.6095    8.9885    2.5451 C.ar      1 RES1    0.0000
     11 C5         3.7981    9.6439    1.8305 C.ar      1 RES1    0.0000
     12 C6         2.5501    9.9312    1.3164 C.ar      1 RES1    0.0000
     13 C7         1.7510    8.9346    0.8005 C.ar      1 RES1    0.0000
     14 C8         2.2109    7.6428    0.8033 C.ar      1 RES1    0.0000
     15 C9         3.9510    5.9436    1.2950 C.2       1 RES1    0.0000
     16 C10        4.9806    5.5493    2.3511 C.3       1 RES1    0.0000
     17 C11        5.9969    6.6597    2.5283 C.ar      1 RES1    0.0000
     18 C12        5.6420    7.9995    2.3334 C.ar      1 RES1    0.0000
     19 C13        4.2819    8.3416    1.8547 C.ar      1 RES1    0.0000
     20 C14        3.4596    7.3342    1.3332 C.ar      1 RES1    0.0000
     21 C15        4.2853    5.3531    3.7169 C.3       1 RES1    0.0000
     22 C16        3.3560    4.1760    3.8541 C.2       1 RES1    0.0000
     23 C17        2.7908    3.9683    5.2116 C.3       1 RES1    0.0000
     24 H1         5.0811    3.9744    1.4834 H         1 RES1    0.0000
     25 H2         7.5305    5.4065    3.1628 H         1 RES1    0.0000
     26 H3         8.5116    9.3611    3.1254 H         1 RES1    0.0000
     27 H4         6.3717    9.8801    2.3511 H         1 RES1    0.0000
     28 H5         4.3454   10.3580    2.1178 H         1 RES1    0.0000
     29 H6         2.2416   10.8556    1.2782 H         1 RES1    0.0000
     30 H7         0.8876    9.1525    0.4758 H         1 RES1    0.0000
     31 H8         1.6721    6.9108    0.4292 H         1 RES1    0.0000
     32 H9         3.7973    6.1882    3.9744 H         1 RES1    0.0000
     33 H10        4.9554    5.2603    4.4129 H         1 RES1    0.0000
     34 H11        3.4293    3.9152    5.9243 H         1 RES1    0.0000
     35 H12        2.3928    4.7955    5.5885 H         1 RES1    0.0000
     36 H13        2.2379    3.1696    5.3459 H         1 RES1    0.0000
@<TRIPOS>BOND
     1    1   15 2
     2    2   16 1
     3    3   22 2
     4    4    6 2
     5    5    6 2
     6    6    8 1
     7    7    8 ar
     8    8    9 ar
     9    9   10 ar
    10   10   18 ar
    11   11   12 ar
    12   12   13 ar
    13   13   14 ar
    14   14   20 ar
    15   15   16 1
    16   16   17 1
    17   17    7 ar
    18   18   17 ar
    19   19   11 ar
    20   20   15 1
    21   21   16 1
    22   22   21 1
    23   23   22 1
    24   24    2 1
    25   25    7 1
    26   26    9 1
    27   27   10 1
    28   28   11 1
    29   29   12 1
    30   30   13 1
    31   31   14 1
    32   32   21 1
    33   33   21 1
    34   34   23 1
    35   35   23 1
    36   36   23 1
    37   18   19 1
    38   19   20 ar
@<TRIPOS>SUBSTRUCTURE
     1 RES1 1

@<TRIPOS>CRYSIN
   9.1100   16.4230   10.0940  90.0000 112.4400  90.0000 231 1

