# MOL2 file generated by ConQuest
# Please check atom types

@<TRIPOS>MOLECULE
XINNAJ
    42    44     1
SMALL
NO_CHARGES
****
Generated from CSD

@<TRIPOS>ATOM
      1 C1         1.2306    7.0993    1.8336 C.3       1 RES1    0.0000
      2 C2         1.0017    6.6874    3.3297 C.2       1 RES1    0.0000
      3 C3         0.2458    7.7232    3.9606 C.2       1 RES1    0.0000
      4 C4        -0.0711    8.7008    3.1164 C.2       1 RES1    0.0000
      5 C5         0.6163    8.5370    1.7726 C.3       1 RES1    0.0000
      6 C6        -0.2167    8.9511    0.5648 C.3       1 RES1    0.0000
      7 C7         0.3888    8.6286   -0.8026 C.3       1 RES1    0.0000
      8 C8         0.0284    7.2291   -1.2925 C.3       1 RES1    0.0000
      9 C9         0.8283    6.1156   -0.6215 C.3       1 RES1    0.0000
     10 C10        0.6522    5.9890    0.9092 C.3       1 RES1    0.0000
     11 C11       -0.0874    9.8129   -1.6571 C.3       1 RES1    0.0000
     12 C12       -0.1910   10.9207   -0.6419 C.2       1 RES1    0.0000
     13 C13       -1.4338    9.6457   -2.3455 C.3       1 RES1    0.0000
     14 C14       -0.8053    5.7371    1.2820 C.3       1 RES1    0.0000
     15 C15       -0.9563    9.8610    3.4064 C.3       1 RES1    0.0000
     16 O1        -0.2635   10.4085    0.6089 O.3       1 RES1    0.0000
     17 O2        -0.2370   12.1056   -0.8195 O.2       1 RES1    0.0000
     18 O3         1.3471    5.6207    3.7829 O.2       1 RES1    0.0000
     19 O4         3.3877    7.4847    2.6709 O.2       1 RES1    0.0000
     20 O5         3.1859    7.4551    0.5330 O.2       1 RES1    0.0000
     21 O6         2.6502    4.7424    1.2973 O.2       1 RES1    0.0000
     22 O7         0.8269    3.6410    1.2811 O.2       1 RES1    0.0000
     23 N1         2.7396    7.3318    1.6512 N.pl3     1 RES1    0.0000
     24 N2         1.4453    4.6808    1.2262 N.pl3     1 RES1    0.0000
     25 H1        -0.0677    7.5811    4.8937 H         1 RES1    0.0000
     26 H2         1.3613    9.1154    1.7767 H         1 RES1    0.0000
     27 H3        -1.1107    8.6089    0.6000 H         1 RES1    0.0000
     28 H4         1.3274    8.6988   -0.7076 H         1 RES1    0.0000
     29 H5         0.2235    7.1796   -2.2536 H         1 RES1    0.0000
     30 H6        -0.9482    7.0553   -1.1782 H         1 RES1    0.0000
     31 H7         0.5147    5.2259   -0.9585 H         1 RES1    0.0000
     32 H8         1.8151    6.2252   -0.7870 H         1 RES1    0.0000
     33 H9         0.5147   10.0757   -2.2832 H         1 RES1    0.0000
     34 H10       -2.1876    9.4839   -1.6832 H         1 RES1    0.0000
     35 H11       -1.6390   10.4278   -2.8053 H         1 RES1    0.0000
     36 H12       -1.3816    8.9296   -3.0391 H         1 RES1    0.0000
     37 H13       -1.2123    5.1690    0.6702 H         1 RES1    0.0000
     38 H14       -0.8127    5.3787    2.1663 H         1 RES1    0.0000
     39 H15       -1.3816    6.5024    1.2000 H         1 RES1    0.0000
     40 H16       -0.4673   10.6526    3.2074 H         1 RES1    0.0000
     41 H17       -1.2055    9.8585    4.2858 H         1 RES1    0.0000
     42 H18       -1.7948    9.8135    2.8832 H         1 RES1    0.0000
@<TRIPOS>BOND
     1    1    2 1
     2    2    3 1
     3    3    4 2
     4    4    5 1
     5    5    1 1
     6    6    5 1
     7    7    6 1
     8    8    7 1
     9    9    8 1
    10   10    1 1
    11   11    7 1
    12   12   11 1
    13   13   11 1
    14   14   10 1
    15   15    4 1
    16   16    6 1
    17   17   12 2
    18   18    2 2
    19   19   23 2
    20   20   23 2
    21   21   24 2
    22   22   24 2
    23   23    1 1
    24   24   10 1
    25   25    3 1
    26   26    5 1
    27   27    6 1
    28   28    7 1
    29   29    8 1
    30   30    8 1
    31   31    9 1
    32   32    9 1
    33   33   11 1
    34   34   13 1
    35   35   13 1
    36   36   13 1
    37   37   14 1
    38   38   14 1
    39   39   14 1
    40   40   15 1
    41   41   15 1
    42   42   15 1
    43    9   10 1
    44   12   16 1
@<TRIPOS>SUBSTRUCTURE
     1 RES1 1

@<TRIPOS>CRYSIN
   6.7727   14.9825   15.5849  90.0000  90.0000  90.0000  19 1

