# MOL2 file generated by ConQuest
# Please check atom types

@<TRIPOS>MOLECULE
XINNAJ01
    24    26     1
SMALL
NO_CHARGES
****
Generated from CSD

@<TRIPOS>ATOM
      1 C1         1.2306    7.0987    1.8343 C.3       1 RES1    0.0000
      2 C2         1.0017    6.6882    3.3305 C.2       1 RES1    0.0000
      3 C3         0.2458    7.7235    3.9601 C.2       1 RES1    0.0000
      4 C4        -0.0711    8.7003    3.1170 C.2       1 RES1    0.0000
      5 C5         0.6163    8.5370    1.7720 C.3       1 RES1    0.0000
      6 C6        -0.2167    8.9505    0.5642 C.3       1 RES1    0.0000
      7 C7         0.3888    8.6284   -0.8026 C.3       1 RES1    0.0000
      8 C8         0.0284    7.2291   -1.2920 C.3       1 RES1    0.0000
      9 C9         0.8283    6.1159   -0.6218 C.3       1 RES1    0.0000
     10 C10        0.6522    5.9885    0.9086 C.3       1 RES1    0.0000
     11 C11       -0.0874    9.8135   -1.6567 C.3       1 RES1    0.0000
     12 C12       -0.1910   10.9207   -0.6421 C.2       1 RES1    0.0000
     13 C13       -1.4338    9.6457   -2.3455 C.3       1 RES1    0.0000
     14 C14       -0.8053    5.7368    1.2826 C.3       1 RES1    0.0000
     15 C15       -0.9563    9.8615    3.4069 C.3       1 RES1    0.0000
     16 O1        -0.2635   10.4083    0.6094 O.3       1 RES1    0.0000
     17 O2        -0.2370   12.1059   -0.8198 O.2       1 RES1    0.0000
     18 O3         1.3471    5.6214    3.7825 O.2       1 RES1    0.0000
     19 O4         3.3877    7.4853    2.6713 O.2       1 RES1    0.0000
     20 O5         3.1859    7.4553    0.5330 O.2       1 RES1    0.0000
     21 O6         2.6502    4.7420    1.2967 O.2       1 RES1    0.0000
     22 O7         0.8269    3.6407    1.2811 O.2       1 RES1    0.0000
     23 N1         2.7396    7.3324    1.6520 N.pl3     1 RES1    0.0000
     24 N2         1.4453    4.6805    1.2265 N.pl3     1 RES1    0.0000
@<TRIPOS>BOND
     1    1    2 1
     2    2    3 1
     3    3    4 2
     4    4    5 1
     5    5    1 1
     6    6    5 1
     7    7    6 1
     8    8    7 1
     9    9    8 1
    10   10    1 1
    11   11    7 1
    12   12   11 1
    13   13   11 1
    14   14   10 1
    15   15    4 1
    16   16    6 1
    17   17   12 2
    18   18    2 2
    19   19   23 2
    20   20   23 2
    21   21   24 2
    22   22   24 2
    23   23    1 1
    24   24   10 1
    25    9   10 1
    26   12   16 1
@<TRIPOS>SUBSTRUCTURE
     1 RES1 1

@<TRIPOS>CRYSIN
   6.7727   14.9825   15.5849  90.0000  90.0000  90.0000  19 1

