# MOL2 file generated by ConQuest
# Please check atom types

@<TRIPOS>MOLECULE
XIQKAM
    71    75     1
SMALL
NO_CHARGES
****
Generated from CSD

@<TRIPOS>ATOM
      1 O1        10.2246    6.5091    4.5243 O.2       1 RES1    0.0000
      2 O2        10.5988    9.5196    3.1432 O.3       1 RES1    0.0000
      3 H1        10.8209   10.2971    3.2824 H         1 RES1    0.0000
      4 O3         8.9823   11.6420    3.3743 O.3       1 RES1    0.0000
      5 O4         7.0487   10.3085    3.3966 O.3       1 RES1    0.0000
      6 O5         5.0660    7.5301    4.8860 O.2       1 RES1    0.0000
      7 O6         5.9528    6.7593    6.6138 O.2       1 RES1    0.0000
      8 O7        11.5688    5.6209    2.2273 O.3       1 RES1    0.0000
      9 N1        10.5903    6.5846    2.2747 N.am      1 RES1    0.0000
     10 N2         6.0271    7.2903    5.5616 N.pl3     1 RES1    0.0000
     11 C1         9.9554    7.0385    1.1201 C.ar      1 RES1    0.0000
     12 C2        10.2400    6.7521   -0.1936 C.ar      1 RES1    0.0000
     13 H2        10.9657    6.2188   -0.4294 H         1 RES1    0.0000
     14 C3         9.4015    7.2915   -1.1450 C.ar      1 RES1    0.0000
     15 H3         9.5781    7.1340   -2.0436 H         1 RES1    0.0000
     16 C4         8.3208    8.0491   -0.8064 C.ar      1 RES1    0.0000
     17 H4         7.7640    8.3892   -1.4703 H         1 RES1    0.0000
     18 C5         8.0496    8.3152    0.5344 C.ar      1 RES1    0.0000
     19 H5         7.3047    8.8199    0.7711 H         1 RES1    0.0000
     20 C6         8.8882    7.8297    1.5031 C.ar      1 RES1    0.0000
     21 C7         8.8428    7.9176    3.0187 C.3       1 RES1    0.0000
     22 C8         9.9515    6.9247    3.4269 C.2       1 RES1    0.0000
     23 C9        12.8174    6.2164    2.6012 C.3       1 RES1    0.0000
     24 H6        13.0384    6.9144    1.9784 H         1 RES1    0.0000
     25 H7        13.5064    5.5482    2.5899 H         1 RES1    0.0000
     26 H8        12.7441    6.5875    3.4825 H         1 RES1    0.0000
     27 C10        7.4938    7.4633    3.5755 C.3       1 RES1    0.0000
     28 H9         6.7836    7.9477    3.1250 H         1 RES1    0.0000
     29 H10        7.3741    6.5195    3.3925 H         1 RES1    0.0000
     30 C11        7.3867    7.6983    5.0695 C.3       1 RES1    0.0000
     31 H11        8.0458    7.1220    5.5081 H         1 RES1    0.0000
     32 C12        7.6984    9.1504    5.4696 C.3       1 RES1    0.0000
     33 H12        7.6183    9.2339    6.4433 H         1 RES1    0.0000
     34 C13        9.1545    9.3790    5.0758 C.3       1 RES1    0.0000
     35 H13        9.4536   10.2434    5.4002 H         1 RES1    0.0000
     36 H14        9.7161    8.6946    5.4721 H         1 RES1    0.0000
     37 C14        9.2654    9.3280    3.5674 C.3       1 RES1    0.0000
     38 C15        8.3835   10.4363    2.9843 C.3       1 RES1    0.0000
     39 H15        8.4144   10.3758    2.0076 H         1 RES1    0.0000
     40 C16        6.8589   10.2302    4.8161 C.3       1 RES1    0.0000
     41 H16        5.9229   10.0572    5.0000 H         1 RES1    0.0000
     42 H17        7.0847   11.0869    5.2113 H         1 RES1    0.0000
     43 C17        8.5437   12.8144    2.6457 C.3       1 RES1    0.0000
     44 H18        8.1596   12.5259    1.7918 H         1 RES1    0.0000
     45 C18        9.7499   13.6874    2.3642 C.3       1 RES1    0.0000
     46 H19       10.1127   13.9565    3.2352 H         1 RES1    0.0000
     47 C19        9.2741   14.9693    1.6682 C.3       1 RES1    0.0000
     48 H20       10.0345   15.5530    1.5220 H         1 RES1    0.0000
     49 H21        8.9007   14.7428    0.8026 H         1 RES1    0.0000
     50 C20        8.2320   15.7046    2.4831 C.3       1 RES1    0.0000
     51 H22        8.6286   15.9992    3.3183 H         1 RES1    0.0000
     52 H23        7.9425   16.4920    1.9964 H         1 RES1    0.0000
     53 C21        7.0316   14.8335    2.7817 C.3       1 RES1    0.0000
     54 H24        6.6003   14.6116    1.9312 H         1 RES1    0.0000
     55 C22        7.4764   13.5352    3.4357 C.3       1 RES1    0.0000
     56 H25        7.8171   13.7286    4.3233 H         1 RES1    0.0000
     57 H26        6.7074   12.9519    3.5342 H         1 RES1    0.0000
     58 C23        6.0251   15.5637    3.6353 C.3       1 RES1    0.0000
     59 H27        5.2503   15.0101    3.7612 H         1 RES1    0.0000
     60 H28        5.7685   16.3798    3.2014 H         1 RES1    0.0000
     61 H29        6.4160   15.7642    4.4897 H         1 RES1    0.0000
     62 C24       10.8846   12.9841    1.6115 C.3       1 RES1    0.0000
     63 H30       11.1307   12.2002    2.1470 H         1 RES1    0.0000
     64 C25       12.1236   13.8479    1.5193 C.3       1 RES1    0.0000
     65 H31       12.8290   13.3528    1.0971 H         1 RES1    0.0000
     66 H32       12.3996   14.1068    2.4011 H         1 RES1    0.0000
     67 H33       11.9287   14.6330    1.0027 H         1 RES1    0.0000
     68 C26       10.4871   12.4650    0.2379 C.3       1 RES1    0.0000
     69 H34       10.1918   13.1977   -0.3080 H         1 RES1    0.0000
     70 H35        9.7749   11.8279    0.3305 H         1 RES1    0.0000
     71 H36       11.2426   12.0415   -0.1754 H         1 RES1    0.0000
@<TRIPOS>BOND
     1    1   22 2
     2    2    3 1
     3    4   38 1
     4    5   38 1
     5    6   10 2
     6    7   10 2
     7    8    9 1
     8    9   11 1
     9   10   30 1
    10   11   12 ar
    11   12   13 1
    12   14   12 ar
    13   15   14 1
    14   16   14 ar
    15   17   16 1
    16   18   16 ar
    17   19   18 1
    18   20   11 ar
    19   21   20 1
    20   22    9 1
    21   23    8 1
    22   24   23 1
    23   25   23 1
    24   26   23 1
    25   27   21 1
    26   28   27 1
    27   29   27 1
    28   30   27 1
    29   31   30 1
    30   32   30 1
    31   33   32 1
    32   34   32 1
    33   35   34 1
    34   36   34 1
    35   37    2 1
    36   38   37 1
    37   39   38 1
    38   40    5 1
    39   41   40 1
    40   42   40 1
    41   43    4 1
    42   44   43 1
    43   45   43 1
    44   46   45 1
    45   47   45 1
    46   48   47 1
    47   49   47 1
    48   50   47 1
    49   51   50 1
    50   52   50 1
    51   53   50 1
    52   54   53 1
    53   55   43 1
    54   56   55 1
    55   57   55 1
    56   58   53 1
    57   59   58 1
    58   60   58 1
    59   61   58 1
    60   62   45 1
    61   63   62 1
    62   64   62 1
    63   65   64 1
    64   66   64 1
    65   67   64 1
    66   68   62 1
    67   69   68 1
    68   70   68 1
    69   71   68 1
    70   18   20 ar
    71   21   22 1
    72   21   37 1
    73   32   40 1
    74   34   37 1
    75   53   55 1
@<TRIPOS>SUBSTRUCTURE
     1 RES1 1

@<TRIPOS>CRYSIN
   9.6495   11.9317   22.4820  90.0000  90.0000  90.0000  19 1

