# MOL2 file generated by ConQuest
# Please check atom types

@<TRIPOS>MOLECULE
XIQKEQ
    40    43     1
SMALL
NO_CHARGES
****
Generated from CSD

@<TRIPOS>ATOM
      1 O1        -1.1797   -2.7269    2.9590 O.3       1 RES1    0.0000
      2 O2        -0.7856   -0.8399    5.0251 O.2       1 RES1    0.0000
      3 O3         1.2173    2.6498    3.2032 O.3       1 RES1    0.0000
      4 O4        -2.0783    1.7038    3.6883 O.2       1 RES1    0.0000
      5 O5         2.3159    1.1140    8.0378 O.2       1 RES1    0.0000
      6 O6         3.6495    1.4856    6.5271 O.2       1 RES1    0.0000
      7 N1        -0.3813   -1.6049    2.8962 N.am      1 RES1    0.0000
      8 N2         2.5664    1.1984    6.8830 N.pl3     1 RES1    0.0000
      9 C1        -0.1969   -0.7752    3.9653 C.2       1 RES1    0.0000
     10 C2         0.8855    0.2327    3.5478 C.3       1 RES1    0.0000
     11 C3         1.4124   -0.3781    2.2685 C.ar      1 RES1    0.0000
     12 C4         2.4458    0.0153    1.4421 C.ar      1 RES1    0.0000
     13 H1         2.9997    0.7541    1.6661 H         1 RES1    0.0000
     14 C5         2.6519   -0.7105    0.2604 C.ar      1 RES1    0.0000
     15 H2         3.3593   -0.4632   -0.3234 H         1 RES1    0.0000
     16 C6         1.8443   -1.7758   -0.0672 C.ar      1 RES1    0.0000
     17 H3         2.0122   -2.2492   -0.8736 H         1 RES1    0.0000
     18 C7         0.7841   -2.1852    0.7504 C.ar      1 RES1    0.0000
     19 H4         0.2259   -2.9196    0.5250 H         1 RES1    0.0000
     20 C8         0.6030   -1.4493    1.9053 C.ar      1 RES1    0.0000
     21 C9        -2.5523   -2.3575    2.7469 C.3       1 RES1    0.0000
     22 H5        -2.6597   -2.0121    1.8355 H         1 RES1    0.0000
     23 H6        -2.8070   -1.6638    3.3910 H         1 RES1    0.0000
     24 H7        -3.1250   -3.1429    2.8687 H         1 RES1    0.0000
     25 C10        0.2445    1.6223    3.1969 C.3       1 RES1    0.0000
     26 H8        -0.0968    1.5540    2.2597 H         1 RES1    0.0000
     27 C11       -0.9564    1.9343    4.0799 C.2       1 RES1    0.0000
     28 C12       -0.6209    2.5255    5.4157 C.3       1 RES1    0.0000
     29 H9        -1.0700    2.0063    6.1295 H         1 RES1    0.0000
     30 H10       -0.9544    3.4570    5.4575 H         1 RES1    0.0000
     31 C13        0.8946    2.5131    5.6507 C.3       1 RES1    0.0000
     32 H11        1.0807    3.0505    6.4725 H         1 RES1    0.0000
     33 C14        1.4309    1.0893    5.8878 C.3       1 RES1    0.0000
     34 H12        0.7019    0.5403    6.2975 H         1 RES1    0.0000
     35 C15        1.9505    0.3592    4.6499 C.3       1 RES1    0.0000
     36 H13        2.2537   -0.5461    4.9114 H         1 RES1    0.0000
     37 H14        2.7324    0.8479    4.2898 H         1 RES1    0.0000
     38 C16        1.5851    3.2003    4.4802 C.3       1 RES1    0.0000
     39 H15        1.3564    4.1638    4.4928 H         1 RES1    0.0000
     40 H16        2.5655    3.1218    4.5936 H         1 RES1    0.0000
@<TRIPOS>BOND
     1    1    7 1
     2    2    9 2
     3    3   25 1
     4    4   27 2
     5    5    8 2
     6    6    8 2
     7    7    9 1
     8    8   33 1
     9    9   10 1
    10   10   11 1
    11   11   12 ar
    12   12   13 1
    13   14   12 ar
    14   15   14 1
    15   16   14 ar
    16   17   16 1
    17   18   16 ar
    18   19   18 1
    19   20    7 1
    20   21    1 1
    21   22   21 1
    22   23   21 1
    23   24   21 1
    24   25   10 1
    25   26   25 1
    26   27   25 1
    27   28   27 1
    28   29   28 1
    29   30   28 1
    30   31   28 1
    31   32   31 1
    32   33   31 1
    33   34   33 1
    34   35   10 1
    35   36   35 1
    36   37   35 1
    37   38    3 1
    38   39   38 1
    39   40   38 1
    40   11   20 ar
    41   18   20 ar
    42   31   38 1
    43   33   35 1
@<TRIPOS>SUBSTRUCTURE
     1 RES1 1

@<TRIPOS>CRYSIN
   7.2309    7.2718   14.0359  90.0000  94.0610  90.0000   4 1

