# MOL2 file generated by ConQuest
# Please check atom types

@<TRIPOS>MOLECULE
XIQQOG
    48    52     1
SMALL
NO_CHARGES
****
Generated from CSD

@<TRIPOS>ATOM
      1 C1         4.7586    6.1718    9.1819 C.ar      1 RES1    0.0000
      2 H1         4.0028    5.7868    9.6100 H         1 RES1    0.0000
      3 C2         4.6695    7.4459    8.6412 C.ar      1 RES1    0.0000
      4 H2         3.8529    7.9281    8.6973 H         1 RES1    0.0000
      5 C3         5.7697    8.0185    8.0185 C.ar      1 RES1    0.0000
      6 H3         5.7103    8.8970    7.6618 H         1 RES1    0.0000
      7 C4         6.9551    7.3077    7.9173 C.ar      1 RES1    0.0000
      8 H4         7.7013    7.6906    7.4710 H         1 RES1    0.0000
      9 C5         7.0533    6.0364    8.4673 C.ar      1 RES1    0.0000
     10 H5         7.8741    5.5614    8.4125 H         1 RES1    0.0000
     11 C6         5.9534    5.4500    9.1014 C.ar      1 RES1    0.0000
     12 C7         6.0986    4.0964    9.6981 C.ar      1 RES1    0.0000
     13 N1         7.2129    3.8747   10.3747 N.ar      1 RES1    0.0000
     14 C8         7.3640    2.6484   10.9611 C.ar      1 RES1    0.0000
     15 C9         8.5193    2.3976   11.7468 C.ar      1 RES1    0.0000
     16 H6         9.1885    3.0647   11.8450 H         1 RES1    0.0000
     17 C10        8.6571    1.1807   12.3622 C.ar      1 RES1    0.0000
     18 H7         9.4279    1.0081   12.8902 H         1 RES1    0.0000
     19 C11        7.6733    0.1816   12.2240 C.ar      1 RES1    0.0000
     20 H8         7.7887   -0.6515   12.6657 H         1 RES1    0.0000
     21 C12        6.5520    0.3910   11.4626 C.ar      1 RES1    0.0000
     22 H9         5.9016   -0.2943   11.3635 H         1 RES1    0.0000
     23 C13        6.3780    1.6452   10.8260 C.ar      1 RES1    0.0000
     24 N2         5.2394    1.8725   10.0963 N.ar      1 RES1    0.0000
     25 C14        5.0990    3.0636    9.5487 C.ar      1 RES1    0.0000
     26 C15        3.8385    3.2956    8.7777 C.ar      1 RES1    0.0000
     27 C16        2.6280    3.2221    9.4671 C.ar      1 RES1    0.0000
     28 H10        2.6233    2.9533   10.3782 H         1 RES1    0.0000
     29 C17        1.4283    3.5369    8.8386 C.ar      1 RES1    0.0000
     30 H11        0.6115    3.5008    9.3225 H         1 RES1    0.0000
     31 C18        1.4313    3.9030    7.5041 C.ar      1 RES1    0.0000
     32 H12        0.6157    4.1253    7.0706 H         1 RES1    0.0000
     33 C19        2.6282    3.9456    6.7976 C.ar      1 RES1    0.0000
     34 H13        2.6187    4.1796    5.8769 H         1 RES1    0.0000
     35 C20        3.8439    3.6503    7.4181 C.ar      1 RES1    0.0000
     36 C21        5.1004    3.7247    6.6214 C.ar      1 RES1    0.0000
     37 C22        5.3284    4.8032    5.7564 C.ar      1 RES1    0.0000
     38 H14        4.6796    5.4944    5.6936 H         1 RES1    0.0000
     39 C23        6.4821    4.8825    4.9894 C.ar      1 RES1    0.0000
     40 H15        6.6117    5.6214    4.4065 H         1 RES1    0.0000
     41 C24        7.4472    3.8897    5.0690 C.ar      1 RES1    0.0000
     42 H16        8.2369    3.9289    4.5423 H         1 RES1    0.0000
     43 C25        7.2201    2.8387    5.9428 C.ar      1 RES1    0.0000
     44 C26        6.0743    2.7302    6.7184 C.ar      1 RES1    0.0000
     45 H17        5.9551    1.9922    7.3046 H         1 RES1    0.0000
     46 N3         8.2426    1.7872    6.0690 N.pl3     1 RES1    0.0000
     47 O1         9.1891    1.8066    5.2964 O.2       1 RES1    0.0000
     48 O2         8.0989    0.9323    6.9376 O.2       1 RES1    0.0000
@<TRIPOS>BOND
     1    1    2 1
     2    3    1 ar
     3    4    3 1
     4    5    3 ar
     5    6    5 1
     6    7    5 ar
     7    8    7 1
     8    9    7 ar
     9   10    9 1
    10   11    1 ar
    11   12   11 1
    12   13   12 ar
    13   14   13 ar
    14   15   14 ar
    15   16   15 1
    16   17   15 ar
    17   18   17 1
    18   19   17 ar
    19   20   19 1
    20   21   19 ar
    21   22   21 1
    22   23   14 ar
    23   24   23 ar
    24   25   12 ar
    25   26   25 1
    26   27   26 ar
    27   28   27 1
    28   29   27 ar
    29   30   29 1
    30   31   29 ar
    31   32   31 1
    32   33   31 ar
    33   34   33 1
    34   35   26 ar
    35   36   35 1
    36   37   36 ar
    37   38   37 1
    38   39   37 ar
    39   40   39 1
    40   41   39 ar
    41   42   41 1
    42   43   41 ar
    43   44   36 ar
    44   45   44 1
    45   46   43 1
    46   47   46 2
    47   48   46 2
    48    9   11 ar
    49   21   23 ar
    50   24   25 ar
    51   33   35 ar
    52   43   44 ar
@<TRIPOS>SUBSTRUCTURE
     1 RES1 1

@<TRIPOS>CRYSIN
   9.3417    9.4841   22.2977  90.0000  90.7200  90.0000  14 1

