# MOL2 file generated by ConQuest
# Please check atom types

@<TRIPOS>MOLECULE
XIQXOL
    31    33     1
SMALL
NO_CHARGES
****
Generated from CSD

@<TRIPOS>ATOM
      1 N1         7.9195    9.2013    1.2351 N.pl3     1 RES1    0.0000
      2 O1         8.8448    8.6870    1.8262 O.2       1 RES1    0.0000
      3 O2         8.0844   10.1879    0.4986 O.2       1 RES1    0.0000
      4 O3         5.5640   10.3599   -0.0260 O.3       1 RES1    0.0000
      5 H1         6.3344   10.6371   -0.0602 H         1 RES1    0.0000
      6 O4         6.2374    6.5797    5.0962 O.2       1 RES1    0.0000
      7 O5         4.2184    3.5477    3.2755 O.3       1 RES1    0.0000
      8 O6         5.0282    0.5860    6.8591 O.3       1 RES1    0.0000
      9 H2         4.7462    0.0404    6.3158 H         1 RES1    0.0000
     10 C1         6.5951    8.6776    1.3930 C.ar      1 RES1    0.0000
     11 C2         5.5140    9.2700    0.7604 C.ar      1 RES1    0.0000
     12 C3         4.2701    8.7052    0.9629 C.ar      1 RES1    0.0000
     13 H3         3.5227    9.0721    0.5495 H         1 RES1    0.0000
     14 C4         4.1318    7.6036    1.7711 C.ar      1 RES1    0.0000
     15 H4         3.2841    7.2420    1.8947 H         1 RES1    0.0000
     16 C5         5.2135    7.0090    2.4110 C.ar      1 RES1    0.0000
     17 C6         6.4527    7.5588    2.2053 C.ar      1 RES1    0.0000
     18 H5         7.2005    7.1820    2.6104 H         1 RES1    0.0000
     19 C7         5.0668    5.7839    3.2202 C.2       1 RES1    0.0000
     20 C8         4.3906    4.7436    2.6967 C.2       1 RES1    0.0000
     21 H6         4.0090    4.8666    1.8573 H         1 RES1    0.0000
     22 C9         4.7862    3.3400    4.5083 C.ar      1 RES1    0.0000
     23 C10        5.4586    4.3535    5.1690 C.ar      1 RES1    0.0000
     24 C11        5.6489    5.6459    4.5478 C.2       1 RES1    0.0000
     25 C12        4.6151    2.0815    5.0246 C.ar      1 RES1    0.0000
     26 H7         4.1514    1.4321    4.5467 H         1 RES1    0.0000
     27 C13        5.1442    1.7986    6.2638 C.ar      1 RES1    0.0000
     28 C14        5.8055    2.7959    6.9816 C.ar      1 RES1    0.0000
     29 H8         6.1374    2.6141    7.8313 H         1 RES1    0.0000
     30 C15        5.9669    4.0389    6.4404 C.ar      1 RES1    0.0000
     31 H9         6.4227    4.6903    6.9224 H         1 RES1    0.0000
@<TRIPOS>BOND
     1    1    2 2
     2    3    1 2
     3    4    5 1
     4    6   24 2
     5    7   20 1
     6    8    9 1
     7   10    1 1
     8   11    4 1
     9   12   11 ar
    10   13   12 1
    11   14   12 ar
    12   15   14 1
    13   16   14 ar
    14   17   10 ar
    15   18   17 1
    16   19   16 1
    17   20   19 2
    18   21   20 1
    19   22    7 1
    20   23   22 ar
    21   24   19 1
    22   25   22 ar
    23   26   25 1
    24   27    8 1
    25   28   27 ar
    26   29   28 1
    27   30   23 ar
    28   31   30 1
    29   10   11 ar
    30   16   17 ar
    31   23   24 1
    32   25   27 ar
    33   28   30 ar
@<TRIPOS>SUBSTRUCTURE
     1 RES1 1

@<TRIPOS>CRYSIN
   7.8860    8.0460   11.1160  87.8530  69.6800  71.2450   2 1

