# MOL2 file generated by ConQuest
# Please check atom types

@<TRIPOS>MOLECULE
XIQXEB
    50    51     1
SMALL
NO_CHARGES
****
Generated from CSD

@<TRIPOS>ATOM
      1 N1         8.0482    3.8230    1.0058 N.2       1 RES1    0.0000
      2 O1         6.9127    3.4321    0.2861 O.3       1 RES1    0.0000
      3 O2        10.1941    3.3824    2.3759 O.3       1 RES1    0.0000
      4 H1         9.5349    3.1786    1.9332 H         1 RES1    0.0000
      5 C1         6.7640    2.0091    0.3859 C.3       1 RES1    0.0000
      6 H2         6.7278    1.7411    1.3173 H         1 RES1    0.0000
      7 H3         7.5171    1.5638   -0.0325 H         1 RES1    0.0000
      8 C2         5.4825    1.6342   -0.3139 C.3       1 RES1    0.0000
      9 H4         5.3963    0.6684   -0.3104 H         1 RES1    0.0000
     10 H5         5.5373    1.9216   -1.2391 H         1 RES1    0.0000
     11 C3         8.2080    5.1010    1.0434 C.2       1 RES1    0.0000
     12 C4         9.3835    5.5944    1.7951 C.ar      1 RES1    0.0000
     13 C5        10.3011    4.7323    2.4320 C.ar      1 RES1    0.0000
     14 C6        11.3667    5.2512    3.1545 C.ar      1 RES1    0.0000
     15 H6        11.9631    4.6735    3.5741 H         1 RES1    0.0000
     16 C7        11.5521    6.6159    3.2575 C.ar      1 RES1    0.0000
     17 H7        12.2658    6.9513    3.7510 H         1 RES1    0.0000
     18 C8        10.6829    7.4811    2.6299 C.ar      1 RES1    0.0000
     19 H8        10.8149    8.4004    2.6863 H         1 RES1    0.0000
     20 C9         9.6146    6.9730    1.9151 C.ar      1 RES1    0.0000
     21 H9         9.0295    7.5647    1.5002 H         1 RES1    0.0000
     22 C10        7.2662    6.0567    0.3858 C.3       1 RES1    0.0000
     23 H10        6.5665    5.5672   -0.0529 H         1 RES1    0.0000
     24 H11        7.7437    6.5819   -0.2611 H         1 RES1    0.0000
     25 H12        6.8839    6.6361    1.0490 H         1 RES1    0.0000
     26 N1E        1.6723    0.0496   -1.0058 N.2       1 RES1    0.0000
     27 O1E        2.8078    0.4405   -0.2861 O.3       1 RES1    0.0000
     28 O2E       -0.4736    0.4902   -2.3759 O.3       1 RES1    0.0000
     29 H1E        0.1856    0.6940   -1.9332 H         1 RES1    0.0000
     30 C1E        2.9565    1.8635   -0.3859 C.3       1 RES1    0.0000
     31 H2E        2.9927    2.1315   -1.3173 H         1 RES1    0.0000
     32 H3E        2.2034    2.3088    0.0325 H         1 RES1    0.0000
     33 C2E        4.2380    2.2384    0.3139 C.3       1 RES1    0.0000
     34 H4E        4.3242    3.2042    0.3104 H         1 RES1    0.0000
     35 H5E        4.1832    1.9510    1.2391 H         1 RES1    0.0000
     36 C3E        1.5125   -1.2284   -1.0434 C.2       1 RES1    0.0000
     37 C4E        0.3370   -1.7218   -1.7951 C.ar      1 RES1    0.0000
     38 C5E       -0.5806   -0.8597   -2.4320 C.ar      1 RES1    0.0000
     39 C6E       -1.6462   -1.3786   -3.1545 C.ar      1 RES1    0.0000
     40 H6E       -2.2426   -0.8009   -3.5741 H         1 RES1    0.0000
     41 C7E       -1.8316   -2.7433   -3.2575 C.ar      1 RES1    0.0000
     42 H7E       -2.5453   -3.0787   -3.7510 H         1 RES1    0.0000
     43 C8E       -0.9624   -3.6085   -2.6299 C.ar      1 RES1    0.0000
     44 H8E       -1.0944   -4.5278   -2.6863 H         1 RES1    0.0000
     45 C9E        0.1059   -3.1004   -1.9151 C.ar      1 RES1    0.0000
     46 H9E        0.6910   -3.6921   -1.5002 H         1 RES1    0.0000
     47 C10E       2.4543   -2.1841   -0.3858 C.3       1 RES1    0.0000
     48 H10E       3.1540   -1.6946    0.0529 H         1 RES1    0.0000
     49 H11E       1.9768   -2.7093    0.2611 H         1 RES1    0.0000
     50 H12E       2.8366   -2.7635   -1.0490 H         1 RES1    0.0000
@<TRIPOS>BOND
     1    1    2 1
     2    2    5 1
     3    3    4 1
     4    5    6 1
     5    7    5 1
     6    8    5 1
     7    9    8 1
     8   10    8 1
     9   11    1 2
    10   12   11 1
    11   13    3 1
    12   14   13 ar
    13   15   14 1
    14   16   14 ar
    15   17   16 1
    16   18   16 ar
    17   19   18 1
    18   20   12 ar
    19   21   20 1
    20   22   11 1
    21   23   22 1
    22   24   22 1
    23   25   22 1
    24   26   27 1
    25   27   30 1
    26   28   29 1
    27   30   31 1
    28   32   30 1
    29   33    8 1
    30   34   33 1
    31   35   33 1
    32   36   26 2
    33   37   36 1
    34   38   28 1
    35   39   38 ar
    36   40   39 1
    37   41   39 ar
    38   42   41 1
    39   43   41 ar
    40   44   43 1
    41   45   37 ar
    42   46   45 1
    43   47   36 1
    44   48   47 1
    45   49   47 1
    46   50   47 1
    47   12   13 ar
    48   18   20 ar
    49   30   33 1
    50   37   38 ar
    51   43   45 ar
@<TRIPOS>SUBSTRUCTURE
     1 RES1 1

@<TRIPOS>CRYSIN
  19.4410    7.7452   13.8750  90.0000 119.8840  90.0000  15 1

