# MOL2 file generated by ConQuest
# Please check atom types

@<TRIPOS>MOLECULE
XIQYAY
    34    36     1
SMALL
NO_CHARGES
****
Generated from CSD

@<TRIPOS>ATOM
      1 C1         7.4878    6.2498   -0.7466 C.1       1 RES1    0.0000
      2 N1         8.2572    3.8759    0.3286 N.3       1 RES1    0.0000
      3 N2         6.8269    2.6390    2.4612 N.pl3     1 RES1    0.0000
      4 O1         5.4646    8.1091   -0.8587 O.3       1 RES1    0.0000
      5 O2         7.4184    1.8010    1.7922 O.2       1 RES1    0.0000
      6 O3         6.6409    2.5052    3.6631 O.2       1 RES1    0.0000
      7 C2         4.8394    9.3244   -1.0021 C.2       1 RES1    0.0000
      8 H1         4.9225    9.8768   -1.7453 H         1 RES1    0.0000
      9 C3         4.1134    9.5946    0.0547 C.2       1 RES1    0.0000
     10 H2         3.6045   10.3587    0.1964 H         1 RES1    0.0000
     11 C4         4.2511    8.5007    0.9379 C.2       1 RES1    0.0000
     12 H3         3.8480    8.4087    1.7704 H         1 RES1    0.0000
     13 C5         5.0715    7.6237    0.3498 C.2       1 RES1    0.0000
     14 C6         5.5526    6.3313    0.8141 C.ar      1 RES1    0.0000
     15 C7         4.7931    5.6778    1.7933 C.ar      1 RES1    0.0000
     16 H4         4.0292    6.0909    2.1247 H         1 RES1    0.0000
     17 C8         5.1524    4.4365    2.2782 C.ar      1 RES1    0.0000
     18 C9         6.3413    3.8473    1.8168 C.ar      1 RES1    0.0000
     19 C10        7.1143    4.4285    0.7951 C.ar      1 RES1    0.0000
     20 C11        6.6872    5.6914    0.3069 C.ar      1 RES1    0.0000
     21 C12        4.1877    3.7332    3.1732 C.ar      1 RES1    0.0000
     22 C13        3.6186    4.3899    4.2478 C.ar      1 RES1    0.0000
     23 H5         3.8589    5.2697    4.4314 H         1 RES1    0.0000
     24 C14        2.6934    3.7500    5.0524 C.ar      1 RES1    0.0000
     25 H6         2.3267    4.1949    5.7811 H         1 RES1    0.0000
     26 C15        2.3196    2.4690    4.7785 C.ar      1 RES1    0.0000
     27 H7         1.6988    2.0419    5.3214 H         1 RES1    0.0000
     28 C16        2.8580    1.8067    3.7044 C.ar      1 RES1    0.0000
     29 H8         2.5940    0.9354    3.5191 H         1 RES1    0.0000
     30 C17        3.7901    2.4313    2.8953 C.ar      1 RES1    0.0000
     31 H9         4.1518    1.9785    2.1666 H         1 RES1    0.0000
     32 N3         8.1660    6.5907   -1.5885 N.1       1 RES1    0.0000
     33 H10        8.6240    4.2139   -0.4017 H         1 RES1    0.0000
     34 H11        8.4080    3.0154    0.5133 H         1 RES1    0.0000
@<TRIPOS>BOND
     1    1   20 1
     2    2   19 1
     3    3    5 2
     4    4    7 1
     5    6    3 2
     6    7    8 1
     7    9    7 2
     8   10    9 1
     9   11    9 1
    10   12   11 1
    11   13    4 1
    12   14   13 1
    13   15   14 ar
    14   16   15 1
    15   17   15 ar
    16   18    3 1
    17   19   18 ar
    18   20   14 ar
    19   21   17 1
    20   22   21 ar
    21   23   22 1
    22   24   22 ar
    23   25   24 1
    24   26   24 ar
    25   27   26 1
    26   28   26 ar
    27   29   28 1
    28   30   21 ar
    29   31   30 1
    30   32    1 3
    31   33    2 1
    32   34    2 1
    33   11   13 2
    34   17   18 ar
    35   19   20 ar
    36   28   30 ar
@<TRIPOS>SUBSTRUCTURE
     1 RES1 1

@<TRIPOS>CRYSIN
  36.6123   36.6123    5.5797  90.0000  90.0000 120.0000 233 1

