# MOL2 file generated by ConQuest
# Please check atom types

@<TRIPOS>MOLECULE
XIRJEP01
    51    54     1
SMALL
NO_CHARGES
****
Generated from CSD

@<TRIPOS>ATOM
      1 N1         5.5447    9.9172   21.1042 N.pl3     1 RES1    0.0000
      2 C1         6.7345   10.6083   20.7308 C.ar      1 RES1    0.0000
      3 O1         7.2115   -1.0729   27.2214 O.2       1 RES1    0.0000
      4 C2         5.2488    4.6824   25.2743 C.2       1 RES1    0.0000
      5 C3         5.9418    5.2030   24.2500 C.2       1 RES1    0.0000
      6 H1         6.6514    4.6734   23.9665 H         1 RES1    0.0000
      7 C4         5.6239    8.7492   21.8891 C.ar      1 RES1    0.0000
      8 C5         6.6811    6.6743   22.4493 C.ar      1 RES1    0.0000
      9 H2         7.3494    6.0503   22.2807 H         1 RES1    0.0000
     10 C6         4.7303    8.5334   22.9303 C.ar      1 RES1    0.0000
     11 H3         4.0683    9.1642   23.1006 H         1 RES1    0.0000
     12 C7         5.5569    3.3817   25.9198 C.ar      1 RES1    0.0000
     13 C8         4.1510   11.9158   21.1551 C.ar      1 RES1    0.0000
     14 H4         4.8888   12.4115   21.4276 H         1 RES1    0.0000
     15 C9         6.6028    7.7910   21.6565 C.ar      1 RES1    0.0000
     16 H5         7.2075    7.9072   20.9602 H         1 RES1    0.0000
     17 C10        7.8450   10.6173   21.5612 C.ar      1 RES1    0.0000
     18 H6         7.8317   10.1412   22.3599 H         1 RES1    0.0000
     19 C11        6.7839   11.2971   19.5331 C.ar      1 RES1    0.0000
     20 H7         6.0614   11.2654   18.9474 H         1 RES1    0.0000
     21 C12        5.7914    6.4412   23.5009 C.ar      1 RES1    0.0000
     22 C13        4.2841   10.5698   20.9288 C.ar      1 RES1    0.0000
     23 C14        4.8014    7.4130   23.7124 C.ar      1 RES1    0.0000
     24 H8         4.1830    7.2930   24.3956 H         1 RES1    0.0000
     25 N2         6.3496   -0.3652   27.7294 N.pl3     1 RES1    0.0000
     26 C15        8.9696   11.3333   21.2026 C.ar      1 RES1    0.0000
     27 H9         9.7158   11.3273   21.7571 H         1 RES1    0.0000
     28 C16        3.1759    9.8545   20.5305 C.ar      1 RES1    0.0000
     29 H10        3.2451    8.9423   20.3625 H         1 RES1    0.0000
     30 C17        6.0855    0.9416   27.1082 C.ar      1 RES1    0.0000
     31 C18        7.9107   12.0343   19.2057 C.ar      1 RES1    0.0000
     32 H11        7.9266   12.5209   18.4136 H         1 RES1    0.0000
     33 C19        4.1333    5.3705   25.8309 C.1       1 RES1    0.0000
     34 C20        2.9350   12.5413   20.9839 C.ar      1 RES1    0.0000
     35 H12        2.8612   13.4565   21.1339 H         1 RES1    0.0000
     36 C21        6.6952    2.6536   25.5997 C.ar      1 RES1    0.0000
     37 H13        7.2925    2.9923   24.9729 H         1 RES1    0.0000
     38 C22        6.9535    1.4358   26.1933 C.ar      1 RES1    0.0000
     39 H14        7.7185    0.9582   25.9665 H         1 RES1    0.0000
     40 C23        4.7117    2.8490   26.8679 C.ar      1 RES1    0.0000
     41 H15        3.9477    3.3190   27.1159 H         1 RES1    0.0000
     42 C24        8.9972   12.0554   20.0309 C.ar      1 RES1    0.0000
     43 H16        9.7499   12.5534   19.8031 H         1 RES1    0.0000
     44 C25        1.9621   10.4951   20.3829 C.ar      1 RES1    0.0000
     45 H17        1.2136   10.0032   20.1326 H         1 RES1    0.0000
     46 C26        4.9802    1.6244   27.4610 C.ar      1 RES1    0.0000
     47 H18        4.3994    1.2766   28.0993 H         1 RES1    0.0000
     48 N3         3.2441    5.8859   26.3149 N.1       1 RES1    0.0000
     49 C27        1.8418   11.8283   20.5967 C.ar      1 RES1    0.0000
     50 H19        1.0221   12.2508   20.4800 H         1 RES1    0.0000
     51 O2         5.6913   -0.6964   28.6860 O.2       1 RES1    0.0000
@<TRIPOS>BOND
     1    1    2 1
     2    2   17 ar
     3    3   25 2
     4    4    5 2
     5    5    6 1
     6    7    1 1
     7    8    9 1
     8   10    7 ar
     9   11   10 1
    10   12    4 1
    11   13   14 1
    12   15    7 ar
    13   16   15 1
    14   17   18 1
    15   19    2 ar
    16   20   19 1
    17   21    5 1
    18   22    1 1
    19   23   10 ar
    20   24   23 1
    21   25   30 1
    22   26   17 ar
    23   27   26 1
    24   28   22 ar
    25   29   28 1
    26   30   38 ar
    27   31   19 ar
    28   32   31 1
    29   33    4 1
    30   34   13 ar
    31   35   34 1
    32   36   12 ar
    33   37   36 1
    34   38   36 ar
    35   39   38 1
    36   40   12 ar
    37   41   40 1
    38   42   26 ar
    39   43   42 1
    40   44   28 ar
    41   45   44 1
    42   46   30 ar
    43   47   46 1
    44   48   33 3
    45   49   34 ar
    46   50   49 1
    47   51   25 2
    48    8   15 ar
    49    8   21 ar
    50   13   22 ar
    51   21   23 ar
    52   31   42 ar
    53   40   46 ar
    54   44   49 ar
@<TRIPOS>SUBSTRUCTURE
     1 RES1 1

@<TRIPOS>CRYSIN
  11.1650    7.5450   25.7080  90.0000  96.5050  90.0000  14 1

