# MOL2 file generated by ConQuest
# Please check atom types

@<TRIPOS>MOLECULE
XIRJEP02
    51    54     1
SMALL
NO_CHARGES
****
Generated from CSD

@<TRIPOS>ATOM
      1 O1        -0.5219    8.6242   10.8274 O.2       1 RES1    0.0000
      2 N1         0.3714    7.9344   10.3395 N.pl3     1 RES1    0.0000
      3 O2         1.0696    8.2977    9.4068 O.2       1 RES1    0.0000
      4 C1         0.6274    6.6195   10.9387 C.ar      1 RES1    0.0000
      5 C2        -0.2940    6.0982   11.8205 C.ar      1 RES1    0.0000
      6 C3        -0.0345    4.8616   12.3999 C.ar      1 RES1    0.0000
      7 C4         1.1283    4.1613   12.1087 C.ar      1 RES1    0.0000
      8 C5         1.4224    2.8487   12.7368 C.2       1 RES1    0.0000
      9 C6         2.5547    2.1687   12.1873 C.1       1 RES1    0.0000
     10 N2         3.4563    1.6489   11.7040 N.1       1 RES1    0.0000
     11 C7         0.7060    2.3056   13.7437 C.2       1 RES1    0.0000
     12 C8         0.8547    1.0524   14.4721 C.ar      1 RES1    0.0000
     13 C9        -0.0564    0.8086   15.5131 C.ar      1 RES1    0.0000
     14 C10        0.0241   -0.3250   16.3004 C.ar      1 RES1    0.0000
     15 C11        1.0137   -1.2773   16.0646 C.ar      1 RES1    0.0000
     16 N3         1.0916   -2.4522   16.8407 N.pl3     1 RES1    0.0000
     17 C12       -0.1021   -3.1480   17.1968 C.ar      1 RES1    0.0000
     18 C13       -0.1603   -3.8649   18.3880 C.ar      1 RES1    0.0000
     19 C14       -1.2912   -4.6043   18.7015 C.ar      1 RES1    0.0000
     20 C15       -2.3820   -4.6171   17.8486 C.ar      1 RES1    0.0000
     21 C16       -2.3392   -3.8732   16.6862 C.ar      1 RES1    0.0000
     22 C17       -1.2056   -3.1488   16.3541 C.ar      1 RES1    0.0000
     23 H1        -1.1826   -2.6373   15.5486 H         1 RES1    0.0000
     24 H2        -3.1018   -3.8649   16.1150 H         1 RES1    0.0000
     25 H3        -3.1865   -5.1316   18.0839 H         1 RES1    0.0000
     26 H4        -1.3089   -5.1279   19.5162 H         1 RES1    0.0000
     27 H5         0.5984   -3.8559   19.0096 H         1 RES1    0.0000
     28 C18        2.3500   -3.1142   17.0021 C.ar      1 RES1    0.0000
     29 C19        2.4643   -4.4787   16.7968 C.ar      1 RES1    0.0000
     30 C20        3.6859   -5.1038   16.9415 C.ar      1 RES1    0.0000
     31 C21        4.8049   -4.3794   17.2946 C.ar      1 RES1    0.0000
     32 C22        4.6917   -3.0239   17.5007 C.ar      1 RES1    0.0000
     33 C23        3.4696   -2.3860   17.3677 C.ar      1 RES1    0.0000
     34 H6         3.3692   -1.4623   17.5224 H         1 RES1    0.0000
     35 H7         5.4895   -2.5094   17.7270 H         1 RES1    0.0000
     36 H8         5.6716   -4.8142   17.4201 H         1 RES1    0.0000
     37 H9         3.7325   -6.0554   16.7913 H         1 RES1    0.0000
     38 H10        1.6571   -4.9940   16.5667 H         1 RES1    0.0000
     39 C24        1.9206   -1.0478   15.0263 C.ar      1 RES1    0.0000
     40 C25        1.8470    0.0888   14.2605 C.ar      1 RES1    0.0000
     41 H11        2.5052    0.2204   13.6072 H         1 RES1    0.0000
     42 H12        2.5750   -1.6669   14.8399 H         1 RES1    0.0000
     43 H13       -0.6014   -0.4747   16.9859 H         1 RES1    0.0000
     44 H14       -0.7438    1.4578   15.6659 H         1 RES1    0.0000
     45 H15       -0.0243    2.8344   14.0913 H         1 RES1    0.0000
     46 C26        2.0220    4.7217   11.1994 C.ar      1 RES1    0.0000
     47 C27        1.7745    5.9606   10.6215 C.ar      1 RES1    0.0000
     48 H16        2.3924    6.3450   10.0463 H         1 RES1    0.0000
     49 H17        2.7990    4.2448   10.9821 H         1 RES1    0.0000
     50 H18       -0.6664    4.5096   13.0158 H         1 RES1    0.0000
     51 H19       -1.0855    6.5744   12.0376 H         1 RES1    0.0000
@<TRIPOS>BOND
     1    1    2 2
     2    2    3 2
     3    4    2 1
     4    5    4 ar
     5    6    5 ar
     6    7    6 ar
     7    8    7 1
     8    9    8 1
     9   10    9 3
    10   11    8 2
    11   12   11 1
    12   13   12 ar
    13   14   13 ar
    14   15   14 ar
    15   16   15 1
    16   17   16 1
    17   18   17 ar
    18   19   18 ar
    19   20   19 ar
    20   21   20 ar
    21   22   17 ar
    22   23   22 1
    23   24   21 1
    24   25   20 1
    25   26   19 1
    26   27   18 1
    27   28   16 1
    28   29   28 ar
    29   30   29 ar
    30   31   30 ar
    31   32   31 ar
    32   33   28 ar
    33   34   33 1
    34   35   32 1
    35   36   31 1
    36   37   30 1
    37   38   29 1
    38   39   15 ar
    39   40   12 ar
    40   41   40 1
    41   42   39 1
    42   43   14 1
    43   44   13 1
    44   45   11 1
    45   46    7 ar
    46   47    4 ar
    47   48   47 1
    48   49   46 1
    49   50    6 1
    50   51    5 1
    51   21   22 ar
    52   32   33 ar
    53   39   40 ar
    54   46   47 ar
@<TRIPOS>SUBSTRUCTURE
     1 RES1 1

@<TRIPOS>CRYSIN
  11.1416    7.5222   25.1480  90.0000  97.1290  90.0000  14 1

