# MOL2 file generated by ConQuest
# Please check atom types

@<TRIPOS>MOLECULE
XIRQUM
    34    35     1
SMALL
NO_CHARGES
****
Generated from CSD

@<TRIPOS>ATOM
      1 N1         1.1541    1.3352   -1.7061 N.pl3     1 RES1    0.0000
      2 N2         2.8456    5.8244    2.5846 N.2       1 RES1    0.0000
      3 O1         1.1297    0.1231   -1.5530 O.2       1 RES1    0.0000
      4 O2         0.8982    1.8887   -2.7628 O.2       1 RES1    0.0000
      5 O3         3.0031    6.4627    3.8340 O.3       1 RES1    0.0000
      6 O4         4.1453    2.9334    3.9195 O.3       1 RES1    0.0000
      7 O5         3.4131    3.2212    5.9867 O.2       1 RES1    0.0000
      8 O6         0.6177    7.4280    4.7406 O.2       1 RES1    0.0000
      9 O7         0.1692    5.4787    5.7582 O.3       1 RES1    0.0000
     10 C1         1.5002    2.1793   -0.5532 C.ar      1 RES1    0.0000
     11 C2         1.7426    3.5221   -0.7575 C.ar      1 RES1    0.0000
     12 C3         2.0522    4.3143    0.3272 C.ar      1 RES1    0.0000
     13 C4         2.0973    3.7691    1.6124 C.ar      1 RES1    0.0000
     14 C5         1.8322    2.4090    1.7850 C.ar      1 RES1    0.0000
     15 C6         1.5463    1.6071    0.7011 C.ar      1 RES1    0.0000
     16 C7         2.4042    4.6346    2.7614 C.2       1 RES1    0.0000
     17 C8         2.2285    4.2797    4.2176 C.3       1 RES1    0.0000
     18 C9         2.2886    5.6910    4.8104 C.3       1 RES1    0.0000
     19 C10        3.3264    3.4086    4.8134 C.2       1 RES1    0.0000
     20 C11        0.9270    6.3247    5.0653 C.2       1 RES1    0.0000
     21 C12        5.2387    2.0990    4.3919 C.3       1 RES1    0.0000
     22 C13       -1.1616    5.9345    6.1000 C.3       1 RES1    0.0000
     23 H1         1.4209    3.8258    4.3966 H         1 RES1    0.0000
     24 H2         1.8309    2.0271    2.6726 H         1 RES1    0.0000
     25 H3         1.7164    3.8812   -1.6003 H         1 RES1    0.0000
     26 H4         1.3523    0.6849    0.8249 H         1 RES1    0.0000
     27 H5         2.2541    5.2441    0.2062 H         1 RES1    0.0000
     28 H6         5.5585    1.5843    3.7367 H         1 RES1    0.0000
     29 H7         4.8826    1.5359    5.0565 H         1 RES1    0.0000
     30 H8        -1.5441    5.2372    6.6430 H         1 RES1    0.0000
     31 H9        -1.6447    6.0950    5.2820 H         1 RES1    0.0000
     32 H10       -1.1527    6.8007    6.5770 H         1 RES1    0.0000
     33 H11        5.8442    2.6359    4.7678 H         1 RES1    0.0000
     34 H12        2.7717    5.7214    5.6477 H         1 RES1    0.0000
@<TRIPOS>BOND
     1    1    3 2
     2    2    5 1
     3    4    1 2
     4    5   18 1
     5    6   19 1
     6    7   19 2
     7    8   20 2
     8    9   20 1
     9   10    1 1
    10   11   10 ar
    11   12   11 ar
    12   13   12 ar
    13   14   13 ar
    14   15   10 ar
    15   16    2 2
    16   17   16 1
    17   18   17 1
    18   19   17 1
    19   20   18 1
    20   21    6 1
    21   22    9 1
    22   23   17 1
    23   24   14 1
    24   25   11 1
    25   26   15 1
    26   27   12 1
    27   28   21 1
    28   29   21 1
    29   30   22 1
    30   31   22 1
    31   32   22 1
    32   33   21 1
    33   34   18 1
    34   13   16 1
    35   14   15 ar
@<TRIPOS>SUBSTRUCTURE
     1 RES1 1

@<TRIPOS>CRYSIN
   7.2032    6.9183   27.5150  90.0000  92.1340  90.0000  14 1

