# MOL2 file generated by ConQuest
# Please check atom types

@<TRIPOS>MOLECULE
XIRROF
    12    12     1
SMALL
NO_CHARGES
****
Generated from CSD

@<TRIPOS>ATOM
      1 O1         4.9086    2.0844    7.9526 O.2       1 RES1    0.0000
      2 O2         5.9824    0.2792    8.4761 O.2       1 RES1    0.0000
      3 N1         2.4809    0.6452    8.0834 N.pl3     1 RES1    0.0000
      4 N2         4.9318    0.9042    8.2477 N.pl3     1 RES1    0.0000
      5 N3         2.2819   -1.4418    8.8246 N.2       1 RES1    0.0000
      6 C1         0.1579   -0.2949    8.2076 C.3       1 RES1    0.0000
      7 C2        -0.4826    0.4012    9.3908 C.3       1 RES1    0.0000
      8 C3        -0.4275   -1.6871    7.9953 C.3       1 RES1    0.0000
      9 C4         3.7365    0.1546    8.3866 C.2       1 RES1    0.0000
     10 C5         2.1077    1.9592    7.5453 C.3       1 RES1    0.0000
     11 C6         1.6294   -0.3777    8.3639 C.2       1 RES1    0.0000
     12 C7         3.5825   -1.1097    8.8299 C.2       1 RES1    0.0000
@<TRIPOS>BOND
     1    1    4 2
     2    2    4 2
     3    3    9 1
     4    4    9 1
     5    5   11 2
     6    6    7 1
     7    8    6 1
     8    9   12 2
     9   10    3 1
    10   11    3 1
    11   12    5 1
    12    6   11 1
@<TRIPOS>SUBSTRUCTURE
     1 RES1 1

@<TRIPOS>CRYSIN
   9.9582    6.5240   13.5560  90.0000  99.8930  90.0000  14 1

