# MOL2 file generated by ConQuest
# Please check atom types

@<TRIPOS>MOLECULE
XIRSAS
   204   208     4
SMALL
NO_CHARGES
****
Generated from CSD

@<TRIPOS>ATOM
      1 O1         5.1575    5.4633    2.7826 O.2       1 RES1    0.0000
      2 O2         5.9677    3.6934    2.0281 O.2       1 RES1    0.0000
      3 O3         8.9115    0.9992    4.5387 O.2       1 RES1    0.0000
      4 O4         9.6564    1.6438    6.4099 O.2       1 RES1    0.0000
      5 N1         5.5369    7.1002    6.3510 N.2       1 RES1    0.0000
      6 N2         5.7214    6.3568    5.2160 N.3       1 RES1    0.0000
      7 N3         5.8567    4.4982    2.9238 N.pl3     1 RES1    0.0000
      8 N4         8.8931    1.6676    5.4788 N.pl3     1 RES1    0.0000
      9 C1         2.4475   10.8857    9.4971 C.3       1 RES1    0.0000
     10 C2         2.2806   11.0562   11.0008 C.3       1 RES1    0.0000
     11 C3         3.2737   11.7689   11.7514 C.3       1 RES1    0.0000
     12 C4         4.7458   11.3529   11.3055 C.3       1 RES1    0.0000
     13 C5         4.9138   10.8004   10.0424 C.2       1 RES1    0.0000
     14 C6         3.9052   10.5583    9.1427 C.2       1 RES1    0.0000
     15 C7         4.1119   10.0126    7.8155 C.2       1 RES1    0.0000
     16 C8         4.7979    8.8702    7.5435 C.2       1 RES1    0.0000
     17 C9         5.0045    8.1677    6.2817 C.2       1 RES1    0.0000
     18 C10        1.5793    9.6511    9.0381 C.3       1 RES1    0.0000
     19 C11        1.8855   12.1611    8.9231 C.3       1 RES1    0.0000
     20 C12        6.3950   10.5890    9.6710 C.3       1 RES1    0.0000
     21 C13        4.4932    8.8156    4.9558 C.3       1 RES1    0.0000
     22 C14        6.5078    5.2450    5.2683 C.ar      1 RES1    0.0000
     23 C15        6.6360    4.3720    4.2222 C.ar      1 RES1    0.0000
     24 C16        7.4112    3.2023    4.2249 C.ar      1 RES1    0.0000
     25 C17        8.0321    2.9601    5.3180 C.ar      1 RES1    0.0000
     26 C18        7.9204    3.7718    6.4765 C.ar      1 RES1    0.0000
     27 C19        7.1380    4.9006    6.4059 C.ar      1 RES1    0.0000
     28 H1         1.8724    9.3647    8.1803 H         1 RES1    0.0000
     29 H2         1.6849    8.9418    9.6618 H         1 RES1    0.0000
     30 H3         0.6674    9.9035    8.9937 H         1 RES1    0.0000
     31 H4         1.2024   11.9531    8.2967 H         1 RES1    0.0000
     32 H5         1.5220   12.6897    9.6226 H         1 RES1    0.0000
     33 H6         2.5825   12.6454    8.4876 H         1 RES1    0.0000
     34 H7         1.4536   11.5098   11.1368 H         1 RES1    0.0000
     35 H8         2.2230   10.1832   11.3735 H         1 RES1    0.0000
     36 H9         3.1654   11.5711   12.6746 H         1 RES1    0.0000
     37 H10        3.1600   12.7000   11.6102 H         1 RES1    0.0000
     38 H11        5.2834   12.1373   11.3460 H         1 RES1    0.0000
     39 H12        5.0628   10.7186   11.9371 H         1 RES1    0.0000
     40 H13        6.8479   11.4245    9.6867 H         1 RES1    0.0000
     41 H14        6.7967    9.9990   10.2986 H         1 RES1    0.0000
     42 H15        6.4523   10.2138    8.8001 H         1 RES1    0.0000
     43 H16        3.9147   10.4526    6.8950 H         1 RES1    0.0000
     44 H17        5.4222    8.6622    8.3294 H         1 RES1    0.0000
     45 H18        4.1022    9.6614    5.1480 H         1 RES1    0.0000
     46 H19        5.2227    8.9316    4.3582 H         1 RES1    0.0000
     47 H20        3.8431    8.2495    4.5570 H         1 RES1    0.0000
     48 H21        5.4839    6.3295    4.5740 H         1 RES1    0.0000
     49 H22        7.5893    2.2815    3.3435 H         1 RES1    0.0000
     50 H23        8.3743    3.5433    7.2781 H         1 RES1    0.0000
     51 H24        7.0393    5.4462    7.1774 H         1 RES1    0.0000
     52 O5         0.2442    5.2007    9.2892 O.2       2 RES2    0.0000
     53 O6        -0.7571    7.0389    9.5010 O.2       2 RES2    0.0000
     54 O7        -0.2664    9.9001   13.3101 O.2       2 RES2    0.0000
     55 O8         1.0735    9.3238   14.8949 O.2       2 RES2    0.0000
     56 N5         2.3429    3.2807   12.0495 N.2       2 RES2    0.0000
     57 N6         1.6293    4.2288   11.3630 N.3       2 RES2    0.0000
     58 N7         0.0014    6.2579   10.0149 N.pl3     2 RES2    0.0000
     59 N8         0.4111    9.1498   13.8252 N.pl3     2 RES2    0.0000
     60 C20        4.6412   -2.2406   11.8900 C.3       2 RES2    0.0000
     61 C21        5.0895   -3.3557   12.8092 C.3       2 RES2    0.0000
     62 C22        5.9277   -3.1034   13.8475 C.3       2 RES2    0.0000
     63 C23        6.2303   -1.6949   14.3339 C.3       2 RES2    0.0000
     64 C24        5.5220   -0.6377   13.6317 C.2       2 RES2    0.0000
     65 C25        4.8403   -0.8458   12.5150 C.2       2 RES2    0.0000
     66 C26        4.1769    0.2012   11.7187 C.2       2 RES2    0.0000
     67 C27        3.4763    1.2823   12.1764 C.2       2 RES2    0.0000
     68 C28        2.8448    2.3190   11.4140 C.2       2 RES2    0.0000
     69 C29        3.1858   -2.4009   11.6246 C.3       2 RES2    0.0000
     70 C30        5.3850   -2.3156   10.5641 C.3       2 RES2    0.0000
     71 C31        5.7385    0.6718   14.2777 C.3       2 RES2    0.0000
     72 C32        2.6910    2.1451    9.8750 C.3       2 RES2    0.0000
     73 C33        1.3229    5.3951   11.9240 C.ar      2 RES2    0.0000
     74 C34        0.6007    6.3125   11.3879 C.ar      2 RES2    0.0000
     75 C35        0.2294    7.5640   11.9671 C.ar      2 RES2    0.0000
     76 C36        0.6037    7.7959   13.1518 C.ar      2 RES2    0.0000
     77 C37        1.4553    6.8445   13.8566 C.ar      2 RES2    0.0000
     78 C38        1.7404    5.6406   13.2368 C.ar      2 RES2    0.0000
     79 H25        2.8876   -1.7188   11.0296 H         2 RES2    0.0000
     80 H26        2.7007   -2.3326   12.4418 H         2 RES2    0.0000
     81 H27        3.0262   -3.2500   11.2349 H         2 RES2    0.0000
     82 H28        5.2945   -1.4937   10.1012 H         2 RES2    0.0000
     83 H29        6.3026   -2.4895   10.7262 H         2 RES2    0.0000
     84 H30        5.0221   -3.0181   10.0358 H         2 RES2    0.0000
     85 H31        4.3066   -3.7411   13.1793 H         2 RES2    0.0000
     86 H32        5.5302   -4.0003   12.2614 H         2 RES2    0.0000
     87 H33        6.7653   -3.4853   13.6160 H         2 RES2    0.0000
     88 H34        5.5660   -3.5638   14.5967 H         2 RES2    0.0000
     89 H35        7.0154   -1.8313   14.6543 H         2 RES2    0.0000
     90 H36        6.1018   -1.8552   15.3107 H         2 RES2    0.0000
     91 H37        6.6663    0.8799   14.2685 H         2 RES2    0.0000
     92 H38        5.4321    0.6377   15.1747 H         2 RES2    0.0000
     93 H39        5.2607    1.3437   13.8030 H         2 RES2    0.0000
     94 H40        4.2437    0.1160   10.7759 H         2 RES2    0.0000
     95 H41        3.3964    1.3573   13.1204 H         2 RES2    0.0000
     96 H42        2.3124    1.2891    9.6919 H         2 RES2    0.0000
     97 H43        3.5387    2.2133    9.4592 H         2 RES2    0.0000
     98 H44        2.1135    2.8203    9.5363 H         2 RES2    0.0000
     99 H45        1.3503    4.0514   10.4726 H         2 RES2    0.0000
    100 H46       -0.2800    8.1984   11.4768 H         2 RES2    0.0000
    101 H47        1.8060    7.0491   14.7157 H         2 RES2    0.0000
    102 H48        2.2218    4.9722   13.7089 H         2 RES2    0.0000
    103 O9         4.0127    3.4819    7.0741 O.2       3 RES3    0.0000
    104 O10        5.2273    1.6165    6.9538 O.2       3 RES3    0.0000
    105 O11        4.7474   -1.2141    3.1474 O.2       3 RES3    0.0000
    106 O12        3.3418   -0.6582    1.5521 O.2       3 RES3    0.0000
    107 N9         2.0922    5.4462    4.3752 N.2       3 RES3    0.0000
    108 N10        2.8329    4.4845    5.1938 N.3       3 RES3    0.0000
    109 N11        4.4507    2.5509    6.4975 N.pl3     3 RES3    0.0000
    110 N12        3.9673   -0.4502    2.6139 N.pl3     3 RES3    0.0000
    111 C39       -0.2052   10.9198    4.5282 C.3       3 RES3    0.0000
    112 C40       -0.8346   11.9872    3.5841 C.3       3 RES3    0.0000
    113 C41       -1.9149   11.6769    2.7721 C.3       3 RES3    0.0000
    114 C42       -1.7167   10.3741    1.9810 C.3       3 RES3    0.0000
    115 C43       -1.1005    9.3101    2.7917 C.2       3 RES3    0.0000
    116 C44       -0.3860    9.4772    3.9006 C.2       3 RES3    0.0000
    117 C45        0.2632    8.3996    4.7361 C.2       3 RES3    0.0000
    118 C46        0.8817    7.2742    4.2536 C.2       3 RES3    0.0000
    119 C47        1.6570    6.4045    5.0996 C.2       3 RES3    0.0000
    120 C48       -0.8603   11.0596    5.8737 C.3       3 RES3    0.0000
    121 C49        1.2579   11.2608    4.6289 C.3       3 RES3    0.0000
    122 C50       -1.3271    7.8710    2.1732 C.3       3 RES3    0.0000
    123 C51        1.7365    6.5137    6.5707 C.3       3 RES3    0.0000
    124 C52        3.1943    3.3319    4.5047 C.ar      3 RES3    0.0000
    125 C53        3.9721    2.2610    5.1219 C.ar      3 RES3    0.0000
    126 C54        4.2459    1.0674    4.5243 C.ar      3 RES3    0.0000
    127 C55        3.7154    0.9174    3.2651 C.ar      3 RES3    0.0000
    128 C56        2.9841    1.8245    2.5681 C.ar      3 RES3    0.0000
    129 C57        2.6864    3.1000    3.1291 C.ar      3 RES3    0.0000
    130 H49       -1.7802   10.8482    5.8018 H         3 RES3    0.0000
    131 H50       -0.7596   11.9565    6.1797 H         3 RES3    0.0000
    132 H51       -0.4436   10.4696    6.4909 H         3 RES3    0.0000
    133 H52        1.3617   12.0861    5.0892 H         3 RES3    0.0000
    134 H53        1.6283   11.3392    3.7567 H         3 RES3    0.0000
    135 H54        1.7140   10.5753    5.1049 H         3 RES3    0.0000
    136 H55       -1.1170   12.7068    4.1386 H         3 RES3    0.0000
    137 H56       -0.1446   12.2839    3.0075 H         3 RES3    0.0000
    138 H57       -2.6830   11.5814    3.3265 H         3 RES3    0.0000
    139 H58       -2.0457   12.3896    2.1654 H         3 RES3    0.0000
    140 H59       -1.1527   10.5549    1.2370 H         3 RES3    0.0000
    141 H60       -2.5632   10.0740    1.6711 H         3 RES3    0.0000
    142 H61       -1.8544    7.9392    1.3887 H         3 RES3    0.0000
    143 H62       -1.7661    7.3185    2.8074 H         3 RES3    0.0000
    144 H63       -0.4814    7.4890    1.9536 H         3 RES3    0.0000
    145 H64        0.3000    8.5803    5.7037 H         3 RES3    0.0000
    146 H65        0.7913    7.0627    3.3318 H         3 RES3    0.0000
    147 H66        1.3358    7.3287    6.8505 H         3 RES3    0.0000
    148 H67        1.2778    5.7805    6.9682 H         3 RES3    0.0000
    149 H68        2.6474    6.5000    6.8387 H         3 RES3    0.0000
    150 H69        2.9903    4.3515    5.8594 H         3 RES3    0.0000
    151 H70        4.7627    0.3888    4.9453 H         3 RES3    0.0000
    152 H71        2.6160    1.6233    1.6253 H         3 RES3    0.0000
    153 H72        2.1940    3.7616    2.6544 H         3 RES3    0.0000
    154 O13        0.8544    2.9942    0.4524 O.2       4 RES4    0.0000
    155 O14        0.0732    4.8870    1.3442 O.2       4 RES4    0.0000
    156 O15       -2.8924    7.6766   -1.1847 O.2       4 RES4    0.0000
    157 O16       -3.6471    6.9707   -3.0755 O.2       4 RES4    0.0000
    158 N13        0.4120    1.5244   -3.0572 N.2       4 RES4    0.0000
    159 N14        0.3684    2.2372   -1.7718 N.3       4 RES4    0.0000
    160 N15        0.1723    4.0003    0.4119 N.pl3     4 RES4    0.0000
    161 N16       -2.8660    6.8547   -2.1275 N.pl3     4 RES4    0.0000
    162 C58        3.6926   -2.1485   -6.0921 C.3       4 RES4    0.0000
    163 C59        3.8835   -2.1451   -7.6377 C.3       4 RES4    0.0000
    164 C60        2.9270   -3.0420   -8.3346 C.3       4 RES4    0.0000
    165 C61        1.4699   -2.4793   -8.1568 C.3       4 RES4    0.0000
    166 C62        1.2330   -2.1348   -6.6858 C.2       4 RES4    0.0000
    167 C63        2.1743   -1.9336   -5.7979 C.2       4 RES4    0.0000
    168 C64        1.9229   -1.3914   -4.4354 C.2       4 RES4    0.0000
    169 C65        1.2571   -0.2353   -4.1673 C.2       4 RES4    0.0000
    170 C66        1.0895    0.3581   -2.9146 C.2       4 RES4    0.0000
    171 C67        4.1072   -3.3967   -5.4213 C.3       4 RES4    0.0000
    172 C68        4.5670   -1.0470   -5.5913 C.3       4 RES4    0.0000
    173 C69       -0.2793   -1.9268   -6.3772 C.3       4 RES4    0.0000
    174 C70        1.5403   -0.1705   -1.6580 C.3       4 RES4    0.0000
    175 C71       -0.3842    3.4376   -1.9405 C.ar      4 RES4    0.0000
    176 C72       -0.5409    4.3209   -0.8434 C.ar      4 RES4    0.0000
    177 C73       -1.3923    5.4156   -0.8839 C.ar      4 RES4    0.0000
    178 C74       -1.9277    5.6577   -2.0804 C.ar      4 RES4    0.0000
    179 C75       -1.9056    4.8801   -3.1592 C.ar      4 RES4    0.0000
    180 C76       -1.1056    3.7513   -3.1199 C.ar      4 RES4    0.0000
    181 H73        3.6209   -4.1265   -5.7809 H         4 RES4    0.0000
    182 H74        5.0388   -3.5365   -5.5612 H         4 RES4    0.0000
    183 H75        3.9368   -3.3285   -4.4890 H         4 RES4    0.0000
    184 H76        5.4369   -1.1390   -5.9627 H         4 RES4    0.0000
    185 H77        4.6209   -1.0913   -4.6446 H         4 RES4    0.0000
    186 H78        4.2016   -0.2080   -5.8489 H         4 RES4    0.0000
    187 H79        3.7603   -1.2618   -7.9580 H         4 RES4    0.0000
    188 H80        4.7676   -2.4350   -7.8338 H         4 RES4    0.0000
    189 H81        3.1429   -3.0795   -9.2591 H         4 RES4    0.0000
    190 H82        2.9785   -3.9116   -7.9620 H         4 RES4    0.0000
    191 H83        0.8440   -3.1341   -8.4353 H         4 RES4    0.0000
    192 H84        1.3700   -1.6949   -8.6851 H         4 RES4    0.0000
    193 H85       -0.7480   -2.7385   -6.5262 H         4 RES4    0.0000
    194 H86       -0.6288   -1.2516   -6.9460 H         4 RES4    0.0000
    195 H87       -0.3839   -1.6642   -5.4710 H         4 RES4    0.0000
    196 H88        2.3229   -1.8177   -3.6207 H         4 RES4    0.0000
    197 H89        0.6430    0.0955   -5.0879 H         4 RES4    0.0000
    198 H90        1.8781   -1.0470   -1.7862 H         4 RES4    0.0000
    199 H91        0.8144   -0.1944   -1.0474 H         4 RES4    0.0000
    200 H92        2.2284    0.3854   -1.3102 H         4 RES4    0.0000
    201 H93        0.7760    1.9507   -0.9637 H         4 RES4    0.0000
    202 H94       -1.5784    5.9510   -0.1216 H         4 RES4    0.0000
    203 H95       -2.3984    5.0268   -4.1019 H         4 RES4    0.0000
    204 H96       -1.0921    3.1443   -3.8548 H         4 RES4    0.0000
@<TRIPOS>BOND
     1    1    7 2
     2    2    7 2
     3    3    8 2
     4    4    8 2
     5    5    6 1
     6    6   22 1
     7    7   23 1
     8    8   25 1
     9    9   10 1
    10   10   11 1
    11   11   12 1
    12   12   13 1
    13   13   14 2
    14   14    9 1
    15   15   14 1
    16   16   15 2
    17   17    5 2
    18   18    9 1
    19   19    9 1
    20   20   13 1
    21   21   17 1
    22   22   23 ar
    23   23   24 ar
    24   24   25 ar
    25   25   26 ar
    26   26   27 ar
    27   27   22 ar
    28   28   18 1
    29   29   18 1
    30   30   18 1
    31   31   19 1
    32   32   19 1
    33   33   19 1
    34   34   10 1
    35   35   10 1
    36   36   11 1
    37   37   11 1
    38   38   12 1
    39   39   12 1
    40   40   20 1
    41   41   20 1
    42   42   20 1
    43   43   15 1
    44   44   16 1
    45   45   21 1
    46   46   21 1
    47   47   21 1
    48   48    6 1
    49   49   24 1
    50   50   26 1
    51   51   27 1
    52   52   58 2
    53   53   58 2
    54   54   59 2
    55   55   59 2
    56   56   57 1
    57   57   73 1
    58   58   74 1
    59   59   76 1
    60   60   61 1
    61   61   62 1
    62   62   63 1
    63   63   64 1
    64   64   65 2
    65   65   60 1
    66   66   65 1
    67   67   66 2
    68   68   56 2
    69   69   60 1
    70   70   60 1
    71   71   64 1
    72   72   68 1
    73   73   74 ar
    74   74   75 ar
    75   75   76 ar
    76   76   77 ar
    77   77   78 ar
    78   78   73 ar
    79   79   69 1
    80   80   69 1
    81   81   69 1
    82   82   70 1
    83   83   70 1
    84   84   70 1
    85   85   61 1
    86   86   61 1
    87   87   62 1
    88   88   62 1
    89   89   63 1
    90   90   63 1
    91   91   71 1
    92   92   71 1
    93   93   71 1
    94   94   66 1
    95   95   67 1
    96   96   72 1
    97   97   72 1
    98   98   72 1
    99   99   57 1
   100  100   75 1
   101  101   77 1
   102  102   78 1
   103  103  109 2
   104  104  109 2
   105  105  110 2
   106  106  110 2
   107  107  108 1
   108  108  124 1
   109  109  125 1
   110  110  127 1
   111  111  112 1
   112  112  113 1
   113  113  114 1
   114  114  115 1
   115  115  116 2
   116  116  111 1
   117  117  116 1
   118  118  117 2
   119  119  107 2
   120  120  111 1
   121  121  111 1
   122  122  115 1
   123  123  119 1
   124  124  125 ar
   125  125  126 ar
   126  126  127 ar
   127  127  128 ar
   128  128  129 ar
   129  129  124 ar
   130  130  120 1
   131  131  120 1
   132  132  120 1
   133  133  121 1
   134  134  121 1
   135  135  121 1
   136  136  112 1
   137  137  112 1
   138  138  113 1
   139  139  113 1
   140  140  114 1
   141  141  114 1
   142  142  122 1
   143  143  122 1
   144  144  122 1
   145  145  117 1
   146  146  118 1
   147  147  123 1
   148  148  123 1
   149  149  123 1
   150  150  108 1
   151  151  126 1
   152  152  128 1
   153  153  129 1
   154  154  160 2
   155  155  160 2
   156  156  161 2
   157  157  161 2
   158  158  159 1
   159  159  175 1
   160  160  176 1
   161  161  178 1
   162  162  163 1
   163  163  164 1
   164  164  165 1
   165  165  166 1
   166  166  167 2
   167  167  162 1
   168  168  167 1
   169  169  168 2
   170  170  158 2
   171  171  162 1
   172  172  162 1
   173  173  166 1
   174  174  170 1
   175  175  176 ar
   176  176  177 ar
   177  177  178 ar
   178  178  179 ar
   179  179  180 ar
   180  180  175 ar
   181  181  171 1
   182  182  171 1
   183  183  171 1
   184  184  172 1
   185  185  172 1
   186  186  172 1
   187  187  163 1
   188  188  163 1
   189  189  164 1
   190  190  164 1
   191  191  165 1
   192  192  165 1
   193  193  173 1
   194  194  173 1
   195  195  173 1
   196  196  168 1
   197  197  169 1
   198  198  174 1
   199  199  174 1
   200  200  174 1
   201  201  159 1
   202  202  177 1
   203  203  179 1
   204  204  180 1
   205   16   17 1
   206   67   68 1
   207  118  119 1
   208  169  170 1
@<TRIPOS>SUBSTRUCTURE
     1 RES1 1
     2 RES2 52
     3 RES3 103
     4 RES4 154

@<TRIPOS>CRYSIN
   8.5970   34.1030   13.1700  90.0000  96.8500  90.0000   4 1

