# MOL2 file generated by ConQuest
# Please check atom types

@<TRIPOS>MOLECULE
XISGAI
    66    68     2
SMALL
NO_CHARGES
****
Generated from CSD

@<TRIPOS>ATOM
      1 O1         1.8442   10.0240    6.7064 O.2       1 RES1    0.0000
      2 O2         0.1522   10.2531    2.2336 O.2       1 RES1    0.0000
      3 O3         0.7851    8.8653    0.7177 O.2       1 RES1    0.0000
      4 N1         0.8167    9.2973    1.8610 N.pl3     1 RES1    0.0000
      5 C1         2.5956    8.5297    5.0412 C.ar      1 RES1    0.0000
      6 C2         3.3892    7.4701    4.6345 C.ar      1 RES1    0.0000
      7 H1         3.9679    7.0705    5.2425 H         1 RES1    0.0000
      8 C3         3.3324    6.9963    3.3279 C.ar      1 RES1    0.0000
      9 H2         3.8616    6.2752    3.0737 H         1 RES1    0.0000
     10 C4         2.4935    7.5933    2.4075 C.ar      1 RES1    0.0000
     11 H3         2.4534    7.2903    1.5291 H         1 RES1    0.0000
     12 C5         1.7161    8.6528    2.8286 C.ar      1 RES1    0.0000
     13 C6         1.7388    9.1323    4.1173 C.ar      1 RES1    0.0000
     14 H4         1.1943    9.8434    4.3685 H         1 RES1    0.0000
     15 C7         2.5825    9.0811    6.4414 C.2       1 RES1    0.0000
     16 C8         3.4657    8.4875    7.4546 C.2       1 RES1    0.0000
     17 H5         4.0549    7.8106    7.2107 H         1 RES1    0.0000
     18 C9         3.4329    8.9087    8.7233 C.2       1 RES1    0.0000
     19 H6         2.8016    9.5624    8.9208 H         1 RES1    0.0000
     20 C10        4.2672    8.4665    9.8328 C.ar      1 RES1    0.0000
     21 C11        5.1912    7.4313    9.7125 C.ar      1 RES1    0.0000
     22 H7         5.2727    6.9792    8.9040 H         1 RES1    0.0000
     23 C12        5.9882    7.0686   10.7826 C.ar      1 RES1    0.0000
     24 H8         6.5948    6.3705   10.6842 H         1 RES1    0.0000
     25 C13        5.8978    7.7303   12.0065 C.ar      1 RES1    0.0000
     26 C14        4.9598    8.7474   12.1295 C.ar      1 RES1    0.0000
     27 H9         4.8751    9.1938   12.9415 H         1 RES1    0.0000
     28 C15        4.1508    9.1083   11.0700 C.ar      1 RES1    0.0000
     29 H10        3.5224    9.7849   11.1809 H         1 RES1    0.0000
     30 C16        6.7980    7.3683   13.1546 C.3       1 RES1    0.0000
     31 H11        7.3001    8.1412   13.4240 H         1 RES1    0.0000
     32 H12        7.4019    6.6740   12.8811 H         1 RES1    0.0000
     33 H13        6.2675    7.0590   13.8926 H         1 RES1    0.0000
     34 O4         4.2202    3.6626    2.4625 O.2       2 RES2    0.0000
     35 O5         5.4091    5.5877    6.7269 O.2       2 RES2    0.0000
     36 O6         6.4193    4.3935    8.2092 O.2       2 RES2    0.0000
     37 N2         5.9821    4.5668    7.0789 N.pl3     2 RES2    0.0000
     38 C17        5.7702    2.6359    3.9042 C.ar      2 RES2    0.0000
     39 C18        6.5337    1.5201    4.2374 C.ar      2 RES2    0.0000
     40 H14        6.6648    0.8480    3.6082 H         2 RES2    0.0000
     41 C19        7.1016    1.3992    5.4977 C.ar      2 RES2    0.0000
     42 H15        7.5985    0.6427    5.7111 H         2 RES2    0.0000
     43 C20        6.9312    2.3973    6.4338 C.ar      2 RES2    0.0000
     44 H16        7.3182    2.3304    7.2767 H         2 RES2    0.0000
     45 C21        6.1738    3.4957    6.0900 C.ar      2 RES2    0.0000
     46 C22        5.5794    3.6336    4.8536 C.ar      2 RES2    0.0000
     47 H17        5.0608    4.3808    4.6589 H         2 RES2    0.0000
     48 C23        5.0907    2.8053    2.5778 C.2       2 RES2    0.0000
     49 C24        5.4844    1.9407    1.4508 C.2       2 RES2    0.0000
     50 H18        6.2378    1.4005    1.5207 H         2 RES2    0.0000
     51 C25        4.7628    1.9316    0.3329 C.2       2 RES2    0.0000
     52 H19        4.0212    2.4926    0.3227 H         2 RES2    0.0000
     53 C26        4.9916    1.1488   -0.8804 C.ar      2 RES2    0.0000
     54 C27        5.9601    0.1479   -0.9791 C.ar      2 RES2    0.0000
     55 H20        6.4851   -0.0577   -0.2399 H         2 RES2    0.0000
     56 C28        6.1486   -0.5412   -2.1620 C.ar      2 RES2    0.0000
     57 H21        6.8032   -1.2009   -2.2081 H         2 RES2    0.0000
     58 C29        5.3708   -0.2628   -3.2907 C.ar      2 RES2    0.0000
     59 C30        4.3909    0.7118   -3.1817 C.ar      2 RES2    0.0000
     60 H22        3.8534    0.9055   -3.9154 H         2 RES2    0.0000
     61 C31        4.2018    1.4007   -1.9981 C.ar      2 RES2    0.0000
     62 H23        3.5333    2.0453   -1.9472 H         2 RES2    0.0000
     63 C32        5.5842   -0.9953   -4.5879 C.3       2 RES2    0.0000
     64 H24        5.7742   -0.3635   -5.2846 H         2 RES2    0.0000
     65 H25        4.7915   -1.4884   -4.8104 H         2 RES2    0.0000
     66 H26        6.3232   -1.6017   -4.4962 H         2 RES2    0.0000
@<TRIPOS>BOND
     1    1   15 2
     2    2    4 2
     3    3    4 2
     4    4   12 1
     5    5    6 ar
     6    6    7 1
     7    8    6 ar
     8    9    8 1
     9   10    8 ar
    10   11   10 1
    11   12   10 ar
    12   13    5 ar
    13   14   13 1
    14   15    5 1
    15   16   15 1
    16   17   16 1
    17   18   16 2
    18   19   18 1
    19   20   18 1
    20   21   20 ar
    21   22   21 1
    22   23   21 ar
    23   24   23 1
    24   25   23 ar
    25   26   25 ar
    26   27   26 1
    27   28   20 ar
    28   29   28 1
    29   30   25 1
    30   31   30 1
    31   32   30 1
    32   33   30 1
    33   34   48 2
    34   35   37 2
    35   36   37 2
    36   37   45 1
    37   38   39 ar
    38   39   40 1
    39   41   39 ar
    40   42   41 1
    41   43   41 ar
    42   44   43 1
    43   45   43 ar
    44   46   38 ar
    45   47   46 1
    46   48   38 1
    47   49   48 1
    48   50   49 1
    49   51   49 2
    50   52   51 1
    51   53   51 1
    52   54   53 ar
    53   55   54 1
    54   56   54 ar
    55   57   56 1
    56   58   56 ar
    57   59   58 ar
    58   60   59 1
    59   61   53 ar
    60   62   61 1
    61   63   58 1
    62   64   63 1
    63   65   63 1
    64   66   63 1
    65   12   13 ar
    66   26   28 ar
    67   45   46 ar
    68   59   61 ar
@<TRIPOS>SUBSTRUCTURE
     1 RES1 1
     2 RES2 34

@<TRIPOS>CRYSIN
   8.0951   11.5088   14.6970  80.3510  74.8300  84.4160   2 1

