# MOL2 file generated by ConQuest
# Please check atom types

@<TRIPOS>MOLECULE
XISJUF
    29    29     1
SMALL
NO_CHARGES
****
Generated from CSD

@<TRIPOS>ATOM
      1 O1         2.2259    1.5860   -0.4368 O.3       1 RES1    0.0000
      2 O2         4.3324    1.6462    0.4966 O.3       1 RES1    0.0000
      3 O3        -0.4197    3.1305    5.4365 O.2       1 RES1    0.0000
      4 O4         3.3710    2.7231   -2.0042 O.2       1 RES1    0.0000
      5 O5         5.2038    3.7109    0.6360 O.2       1 RES1    0.0000
      6 O6        -0.1853    4.4236    3.7396 O.2       1 RES1    0.0000
      7 N1         0.0406    3.3907    4.3367 N.pl3     1 RES1    0.0000
      8 C1         3.0119    2.1837    0.5900 C.3       1 RES1    0.0000
      9 H1         3.0320    3.1575    0.4815 H         1 RES1    0.0000
     10 C2         1.5321    2.7358    2.5012 C.ar      1 RES1    0.0000
     11 H2         1.3974    3.5735    2.1200 H         1 RES1    0.0000
     12 C3         0.9076    2.3968    3.6776 C.ar      1 RES1    0.0000
     13 C4         2.4485    2.0258   -1.7108 C.2       1 RES1    0.0000
     14 C5         2.3632    1.8162    1.8920 C.ar      1 RES1    0.0000
     15 C6         2.5485    0.5794    2.4741 C.ar      1 RES1    0.0000
     16 H3         3.1038   -0.0453    2.0658 H         1 RES1    0.0000
     17 C7         5.3611    2.5453    0.4796 C.2       1 RES1    0.0000
     18 C8         1.0832    1.1753    4.2807 C.ar      1 RES1    0.0000
     19 H4         0.6556    0.9707    5.0810 H         1 RES1    0.0000
     20 C9         1.9120    0.2618    3.6665 C.ar      1 RES1    0.0000
     21 H5         2.0450   -0.5730    4.0531 H         1 RES1    0.0000
     22 C10        1.3921    1.5189   -2.6277 C.3       1 RES1    0.0000
     23 H6         1.7670    1.3766   -3.5003 H         1 RES1    0.0000
     24 H7         0.6822    2.1625   -2.6855 H         1 RES1    0.0000
     25 H8         1.0453    0.6896   -2.2898 H         1 RES1    0.0000
     26 C11        6.6642    1.8640    0.2565 C.3       1 RES1    0.0000
     27 H9         6.9583    1.4597    1.0767 H         1 RES1    0.0000
     28 H10        7.3150    2.5061   -0.0352 H         1 RES1    0.0000
     29 H11        6.5601    1.1855   -0.4146 H         1 RES1    0.0000
@<TRIPOS>BOND
     1    1    8 1
     2    2    8 1
     3    3    7 2
     4    4   13 2
     5    5   17 2
     6    6    7 2
     7    7   12 1
     8    8    9 1
     9   10   11 1
    10   12   10 ar
    11   13    1 1
    12   14    8 1
    13   15   14 ar
    14   16   15 1
    15   17    2 1
    16   18   12 ar
    17   19   18 1
    18   20   15 ar
    19   21   20 1
    20   22   13 1
    21   23   22 1
    22   24   22 1
    23   25   22 1
    24   26   17 1
    25   27   26 1
    26   28   26 1
    27   29   26 1
    28   10   14 ar
    29   18   20 ar
@<TRIPOS>SUBSTRUCTURE
     1 RES1 1

@<TRIPOS>CRYSIN
   7.8959    8.4779    9.7788 109.0940  98.0310  99.9630   2 1

