# MOL2 file generated by ConQuest
# Please check atom types

@<TRIPOS>MOLECULE
XISJAL
    25    25     1
SMALL
NO_CHARGES
****
Generated from CSD

@<TRIPOS>ATOM
      1 C1        -0.5739   14.0679   -0.4995 C.ar      1 RES1    0.0000
      2 C2        -0.9338   12.7308   -0.4765 C.ar      1 RES1    0.0000
      3 H1        -1.7168   12.4419   -0.8873 H         1 RES1    0.0000
      4 C3        -0.1101   11.8435    0.1647 C.ar      1 RES1    0.0000
      5 H2        -0.3418   10.9444    0.2013 H         1 RES1    0.0000
      6 C4         1.0717   12.2754    0.7632 C.ar      1 RES1    0.0000
      7 C5         1.4218   13.6205    0.7312 C.ar      1 RES1    0.0000
      8 H3         2.2064   13.9149    1.1346 H         1 RES1    0.0000
      9 C6         0.5853   14.5143    0.0908 C.ar      1 RES1    0.0000
     10 H4         0.8065   15.4165    0.0587 H         1 RES1    0.0000
     11 C7         3.0563   11.6623    1.9582 C.3       1 RES1    0.0000
     12 H5         2.9193   12.3683    2.6102 H         1 RES1    0.0000
     13 H6         3.6762   11.9842    1.2845 H         1 RES1    0.0000
     14 C8         3.6077   10.4412    2.6270 C.3       1 RES1    0.0000
     15 H7         4.3857   10.6808    3.1536 H         1 RES1    0.0000
     16 H8         2.9418   10.0679    3.2251 H         1 RES1    0.0000
     17 C9         4.4500    8.2931    2.2651 C.3       1 RES1    0.0000
     18 H9         5.1798    8.5071    2.8505 H         1 RES1    0.0000
     19 H10        4.7511    7.6858    1.5848 H         1 RES1    0.0000
     20 H11        3.7438    7.8819    2.7704 H         1 RES1    0.0000
     21 N1        -1.4337   15.0158   -1.2040 N.pl3     1 RES1    0.0000
     22 O1        -2.4534   14.5985   -1.7368 O.2       1 RES1    0.0000
     23 O2        -1.1035   16.1908   -1.2340 O.2       1 RES1    0.0000
     24 O3         1.8085   11.3009    1.3511 O.3       1 RES1    0.0000
     25 O4         3.9673    9.4805    1.6592 O.3       1 RES1    0.0000
@<TRIPOS>BOND
     1    1    2 ar
     2    2    3 1
     3    4    2 ar
     4    5    4 1
     5    6    4 ar
     6    7    6 ar
     7    8    7 1
     8    9    1 ar
     9   10    9 1
    10   11   12 1
    11   13   11 1
    12   14   11 1
    13   15   14 1
    14   16   14 1
    15   17   18 1
    16   19   17 1
    17   20   17 1
    18   21    1 1
    19   22   21 2
    20   23   21 2
    21   24    6 1
    22   25   14 1
    23    7    9 ar
    24   11   24 1
    25   17   25 1
@<TRIPOS>SUBSTRUCTURE
     1 RES1 1

@<TRIPOS>CRYSIN
  11.2800   20.4300    4.1079  90.0000  90.0000  90.0000  33 1

