# MOL2 file generated by ConQuest
# Please check atom types

@<TRIPOS>MOLECULE
XISKAM
    48    50     2
SMALL
NO_CHARGES
****
Generated from CSD

@<TRIPOS>ATOM
      1 C1         7.2032    2.4672   23.4341 C.ar      1 RES1    0.0000
      2 C2         8.5061    2.6448   23.8045 C.ar      1 RES1    0.0000
      3 H1         8.8978    3.4870   23.7584 H         1 RES1    0.0000
      4 C3         9.2334    1.5609   24.2487 C.ar      1 RES1    0.0000
      5 H2        10.1259    1.6636   24.4897 H         1 RES1    0.0000
      6 C4         8.6264    0.3165   24.3339 C.ar      1 RES1    0.0000
      7 C5         7.3065    0.1521   23.9401 C.ar      1 RES1    0.0000
      8 H3         6.9089   -0.6871   23.9810 H         1 RES1    0.0000
      9 C6         6.5909    1.2313   23.4888 C.ar      1 RES1    0.0000
     10 H4         5.7056    1.1317   23.2224 H         1 RES1    0.0000
     11 C7        10.5355   -0.6485   25.3686 C.3       1 RES1    0.0000
     12 H5        10.5462    0.1034   25.9818 H         1 RES1    0.0000
     13 H6        11.1798   -0.4809   24.6646 H         1 RES1    0.0000
     14 C8        10.7528   -2.1414   27.3518 C.2       1 RES1    0.0000
     15 H7        10.4194   -1.5524   27.9895 H         1 RES1    0.0000
     16 C9        11.5408   -3.7819   26.3977 C.2       1 RES1    0.0000
     17 H8        11.8869   -4.6341   26.2612 H         1 RES1    0.0000
     18 C10        0.3817    5.4563   18.3603 C.ar      2 RES2    0.0000
     19 C11        1.6879    5.6423   18.7305 C.ar      2 RES2    0.0000
     20 H9         2.0606    6.4946   18.7210 H         2 RES2    0.0000
     21 C12        2.4415    4.5593   19.1159 C.ar      2 RES2    0.0000
     22 H10        3.3291    4.6704   19.3705 H         2 RES2    0.0000
     23 C13        1.8642    3.3009   19.1216 C.ar      2 RES2    0.0000
     24 C14        0.5332    3.1319   18.7682 C.ar      2 RES2    0.0000
     25 H11        0.1464    2.2866   18.8005 H         2 RES2    0.0000
     26 C15       -0.2084    4.2126   18.3737 C.ar      2 RES2    0.0000
     27 H12       -1.0970    4.1092   18.1191 H         2 RES2    0.0000
     28 C16        3.8851    2.2518   19.8255 C.3       2 RES2    0.0000
     29 H13        3.9768    2.7691   20.6401 H         2 RES2    0.0000
     30 H14        4.3965    2.6857   19.1253 H         2 RES2    0.0000
     31 C17        4.9716    0.0950   19.1866 C.2       2 RES2    0.0000
     32 H15        5.2138    0.3150   18.3167 H         2 RES2    0.0000
     33 C18        4.6662   -0.8893   20.9846 C.2       2 RES2    0.0000
     34 H16        4.6757   -1.5578   21.6303 H         2 RES2    0.0000
     35 N1         6.4309    3.6298   22.9844 N.pl3     1 RES1    0.0000
     36 N2        10.8667   -1.8566   26.0638 N.pl3     1 RES1    0.0000
     37 N3        11.3881   -2.9258   25.4129 N.2       1 RES1    0.0000
     38 N4        11.1649   -3.3488   27.6155 N.2       1 RES1    0.0000
     39 N5        -0.4334    6.6081   17.9606 N.pl3     2 RES2    0.0000
     40 N6         4.3462    0.9125   20.0271 N.pl3     2 RES2    0.0000
     41 N7         4.1354    0.2795   21.2065 N.2       2 RES2    0.0000
     42 N8         5.2011   -1.0700   19.7566 N.2       2 RES2    0.0000
     43 O1         7.0056    4.6967   22.8611 O.2       1 RES1    0.0000
     44 O2         5.2425    3.4785   22.7495 O.2       1 RES1    0.0000
     45 O3         0.0630    7.7182   18.0503 O.2       2 RES2    0.0000
     46 O4        -1.5751    6.4120   17.5575 O.2       2 RES2    0.0000
     47 O5         2.5178    2.1495   19.4519 O.3       2 RES2    0.0000
     48 O6         9.2397   -0.8113   24.8172 O.3       1 RES1    0.0000
@<TRIPOS>BOND
     1    1    2 ar
     2    2    3 1
     3    4    2 ar
     4    5    4 1
     5    6    4 ar
     6    7    6 ar
     7    8    7 1
     8    9    1 ar
     9   10    9 1
    10   11   12 1
    11   13   11 1
    12   14   15 1
    13   16   17 1
    14   18   19 ar
    15   19   20 1
    16   21   19 ar
    17   22   21 1
    18   23   21 ar
    19   24   23 ar
    20   25   24 1
    21   26   18 ar
    22   27   26 1
    23   28   29 1
    24   30   28 1
    25   31   32 1
    26   33   34 1
    27   35    1 1
    28   36   11 1
    29   37   16 2
    30   38   14 2
    31   39   18 1
    32   40   28 1
    33   41   33 2
    34   42   31 2
    35   43   35 2
    36   44   35 2
    37   45   39 2
    38   46   39 2
    39   47   23 1
    40   48    6 1
    41    7    9 ar
    42   11   48 1
    43   14   36 1
    44   16   38 1
    45   24   26 ar
    46   28   47 1
    47   31   40 1
    48   33   42 1
    49   36   37 1
    50   40   41 1
@<TRIPOS>SUBSTRUCTURE
     1 RES1 1
     2 RES2 18

@<TRIPOS>CRYSIN
  11.2344    7.7197   22.7890  90.0000  94.7300  90.0000 231 1

