# MOL2 file generated by ConQuest
# Please check atom types

@<TRIPOS>MOLECULE
XITRUO
    60    63     1
SMALL
NO_CHARGES
****
Generated from CSD

@<TRIPOS>ATOM
      1 O1         1.7815    2.8712    8.2715 O.3       1 RES1    0.0000
      2 N1         0.8437    3.7672    8.8847 N.3       1 RES1    0.0000
      3 C1         1.5255    4.6827    9.8064 C.3       1 RES1    0.0000
      4 H1         0.8326    5.2974   10.1266 H         1 RES1    0.0000
      5 C2         2.4927    5.5589    8.9338 C.3       1 RES1    0.0000
      6 C3         3.3431    4.6855    7.9781 C.3       1 RES1    0.0000
      7 H2         3.9852    4.1994    8.5368 H         1 RES1    0.0000
      8 C4         2.4797    3.6378    7.2825 C.3       1 RES1    0.0000
      9 H3         1.8251    4.0921    6.7115 H         1 RES1    0.0000
     10 C5        -0.3096    3.0676    9.2875 C.ar      1 RES1    0.0000
     11 C6        -0.5674    1.7862    8.8152 C.ar      1 RES1    0.0000
     12 H4         0.0567    1.3529    8.2798 H         1 RES1    0.0000
     13 C7        -1.7597    1.1515    9.1436 C.ar      1 RES1    0.0000
     14 H5        -1.9324    0.2934    8.8276 H         1 RES1    0.0000
     15 C8        -2.6942    1.7988    9.9445 C.ar      1 RES1    0.0000
     16 H6        -3.4919    1.3746   10.1650 H         1 RES1    0.0000
     17 C9        -2.4355    3.0795   10.4168 C.ar      1 RES1    0.0000
     18 H7        -3.0605    3.5121   10.9530 H         1 RES1    0.0000
     19 C10       -1.2432    3.7146   10.0884 C.ar      1 RES1    0.0000
     20 H8        -1.0705    4.5715   10.4051 H         1 RES1    0.0000
     21 C11        2.1498    4.0819   11.0593 C.ar      1 RES1    0.0000
     22 C12        2.9580    2.9511   11.0669 C.ar      1 RES1    0.0000
     23 H9         3.1264    2.4945   10.2743 H         1 RES1    0.0000
     24 C13        3.5156    2.5032   12.2581 C.ar      1 RES1    0.0000
     25 H10        4.0571    1.7468   12.2642 H         1 RES1    0.0000
     26 C14        3.2650    3.1868   13.4432 C.ar      1 RES1    0.0000
     27 H11        3.6372    2.8868   14.2403 H         1 RES1    0.0000
     28 C15        2.4559    4.3167   13.4357 C.ar      1 RES1    0.0000
     29 H12        2.2884    4.7727   14.2280 H         1 RES1    0.0000
     30 C16        1.8983    4.7645   12.2437 C.ar      1 RES1    0.0000
     31 H13        1.3577    5.5204   12.2380 H         1 RES1    0.0000
     32 C17        3.4257    6.3217    9.8849 C.2       1 RES1    0.0000
     33 O2         4.5717    6.0766   10.0832 O.2       1 RES1    0.0000
     34 O3         2.7438    7.2907   10.4919 O.3       1 RES1    0.0000
     35 C18        3.4791    8.0870   11.4609 C.3       1 RES1    0.0000
     36 H14        2.9014    8.7609   11.8256 H         1 RES1    0.0000
     37 H15        4.2274    8.5061   11.0284 H         1 RES1    0.0000
     38 H16        3.7945    7.5187   12.1673 H         1 RES1    0.0000
     39 C19        1.6114    6.6100    8.2428 C.2       1 RES1    0.0000
     40 O4         0.4301    6.6922    8.3433 O.2       1 RES1    0.0000
     41 O5         2.3437    7.4809    7.5631 O.3       1 RES1    0.0000
     42 C20        1.6232    8.5899    6.9516 C.3       1 RES1    0.0000
     43 H17        2.2407    9.1448    6.4699 H         1 RES1    0.0000
     44 H18        1.1938    9.1079    7.6349 H         1 RES1    0.0000
     45 H19        0.9611    8.2479    6.3468 H         1 RES1    0.0000
     46 C21        4.1631    5.4600    6.9239 C.3       1 RES1    0.0000
     47 H20        4.7276    6.1004    7.3625 H         1 RES1    0.0000
     48 H21        3.5670    5.9160    6.3252 H         1 RES1    0.0000
     49 H22        4.7060    4.8431    6.4253 H         1 RES1    0.0000
     50 C22        3.2327    2.6326    6.4581 C.ar      1 RES1    0.0000
     51 C23        2.8497    2.4261    5.1378 C.ar      1 RES1    0.0000
     52 H23        2.1355    2.9018    4.7801 H         1 RES1    0.0000
     53 C24        3.5354    1.5071    4.3510 C.ar      1 RES1    0.0000
     54 H24        3.2797    1.3696    3.4673 H         1 RES1    0.0000
     55 C25        4.6032    0.7958    4.8848 C.ar      1 RES1    0.0000
     56 H25        5.0617    0.1811    4.3584 H         1 RES1    0.0000
     57 C26        4.9861    1.0023    6.2052 C.ar      1 RES1    0.0000
     58 H26        5.7004    0.5264    6.5623 H         1 RES1    0.0000
     59 C27        4.3004    1.9207    6.9915 C.ar      1 RES1    0.0000
     60 H27        4.5571    2.0586    7.8750 H         1 RES1    0.0000
@<TRIPOS>BOND
     1    1    2 1
     2    2    3 1
     3    3    4 1
     4    5    3 1
     5    6    5 1
     6    7    6 1
     7    8    1 1
     8    9    8 1
     9   10    2 1
    10   11   10 ar
    11   12   11 1
    12   13   11 ar
    13   14   13 1
    14   15   13 ar
    15   16   15 1
    16   17   15 ar
    17   18   17 1
    18   19   10 ar
    19   20   19 1
    20   21    3 1
    21   22   21 ar
    22   23   22 1
    23   24   22 ar
    24   25   24 1
    25   26   24 ar
    26   27   26 1
    27   28   26 ar
    28   29   28 1
    29   30   21 ar
    30   31   30 1
    31   32    5 1
    32   33   32 2
    33   34   32 1
    34   35   34 1
    35   36   35 1
    36   37   35 1
    37   38   35 1
    38   39    5 1
    39   40   39 2
    40   41   39 1
    41   42   41 1
    42   43   42 1
    43   44   42 1
    44   45   42 1
    45   46    6 1
    46   47   46 1
    47   48   46 1
    48   49   46 1
    49   50    8 1
    50   51   50 ar
    51   52   51 1
    52   53   51 ar
    53   54   53 1
    54   55   53 ar
    55   56   55 1
    56   57   55 ar
    57   58   57 1
    58   59   50 ar
    59   60   59 1
    60    6    8 1
    61   17   19 ar
    62   28   30 ar
    63   57   59 ar
@<TRIPOS>SUBSTRUCTURE
     1 RES1 1

@<TRIPOS>CRYSIN
   9.3258   16.7640   15.4111  90.0000  93.0060  90.0000 231 1

