# MOL2 file generated by ConQuest
# Please check atom types

@<TRIPOS>MOLECULE
XITSAV
    63    66     1
SMALL
NO_CHARGES
****
Generated from CSD

@<TRIPOS>ATOM
      1 O1        14.5701    1.7433    2.1646 O.3       1 RES1    0.0000
      2 N1        15.6522    2.6374    2.5521 N.3       1 RES1    0.0000
      3 C1        15.1652    3.5147    3.6294 C.3       1 RES1    0.0000
      4 H1        15.9088    4.1199    3.8302 H         1 RES1    0.0000
      5 C2        14.0464    4.4179    3.0202 C.3       1 RES1    0.0000
      6 C3        12.9855    3.5767    2.2542 C.3       1 RES1    0.0000
      7 H2        12.4696    3.0899    2.9304 H         1 RES1    0.0000
      8 C4        13.6601    2.5301    1.3822 C.3       1 RES1    0.0000
      9 H3        14.1618    2.9835    0.6722 H         1 RES1    0.0000
     10 C5        16.7360    1.7444    2.9591 C.3       1 RES1    0.0000
     11 H4        16.8169    1.0263    2.3125 H         1 RES1    0.0000
     12 H5        16.5170    1.3483    3.8179 H         1 RES1    0.0000
     13 C6        18.0609    2.4671    3.0682 C.ar      1 RES1    0.0000
     14 C7        18.4066    3.4573    2.1558 C.ar      1 RES1    0.0000
     15 H6        17.7911    3.7368    1.5177 H         1 RES1    0.0000
     16 C8        19.6729    4.0283    2.1969 C.ar      1 RES1    0.0000
     17 H7        19.9048    4.6909    1.5860 H         1 RES1    0.0000
     18 C9        20.5938    3.6100    3.1505 C.ar      1 RES1    0.0000
     19 H8        21.4412    3.9922    3.1772 H         1 RES1    0.0000
     20 C10       20.2482    2.6198    4.0628 C.ar      1 RES1    0.0000
     21 H9        20.8638    2.3404    4.7002 H         1 RES1    0.0000
     22 C11       18.9817    2.0489    4.0217 C.ar      1 RES1    0.0000
     23 H10       18.7502    1.3863    4.6319 H         1 RES1    0.0000
     24 C12       14.8127    2.8429    4.9603 C.ar      1 RES1    0.0000
     25 C13       13.8659    1.8342    5.0939 C.ar      1 RES1    0.0000
     26 H11       13.3991    1.5325    4.3484 H         1 RES1    0.0000
     27 C14       13.6166    1.2752    6.3422 C.ar      1 RES1    0.0000
     28 H12       12.9829    0.6006    6.4315 H         1 RES1    0.0000
     29 C15       14.3142    1.7259    7.4570 C.ar      1 RES1    0.0000
     30 H13       14.1481    1.3520    8.2923 H         1 RES1    0.0000
     31 C16       15.2611    2.7346    7.3234 C.ar      1 RES1    0.0000
     32 H14       15.7280    3.0363    8.0700 H         1 RES1    0.0000
     33 C17       15.5103    3.2926    6.0751 C.ar      1 RES1    0.0000
     34 H15       16.1444    3.9682    5.9851 H         1 RES1    0.0000
     35 C18       13.3527    5.1601    4.1581 C.2       1 RES1    0.0000
     36 O2        12.2197    5.0203    4.4980 O.2       1 RES1    0.0000
     37 O3        14.2114    5.9791    4.7678 O.3       1 RES1    0.0000
     38 C19       13.6945    6.7074    5.9046 C.3       1 RES1    0.0000
     39 H16       14.3873    7.2617    6.2722 H         1 RES1    0.0000
     40 H17       13.3936    6.0864    6.5716 H         1 RES1    0.0000
     41 H18       12.9583    7.2580    5.6245 H         1 RES1    0.0000
     42 C20       14.7124    5.4821    2.1346 C.2       1 RES1    0.0000
     43 O4        15.8367    5.4664    1.7633 O.2       1 RES1    0.0000
     44 O5        13.8929    6.4603    1.8384 O.3       1 RES1    0.0000
     45 C21       14.4189    7.5375    1.0311 C.3       1 RES1    0.0000
     46 H19       13.7343    8.1954    0.8893 H         1 RES1    0.0000
     47 H20       14.7098    7.1904    0.1838 H         1 RES1    0.0000
     48 H21       15.1629    7.9419    1.4827 H         1 RES1    0.0000
     49 C22       11.9849    4.3744    1.4283 C.3       1 RES1    0.0000
     50 H22       11.3580    3.7738    1.0171 H         1 RES1    0.0000
     51 H23       12.4507    4.8658    0.7475 H         1 RES1    0.0000
     52 H24       11.5140    4.9861    1.9991 H         1 RES1    0.0000
     53 C23       12.7006    1.5477    0.7510 C.ar      1 RES1    0.0000
     54 C24       12.6749    1.4129   -0.6321 C.ar      1 RES1    0.0000
     55 H25       13.2059    1.9609   -1.1624 H         1 RES1    0.0000
     56 C25       11.8542    0.4590   -1.2222 C.ar      1 RES1    0.0000
     57 H26       11.8365    0.3683   -2.1479 H         1 RES1    0.0000
     58 C26       11.0595   -0.3606   -0.4291 C.ar      1 RES1    0.0000
     59 H27       10.5097   -0.9994   -0.8245 H         1 RES1    0.0000
     60 C27       11.0852   -0.2258    0.9540 C.ar      1 RES1    0.0000
     61 H28       10.5537   -0.7736    1.4845 H         1 RES1    0.0000
     62 C28       11.9059    0.7284    1.5442 C.ar      1 RES1    0.0000
     63 H29       11.9231    0.8190    2.4700 H         1 RES1    0.0000
@<TRIPOS>BOND
     1    1    2 1
     2    2    3 1
     3    3    4 1
     4    5    3 1
     5    6    5 1
     6    7    6 1
     7    8    1 1
     8    9    8 1
     9   10    2 1
    10   11   10 1
    11   12   10 1
    12   13   10 1
    13   14   13 ar
    14   15   14 1
    15   16   14 ar
    16   17   16 1
    17   18   16 ar
    18   19   18 1
    19   20   18 ar
    20   21   20 1
    21   22   13 ar
    22   23   22 1
    23   24    3 1
    24   25   24 ar
    25   26   25 1
    26   27   25 ar
    27   28   27 1
    28   29   27 ar
    29   30   29 1
    30   31   29 ar
    31   32   31 1
    32   33   24 ar
    33   34   33 1
    34   35    5 1
    35   36   35 2
    36   37   35 1
    37   38   37 1
    38   39   38 1
    39   40   38 1
    40   41   38 1
    41   42    5 1
    42   43   42 2
    43   44   42 1
    44   45   44 1
    45   46   45 1
    46   47   45 1
    47   48   45 1
    48   49    6 1
    49   50   49 1
    50   51   49 1
    51   52   49 1
    52   53    8 1
    53   54   53 ar
    54   55   54 1
    55   56   54 ar
    56   57   56 1
    57   58   56 ar
    58   59   58 1
    59   60   58 ar
    60   61   60 1
    61   62   53 ar
    62   63   62 1
    63    6    8 1
    64   20   22 ar
    65   31   33 ar
    66   60   62 ar
@<TRIPOS>SUBSTRUCTURE
     1 RES1 1

@<TRIPOS>CRYSIN
  15.4820    9.2541   17.6066  90.0000  96.1440  90.0000 231 1

