# MOL2 file generated by ConQuest
# Please check atom types

@<TRIPOS>MOLECULE
XIVDIQ
   136   142     2
SMALL
NO_CHARGES
****
Generated from CSD

@<TRIPOS>ATOM
      1 C1         2.3699   12.1087    1.4817 C.ar      1 RES1    0.0000
      2 C2         2.3319   13.4935    1.4228 C.ar      1 RES1    0.0000
      3 H1         1.5206   13.9406    1.3448 H         1 RES1    0.0000
      4 C3         3.5080   14.1878    1.4852 C.ar      1 RES1    0.0000
      5 C4         4.7272   13.5404    1.6013 C.ar      1 RES1    0.0000
      6 H2         5.5141   14.0370    1.6204 H         1 RES1    0.0000
      7 C5         4.7830   12.1784    1.6897 C.ar      1 RES1    0.0000
      8 H3         5.6054   11.7555    1.7885 H         1 RES1    0.0000
      9 C6         3.5951   11.4061    1.6325 C.ar      1 RES1    0.0000
     10 C7         4.8744    8.1476    1.7209 C.2       1 RES1    0.0000
     11 C8         3.6760    7.3082    1.4558 C.3       1 RES1    0.0000
     12 H4         2.9016    7.8715    1.3830 H         1 RES1    0.0000
     13 H5         3.5531    6.6880    2.1784 H         1 RES1    0.0000
     14 H6         3.7984    6.8246    0.6360 H         1 RES1    0.0000
     15 C9         6.2009    7.4594    1.8751 C.3       1 RES1    0.0000
     16 H7         6.3531    6.9050    1.0935 H         1 RES1    0.0000
     17 H8         6.1568    6.8728    2.6464 H         1 RES1    0.0000
     18 C10        7.3980    8.4007    2.0467 C.3       1 RES1    0.0000
     19 H9         7.3912    9.0515    1.3275 H         1 RES1    0.0000
     20 H10        7.3001    8.8831    2.8820 H         1 RES1    0.0000
     21 C11        8.7501    7.6818    2.0467 C.3       1 RES1    0.0000
     22 H11        8.6987    6.9559    1.3899 H         1 RES1    0.0000
     23 C12        9.9640    8.5780    1.6620 C.3       1 RES1    0.0000
     24 C13       10.0414    9.7557    2.6325 C.3       1 RES1    0.0000
     25 H12       10.8086   10.3014    2.4020 H         1 RES1    0.0000
     26 H13        9.2476   10.3018    2.5268 H         1 RES1    0.0000
     27 C14       10.1557    9.3430    4.0761 C.3       1 RES1    0.0000
     28 H14        9.8577   10.0921    4.6324 H         1 RES1    0.0000
     29 C15        9.3489    8.1279    4.4522 C.3       1 RES1    0.0000
     30 H15        8.4467    8.4029    4.6775 H         1 RES1    0.0000
     31 H16        9.7395    7.7180    5.2407 H         1 RES1    0.0000
     32 C16        9.2939    7.0967    3.3257 C.3       1 RES1    0.0000
     33 C17        8.5886    5.8234    3.8508 C.3       1 RES1    0.0000
     34 H17        8.5474    5.1694    3.1489 H         1 RES1    0.0000
     35 H18        7.6987    6.0443    4.1350 H         1 RES1    0.0000
     36 H19        9.0833    5.4659    4.5908 H         1 RES1    0.0000
     37 C18       11.0747    7.5765    1.9150 C.3       1 RES1    0.0000
     38 H20       11.2408    7.0538    1.1143 H         1 RES1    0.0000
     39 H21       11.8934    8.0403    2.1524 H         1 RES1    0.0000
     40 C19        9.9614    9.1001    0.2357 C.3       1 RES1    0.0000
     41 H22       10.7343    9.6516    0.0953 H         1 RES1    0.0000
     42 H23        9.1676    9.6193    0.0867 H         1 RES1    0.0000
     43 H24        9.9801    8.3610   -0.3761 H         1 RES1    0.0000
     44 C20       12.3682   10.1083    4.5926 C.2       1 RES1    0.0000
     45 C21       13.7807    9.7330    4.8248 C.ar      1 RES1    0.0000
     46 C22       14.2186    8.4127    4.7503 C.ar      1 RES1    0.0000
     47 H25       13.6094    7.7329    4.5718 H         1 RES1    0.0000
     48 C23       15.5437    8.1088    4.9409 C.ar      1 RES1    0.0000
     49 H26       15.8348    7.2262    4.9114 H         1 RES1    0.0000
     50 C24       16.4330    9.1313    5.1749 C.ar      1 RES1    0.0000
     51 C25       16.0268   10.4381    5.2719 C.ar      1 RES1    0.0000
     52 H27       16.6384   11.1134    5.4556 H         1 RES1    0.0000
     53 C26       14.6939   10.7283    5.0899 C.ar      1 RES1    0.0000
     54 H28       14.4065   11.6102    5.1471 H         1 RES1    0.0000
     55 C27       -0.4756    1.1671    7.0292 C.ar      2 RES2    0.0000
     56 C28       -0.0980   -0.1512    7.1886 C.ar      2 RES2    0.0000
     57 H29       -0.4808   -0.8121    6.6583 H         2 RES2    0.0000
     58 C29        0.8393   -0.4837    8.1280 C.ar      2 RES2    0.0000
     59 C30        1.3756    0.4869    8.9806 C.ar      2 RES2    0.0000
     60 H30        1.9840    0.2465    9.6409 H         2 RES2    0.0000
     61 C31        1.0044    1.7685    8.8402 C.ar      2 RES2    0.0000
     62 H31        1.3405    2.4025    9.4312 H         2 RES2    0.0000
     63 C32        0.1146    2.1889    7.8177 C.ar      2 RES2    0.0000
     64 C33        0.3889    5.6710    7.9165 C.2       2 RES2    0.0000
     65 C34       -0.5724    6.1333    6.8646 C.3       2 RES2    0.0000
     66 H32       -1.0459    5.3780    6.5076 H         2 RES2    0.0000
     67 H33       -0.0898    6.5701    6.1592 H         2 RES2    0.0000
     68 H34       -1.1990    6.7494    7.2510 H         2 RES2    0.0000
     69 C35        1.2206    6.7480    8.5907 C.3       2 RES2    0.0000
     70 H35        1.7674    7.1732    7.9113 H         2 RES2    0.0000
     71 H36        0.6154    7.4217    8.9356 H         2 RES2    0.0000
     72 C36        2.1236    6.3175    9.7102 C.3       2 RES2    0.0000
     73 H37        1.5825    5.9201   10.4104 H         2 RES2    0.0000
     74 H38        2.7219    5.6306    9.3775 H         2 RES2    0.0000
     75 C37        2.9470    7.4186   10.3099 C.3       2 RES2    0.0000
     76 H39        2.4366    8.2489   10.2111 H         2 RES2    0.0000
     77 C38        4.3328    7.6942    9.8385 C.3       2 RES2    0.0000
     78 C39        5.1621    6.6035    9.8731 C.3       2 RES2    0.0000
     79 H40        6.0499    6.8900    9.6028 H         2 RES2    0.0000
     80 H41        4.8515    5.9656    9.2111 H         2 RES2    0.0000
     81 C40        5.2798    5.9060   11.1538 C.3       2 RES2    0.0000
     82 H42        5.5022    4.9666   10.9857 H         2 RES2    0.0000
     83 C41        4.0943    5.9673   12.0048 C.3       2 RES2    0.0000
     84 H43        4.3657    5.8893   12.9337 H         2 RES2    0.0000
     85 H44        3.5175    5.2143   11.8003 H         2 RES2    0.0000
     86 C42        3.3043    7.2750   11.8176 C.3       2 RES2    0.0000
     87 C43        2.0855    7.3976   12.6668 C.3       2 RES2    0.0000
     88 H45        2.3250    7.2746   13.5888 H         2 RES2    0.0000
     89 H46        1.4480    6.7275   12.4103 H         2 RES2    0.0000
     90 H47        1.6997    8.2693   12.5507 H         2 RES2    0.0000
     91 C44        4.2538    8.3855   11.9909 C.3       2 RES2    0.0000
     92 H48        3.7957    9.1364   12.3999 H         2 RES2    0.0000
     93 H49        4.9650    8.1076   12.5888 H         2 RES2    0.0000
     94 C45        4.2578    8.4114    8.4954 C.3       2 RES2    0.0000
     95 H50        4.0351    7.7801    7.8073 H         2 RES2    0.0000
     96 H51        5.1062    8.8120    8.2995 H         2 RES2    0.0000
     97 H52        3.5828    9.0929    8.5352 H         2 RES2    0.0000
     98 C46        7.2435    5.7300   12.5420 C.2       2 RES2    0.0000
     99 C47        8.3290    6.4131   13.2734 C.ar      2 RES2    0.0000
    100 C48        8.4063    7.7961   13.3929 C.ar      2 RES2    0.0000
    101 H53        7.7339    8.3282   13.0342 H         2 RES2    0.0000
    102 C49        9.4852    8.3902   14.0480 C.ar      2 RES2    0.0000
    103 H54        9.5599    9.3159   14.1121 H         2 RES2    0.0000
    104 C50       10.4383    7.5572   14.5939 C.ar      2 RES2    0.0000
    105 C51       10.3609    6.1835   14.5021 C.ar      2 RES2    0.0000
    106 H55       11.0219    5.6497   14.8799 H         2 RES2    0.0000
    107 C52        9.3140    5.6200   13.8591 C.ar      2 RES2    0.0000
    108 H56        9.2506    4.6936   13.8071 H         2 RES2    0.0000
    109 N1         3.4513   15.6370    1.4367 N.pl3     1 RES1    0.0000
    110 N2         1.1037   11.4291    1.3899 N.pl3     1 RES1    0.0000
    111 N3         3.6390   10.0479    1.6724 N.pl3     1 RES1    0.0000
    112 N4         4.8928    9.4403    1.8128 N.2       1 RES1    0.0000
    113 N5        17.8471    8.8176    5.3880 N.pl3     1 RES1    0.0000
    114 N6         1.2811   -1.8767    8.2389 N.pl3     2 RES2    0.0000
    115 N7        -1.4955    1.4251    6.0570 N.pl3     2 RES2    0.0000
    116 N8        -0.1667    3.5119    7.5959 N.pl3     2 RES2    0.0000
    117 N9         0.6008    4.4612    8.2822 N.2       2 RES2    0.0000
    118 N10       11.5935    8.1691   15.2785 N.pl3     2 RES2    0.0000
    119 O1         4.5153   16.2708    1.4072 O.2       1 RES1    0.0000
    120 O2         2.3552   16.1956    1.4263 O.2       1 RES1    0.0000
    121 O3         0.0872   12.0736    1.1247 O.2       1 RES1    0.0000
    122 O4         1.0615   10.1784    1.5632 O.2       1 RES1    0.0000
    123 O5        10.6664    6.7124    2.9947 O.3       1 RES1    0.0000
    124 O6        11.5664    9.0631    4.4002 O.3       1 RES1    0.0000
    125 O7        11.9938   11.2653    4.5718 O.2       1 RES1    0.0000
    126 O8        18.1823    7.6478    5.4106 O.2       1 RES1    0.0000
    127 O9        18.6457    9.7467    5.5180 O.2       1 RES1    0.0000
    128 O10        2.1059   -2.1505    9.1054 O.2       2 RES2    0.0000
    129 O11        0.7772   -2.7205    7.4919 O.2       2 RES2    0.0000
    130 O12       -2.0070    0.4918    5.4435 O.2       2 RES2    0.0000
    131 O13       -1.8617    2.6119    5.8698 O.2       2 RES2    0.0000
    132 O14        4.7276    8.7324   10.9441 O.3       2 RES2    0.0000
    133 O15        6.3646    6.5228   12.0065 O.3       2 RES2    0.0000
    134 O16        7.1904    4.5416   12.3808 O.2       2 RES2    0.0000
    135 O17       12.4029    7.4266   15.8192 O.2       2 RES2    0.0000
    136 O18       11.7268    9.3874   15.2404 O.2       2 RES2    0.0000
@<TRIPOS>BOND
     1    1    2 ar
     2    2    3 1
     3    4    2 ar
     4    5    4 ar
     5    6    5 1
     6    7    5 ar
     7    8    7 1
     8    9    1 ar
     9   10   11 1
    10   11   12 1
    11   13   11 1
    12   14   11 1
    13   15   10 1
    14   16   15 1
    15   17   15 1
    16   18   15 1
    17   19   18 1
    18   20   18 1
    19   21   18 1
    20   22   21 1
    21   23   21 1
    22   24   23 1
    23   25   24 1
    24   26   24 1
    25   27   24 1
    26   28   27 1
    27   29   27 1
    28   30   29 1
    29   31   29 1
    30   32   21 1
    31   33   32 1
    32   34   33 1
    33   35   33 1
    34   36   33 1
    35   37   23 1
    36   38   37 1
    37   39   37 1
    38   40   23 1
    39   41   40 1
    40   42   40 1
    41   43   40 1
    42   44   45 1
    43   45   46 ar
    44   46   47 1
    45   48   46 ar
    46   49   48 1
    47   50   48 ar
    48   51   50 ar
    49   52   51 1
    50   53   45 ar
    51   54   53 1
    52   55   56 ar
    53   56   57 1
    54   58   56 ar
    55   59   58 ar
    56   60   59 1
    57   61   59 ar
    58   62   61 1
    59   63   55 ar
    60   64   65 1
    61   65   66 1
    62   67   65 1
    63   68   65 1
    64   69   64 1
    65   70   69 1
    66   71   69 1
    67   72   69 1
    68   73   72 1
    69   74   72 1
    70   75   72 1
    71   76   75 1
    72   77   75 1
    73   78   77 1
    74   79   78 1
    75   80   78 1
    76   81   78 1
    77   82   81 1
    78   83   81 1
    79   84   83 1
    80   85   83 1
    81   86   75 1
    82   87   86 1
    83   88   87 1
    84   89   87 1
    85   90   87 1
    86   91   86 1
    87   92   91 1
    88   93   91 1
    89   94   77 1
    90   95   94 1
    91   96   94 1
    92   97   94 1
    93   98   99 1
    94   99  100 ar
    95  100  101 1
    96  102  100 ar
    97  103  102 1
    98  104  102 ar
    99  105  104 ar
   100  106  105 1
   101  107   99 ar
   102  108  107 1
   103  109    4 1
   104  110    1 1
   105  111    9 1
   106  112   10 2
   107  113   50 1
   108  114   58 1
   109  115   55 1
   110  116   63 1
   111  117   64 2
   112  118  104 1
   113  119  109 2
   114  120  109 2
   115  121  110 2
   116  122  110 2
   117  123   32 1
   118  124   27 1
   119  125   44 2
   120  126  113 2
   121  127  113 2
   122  128  114 2
   123  129  114 2
   124  130  115 2
   125  131  115 2
   126  132   77 1
   127  133   81 1
   128  134   98 2
   129  135  118 2
   130  136  118 2
   131    7    9 ar
   132   29   32 1
   133   37  123 1
   134   44  124 1
   135   51   53 ar
   136   61   63 ar
   137   83   86 1
   138   91  132 1
   139   98  133 1
   140  105  107 ar
   141  111  112 1
   142  116  117 1
@<TRIPOS>SUBSTRUCTURE
     1 RES1 1
     2 RES2 55

@<TRIPOS>CRYSIN
  12.3160   12.5540   17.5880  98.2820  94.1860  97.0130   2 1

