# MOL2 file generated by ConQuest
# Please check atom types

@<TRIPOS>MOLECULE
XIVJES
    34    35     1
SMALL
NO_CHARGES
****
Generated from CSD

@<TRIPOS>ATOM
      1 O1         3.7460    1.7698    2.6095 O.3       1 RES1    0.0000
      2 O2         2.1085    0.4012    1.9519 O.2       1 RES1    0.0000
      3 O3         7.3633   -2.4965    0.1523 O.2       1 RES1    0.0000
      4 O4         7.6082    2.3602    7.4000 O.2       1 RES1    0.0000
      5 O5         7.8454    3.3290    5.5016 O.2       1 RES1    0.0000
      6 N1         6.7506   -0.6176    1.2640 N.am      1 RES1    0.0000
      7 H1         7.6505   -0.2327    1.2070 H         1 RES1    0.0000
      8 N2         5.2420   -2.3304    0.9444 N.am      1 RES1    0.0000
      9 H2         5.0004   -3.2419    0.5441 H         1 RES1    0.0000
     10 N3         7.5371    2.3773    6.1846 N.pl3     1 RES1    0.0000
     11 C1         4.3964   -0.3032    1.8188 C.2       1 RES1    0.0000
     12 C2         5.8195    0.1741    2.0623 C.3       1 RES1    0.0000
     13 H3         5.8809    1.1056    1.7642 H         1 RES1    0.0000
     14 C3         6.5110   -1.8308    0.7662 C.2       1 RES1    0.0000
     15 C4         4.1730   -1.5441    1.3377 C.2       1 RES1    0.0000
     16 C5         2.8635   -2.2263    1.1595 C.3       1 RES1    0.0000
     17 H4         2.2863   -2.0066    1.8948 H         1 RES1    0.0000
     18 H5         2.9992   -3.1763    1.1321 H         1 RES1    0.0000
     19 H6         2.4604   -1.9367    0.3386 H         1 RES1    0.0000
     20 C6         3.2888    0.5988    2.1158 C.2       1 RES1    0.0000
     21 C7         2.7459    2.7544    2.9331 C.3       1 RES1    0.0000
     22 H7         2.2318    2.9581    2.1491 H         1 RES1    0.0000
     23 H8         3.1744    3.5523    3.2503 H         1 RES1    0.0000
     24 H9         2.1663    2.4092    3.6162 H         1 RES1    0.0000
     25 C8         6.1942    0.1262    3.5378 C.ar      1 RES1    0.0000
     26 C9         6.6745    1.2503    4.1829 C.ar      1 RES1    0.0000
     27 H10        6.7564    2.0546    3.7231 H         1 RES1    0.0000
     28 C10        7.0321    1.1705    5.5170 C.ar      1 RES1    0.0000
     29 C11        6.9337    0.0048    6.2322 C.ar      1 RES1    0.0000
     30 H11        7.1787   -0.0250    7.1291 H         1 RES1    0.0000
     31 C12        6.4673   -1.1128    5.5990 C.ar      1 RES1    0.0000
     32 H12        6.3936   -1.9157    6.0635 H         1 RES1    0.0000
     33 C13        6.1049   -1.0449    4.2637 C.ar      1 RES1    0.0000
     34 H13        5.7921   -1.8129    3.8431 H         1 RES1    0.0000
@<TRIPOS>BOND
     1    1   20 1
     2    2   20 2
     3    3   14 2
     4    4   10 2
     5    5   10 2
     6    6    7 1
     7    8    9 1
     8   10   28 1
     9   11   12 1
    10   12    6 1
    11   13   12 1
    12   14    6 1
    13   15    8 1
    14   16   15 1
    15   17   16 1
    16   18   16 1
    17   19   16 1
    18   20   11 1
    19   21    1 1
    20   22   21 1
    21   23   21 1
    22   24   21 1
    23   25   12 1
    24   26   25 ar
    25   27   26 1
    26   28   26 ar
    27   29   28 ar
    28   30   29 1
    29   31   29 ar
    30   32   31 1
    31   33   25 ar
    32   34   33 1
    33    8   14 1
    34   11   15 2
    35   31   33 ar
@<TRIPOS>SUBSTRUCTURE
     1 RES1 1

@<TRIPOS>CRYSIN
   7.4629    7.9203   12.1260  86.8040  78.4710  69.4010   2 1

