# MOL2 file generated by ConQuest
# Please check atom types

@<TRIPOS>MOLECULE
XIVNIZ
   110   114     2
SMALL
NO_CHARGES
****
Generated from CSD

@<TRIPOS>ATOM
      1 O1         0.6851   -0.6027    0.5060 O.3       1 RES1    0.0000
      2 O2         3.4874    2.1178    3.9944 O.3       2 RES2    0.0000
      3 O3         2.2835   -0.8581    2.0847 O.2       1 RES1    0.0000
      4 O4        -2.5538   -3.6696    6.1689 O.2       1 RES1    0.0000
      5 O5         1.7452    2.6909    2.6921 O.2       2 RES2    0.0000
      6 C1         1.3146    1.4834    4.7172 C.ar      2 RES2    0.0000
      7 C2         0.0369   -1.5242    2.6052 C.ar      1 RES1    0.0000
      8 N1        -2.9122   -3.1527    5.1491 N.pl3     1 RES1    0.0000
      9 C3        -0.5632   -2.6214    4.6587 C.ar      1 RES1    0.0000
     10 C4         2.1736    2.1658    3.6835 C.2       2 RES2    0.0000
     11 C5         2.0629   -0.9889   -1.4397 C.ar      1 RES1    0.0000
     12 C6         2.1141    1.1646   -0.2814 C.ar      1 RES1    0.0000
     13 C7         4.3766    2.7011    3.0566 C.ar      2 RES2    0.0000
     14 O6        -2.4680   -0.5374    7.0967 O.2       2 RES2    0.0000
     15 C8        -1.2995   -1.4915    2.2081 C.ar      1 RES1    0.0000
     16 N2        -1.2860   -0.4638    7.4060 N.pl3     2 RES2    0.0000
     17 C9        -1.8785   -2.5703    4.2407 C.ar      1 RES1    0.0000
     18 C10        0.4028   -2.0718    3.8144 C.ar      1 RES1    0.0000
     19 C11        1.6677   -0.1308   -0.4244 C.ar      1 RES1    0.0000
     20 O7        -0.8011   -0.9154    8.4341 O.2       2 RES2    0.0000
     21 C12        0.0595   -2.2945   -2.2374 C.3       1 RES1    0.0000
     22 C13        3.4573    0.8459   -2.2207 C.ar      1 RES1    0.0000
     23 C14        4.3224    4.7913    4.4692 C.3       2 RES2    0.0000
     24 C15        4.7824    1.8981    1.9978 C.ar      2 RES2    0.0000
     25 C16        1.4538   -2.3844   -1.5353 C.3       1 RES1    0.0000
     26 C17        1.8348    0.8765    5.8457 C.ar      2 RES2    0.0000
     27 C18        4.3051    6.3319    4.3689 C.3       2 RES2    0.0000
     28 C19        1.1233   -0.9583    1.7303 C.2       1 RES1    0.0000
     29 C20        5.6942    6.9877    4.6141 C.3       2 RES2    0.0000
     30 C21        4.8547    3.9904    3.2761 C.ar      2 RES2    0.0000
     31 C22        6.3853    6.4156    5.8763 C.3       2 RES2    0.0000
     32 C23       -2.2723   -2.0187    3.0482 C.ar      1 RES1    0.0000
     33 C24       -0.9027    0.8398    5.3692 C.ar      2 RES2    0.0000
     34 C25        5.7326    2.3762    1.1229 C.ar      2 RES2    0.0000
     35 C26        0.9855    0.2391    6.7456 C.ar      2 RES2    0.0000
     36 C27        5.8139    4.4399    2.3684 C.ar      2 RES2    0.0000
     37 C28       -0.3712    0.2534    6.4642 C.ar      2 RES2    0.0000
     38 C29        3.0297    1.6550   -1.2093 C.ar      1 RES1    0.0000
     39 C30        5.0633    4.3316    5.7579 C.3       2 RES2    0.0000
     40 C31        2.2881   -3.5245   -2.1650 C.3       1 RES1    0.0000
     41 C32        6.4599    4.8996    5.8707 C.3       2 RES2    0.0000
     42 C33        6.2558    3.6451    1.3179 C.ar      2 RES2    0.0000
     43 C34        3.7291   -3.6573   -1.5965 C.3       1 RES1    0.0000
     44 C35       -0.0520    1.4793    4.4804 C.ar      2 RES2    0.0000
     45 C36        2.2820   -3.5347   -3.7058 C.3       1 RES1    0.0000
     46 C37        3.4942    8.4016    3.1234 C.3       2 RES2    0.0000
     47 C38        2.9777   -0.4475   -2.3461 C.ar      1 RES1    0.0000
     48 O8        -4.0604   -3.0954    4.7952 O.2       1 RES1    0.0000
     49 C39        3.6207    6.8672    3.1123 C.3       2 RES2    0.0000
     50 C40        0.1589   -2.1576   -3.7504 C.3       1 RES1    0.0000
     51 C41        7.1940    4.3745    7.1190 C.3       2 RES2    0.0000
     52 C42        0.8899   -3.3611   -4.3076 C.3       1 RES1    0.0000
     53 C43       -1.2378   -2.0187   -4.3717 C.3       1 RES1    0.0000
     54 C44        2.2316    6.2645    2.8978 C.3       2 RES2    0.0000
     55 C45        3.7856   -3.5572   -0.0780 C.3       1 RES1    0.0000
     56 C46        4.3819   -4.9568   -2.0396 C.3       1 RES1    0.0000
     57 H1        -0.3003   -3.0493    5.4779 H         1 RES1    0.0000
     58 H2         1.7971    1.7455    0.4154 H         1 RES1    0.0000
     59 H3        -1.5423   -1.1395    1.3472 H         1 RES1    0.0000
     60 H4         1.3211   -2.0501    4.0936 H         1 RES1    0.0000
     61 H5        -0.4004   -1.5302   -1.8799 H         1 RES1    0.0000
     62 H6        -0.4426   -3.0891   -2.0443 H         1 RES1    0.0000
     63 H7         4.1119    1.1814   -2.8390 H         1 RES1    0.0000
     64 H8         3.4244    4.4587    4.5369 H         2 RES2    0.0000
     65 H9         4.3960    1.0249    1.8833 H         2 RES2    0.0000
     66 H10        1.3067   -2.7260   -0.6492 H         1 RES1    0.0000
     67 H11        2.7833    0.8896    5.9931 H         2 RES2    0.0000
     68 H12        3.7576    6.6721    5.0794 H         2 RES2    0.0000
     69 H13        5.5617    7.9290    4.7518 H         2 RES2    0.0000
     70 H14        6.2521    6.8502    3.8462 H         2 RES2    0.0000
     71 H15        5.8800    6.6815    6.6487 H         2 RES2    0.0000
     72 H16        7.2721    6.7775    5.9354 H         2 RES2    0.0000
     73 H17       -3.2061   -1.9684    2.8298 H         1 RES1    0.0000
     74 H18       -1.8462    0.8191    5.1895 H         2 RES2    0.0000
     75 H19        6.0336    1.8405    0.3837 H         2 RES2    0.0000
     76 H20        6.1847    5.3229    2.4525 H         2 RES2    0.0000
     77 H21        3.3739    2.5487   -1.1234 H         1 RES1    0.0000
     78 H22        5.1228    3.3739    5.7551 H         2 RES2    0.0000
     79 H23        4.5596    4.6203    6.5241 H         2 RES2    0.0000
     80 H24        1.8911   -4.3712   -1.9440 H         1 RES1    0.0000
     81 H25        6.9480    4.6348    5.0878 H         2 RES2    0.0000
     82 H26        6.9284    3.9430    0.7021 H         2 RES2    0.0000
     83 H27        4.2353   -2.9265   -1.9588 H         1 RES1    0.0000
     84 H28       -0.4047    1.9378    3.7141 H         2 RES2    0.0000
     85 H29        2.6452   -4.3812   -3.9819 H         1 RES1    0.0000
     86 H30        2.8582   -2.8264   -4.0042 H         1 RES1    0.0000
     87 H31        4.3579    8.8015    3.2488 H         2 RES2    0.0000
     88 H32        2.9153    8.6564    3.8451 H         2 RES2    0.0000
     89 H33        3.1201    8.7014    2.2931 H         2 RES2    0.0000
     90 H34        3.2382   -0.9793   -3.1017 H         1 RES1    0.0000
     91 H35        4.1850    6.6128    2.3792 H         2 RES2    0.0000
     92 H36        0.6696   -1.3675   -3.9412 H         1 RES1    0.0000
     93 H37        8.0776    4.7466    7.1647 H         2 RES2    0.0000
     94 H38        7.2510    3.4185    7.0700 H         2 RES2    0.0000
     95 H39        6.7006    4.6260    7.9058 H         2 RES2    0.0000
     96 H40        0.3626   -4.1416   -4.1215 H         1 RES1    0.0000
     97 H41        0.9792   -3.2548   -5.2583 H         1 RES1    0.0000
     98 H42       -1.7086   -1.2541   -4.0329 H         1 RES1    0.0000
     99 H43       -1.7372   -2.8151   -4.1778 H         1 RES1    0.0000
    100 H44       -1.1326   -1.9325   -5.3229 H         1 RES1    0.0000
    101 H45        2.3158    5.3074    2.8796 H         2 RES2    0.0000
    102 H46        1.8588    6.5681    2.0660 H         2 RES2    0.0000
    103 H47        1.6540    6.5211    3.6180 H         2 RES2    0.0000
    104 H48        3.4014   -2.7273    0.2168 H         1 RES1    0.0000
    105 H49        4.6949   -3.6140    0.2223 H         1 RES1    0.0000
    106 H50        3.2817   -4.2903    0.2836 H         1 RES1    0.0000
    107 H51        4.3701   -5.0163   -2.9969 H         1 RES1    0.0000
    108 H52        3.8747   -5.6823   -1.6679 H         1 RES1    0.0000
    109 H53        5.2887   -5.0060   -1.7264 H         1 RES1    0.0000
    110 H54        1.3144   -0.1972    7.5333 H         2 RES2    0.0000
@<TRIPOS>BOND
     1    1   19 1
     2    2   10 1
     3    3   28 2
     4    4    8 2
     5    5   10 2
     6    6   10 1
     7    7   15 ar
     8    8   17 1
     9    9   17 ar
    10   11   19 ar
    11   12   19 ar
    12   13    2 1
    13   14   16 2
    14   15   32 ar
    15   16   20 2
    16   17   32 ar
    17   18    7 ar
    18   21   25 1
    19   22   38 ar
    20   23   27 1
    21   24   13 ar
    22   25   11 1
    23   26    6 ar
    24   27   29 1
    25   28    1 1
    26   29   31 1
    27   30   13 ar
    28   31   41 1
    29   32   73 1
    30   33   37 ar
    31   34   24 ar
    32   35   26 ar
    33   36   30 ar
    34   37   16 1
    35   38   12 ar
    36   39   23 1
    37   40   25 1
    38   41   39 1
    39   42   34 ar
    40   43   40 1
    41   44    6 ar
    42   45   40 1
    43   46   49 1
    44   47   11 ar
    45   48    8 2
    46   49   27 1
    47   50   21 1
    48   51   41 1
    49   52   45 1
    50   53   50 1
    51   54   49 1
    52   55   43 1
    53   56   43 1
    54   57    9 1
    55   58   12 1
    56   59   15 1
    57   60   18 1
    58   61   21 1
    59   62   21 1
    60   63   22 1
    61   64   23 1
    62   65   24 1
    63   66   25 1
    64   67   26 1
    65   68   27 1
    66   69   29 1
    67   70   29 1
    68   71   31 1
    69   72   31 1
    70   74   33 1
    71   75   34 1
    72   76   36 1
    73   77   38 1
    74   78   39 1
    75   79   39 1
    76   80   40 1
    77   81   41 1
    78   82   42 1
    79   83   43 1
    80   84   44 1
    81   85   45 1
    82   86   45 1
    83   87   46 1
    84   88   46 1
    85   89   46 1
    86   90   47 1
    87   91   49 1
    88   92   50 1
    89   93   51 1
    90   94   51 1
    91   95   51 1
    92   96   52 1
    93   97   52 1
    94   98   53 1
    95   99   53 1
    96  100   53 1
    97  101   54 1
    98  102   54 1
    99  103   54 1
   100  104   55 1
   101  105   55 1
   102  106   55 1
   103  107   56 1
   104  108   56 1
   105  109   56 1
   106  110   35 1
   107    7   28 1
   108    9   18 ar
   109   22   47 ar
   110   23   30 1
   111   33   44 ar
   112   35   37 ar
   113   36   42 ar
   114   50   52 1
@<TRIPOS>SUBSTRUCTURE
     1 RES1 1
     2 RES2 2

@<TRIPOS>CRYSIN
   7.5290   20.4320   27.8630  90.0000  90.0000  90.0000  19 1

