# MOL2 file generated by ConQuest
# Please check atom types

@<TRIPOS>MOLECULE
XIWHUG
    76    76     1
SMALL
NO_CHARGES
****
Generated from CSD

@<TRIPOS>ATOM
      1 O1         6.1710   -0.3673    5.7268 O.2       1 RES1    0.0000
      2 N1         5.1394    0.2395    5.4047 N.pl3     1 RES1    0.0000
      3 N2         5.1394    5.8255    5.4047 N.3       1 RES1    0.0000
      4 C1         5.1394    1.6746    5.4047 C.ar      1 RES1    0.0000
      5 C2         4.0733    2.3592    4.8512 C.ar      1 RES1    0.0000
      6 C3         4.0720    3.7261    4.8404 C.ar      1 RES1    0.0000
      7 C4         5.1394    4.4777    5.4047 C.ar      1 RES1    0.0000
      8 C5         3.9848    6.6048    4.9615 C.3       1 RES1    0.0000
      9 C6         3.9952    6.9327    3.4633 C.3       1 RES1    0.0000
     10 C7         2.8510    7.8355    3.0698 C.3       1 RES1    0.0000
     11 C8         2.8874    8.2603    1.6084 C.3       1 RES1    0.0000
     12 C9         1.8351    9.2770    1.2258 C.3       1 RES1    0.0000
     13 C10        2.0268   10.6429    1.8506 C.3       1 RES1    0.0000
     14 C11        0.9950   11.6820    1.4506 C.3       1 RES1    0.0000
     15 C12        1.2983   13.0692    1.9435 C.3       1 RES1    0.0000
     16 C13        0.2947   14.1242    1.5392 C.3       1 RES1    0.0000
     17 C14        0.7248   15.5390    1.9046 C.3       1 RES1    0.0000
     18 H1         3.3494    1.8844    4.4837 H         1 RES1    0.0000
     19 H2         3.3480    4.1797    4.4470 H         1 RES1    0.0000
     20 H3         3.9573    7.4427    5.4674 H         1 RES1    0.0000
     21 H4         3.1685    6.1045    5.1690 H         1 RES1    0.0000
     22 H5         4.8433    7.3692    3.2363 H         1 RES1    0.0000
     23 H6         3.9393    6.0992    2.9509 H         1 RES1    0.0000
     24 H7         2.8714    8.6372    3.6319 H         1 RES1    0.0000
     25 H8         2.0063    7.3692    3.2428 H         1 RES1    0.0000
     26 H9         3.7708    8.6351    1.4139 H         1 RES1    0.0000
     27 H10        2.7718    7.4650    1.0485 H         1 RES1    0.0000
     28 H11        0.9560    8.9331    1.4895 H         1 RES1    0.0000
     29 H12        1.8355    9.3760    0.2508 H         1 RES1    0.0000
     30 H13        2.9155   10.9761    1.6063 H         1 RES1    0.0000
     31 H14        2.0074   10.5450    2.8256 H         1 RES1    0.0000
     32 H15        0.9321   11.7022    0.4713 H         1 RES1    0.0000
     33 H16        0.1202   11.4084    1.7965 H         1 RES1    0.0000
     34 H17        2.1801   13.3332    1.6063 H         1 RES1    0.0000
     35 H18        1.3501   13.0468    2.9207 H         1 RES1    0.0000
     36 H19       -0.5619   13.9304    1.9759 H         1 RES1    0.0000
     37 H20        0.1549   14.0741    0.5707 H         1 RES1    0.0000
     38 H21        0.0422   16.1672    1.6192 H         1 RES1    0.0000
     39 H22        1.5609   15.7466    1.4593 H         1 RES1    0.0000
     40 H23        0.8441   15.6029    2.8645 H         1 RES1    0.0000
     41 O1A        4.1078   -0.3673    5.0825 O.2       1 RES1    0.0000
     42 C5A        6.2940    6.6048    5.8478 C.3       1 RES1    0.0000
     43 C6A        6.2836    6.9327    7.3460 C.3       1 RES1    0.0000
     44 C7A        7.4278    7.8355    7.7395 C.3       1 RES1    0.0000
     45 C8A        7.3914    8.2603    9.2009 C.3       1 RES1    0.0000
     46 C9A        8.4437    9.2770    9.5835 C.3       1 RES1    0.0000
     47 C10A       8.2519   10.6429    8.9588 C.3       1 RES1    0.0000
     48 C11A       9.2838   11.6820    9.3587 C.3       1 RES1    0.0000
     49 C12A       8.9805   13.0692    8.8658 C.3       1 RES1    0.0000
     50 C13A       9.9841   14.1242    9.2701 C.3       1 RES1    0.0000
     51 C14A       9.5540   15.5390    8.9047 C.3       1 RES1    0.0000
     52 H21A      10.2366   16.1672    9.1901 H         1 RES1    0.0000
     53 H22A       8.7179   15.7466    9.3501 H         1 RES1    0.0000
     54 H23A       9.4347   15.6029    7.9449 H         1 RES1    0.0000
     55 H19A      10.8406   13.9304    8.8334 H         1 RES1    0.0000
     56 H20A      10.1239   14.0741   10.2386 H         1 RES1    0.0000
     57 H17A       8.0987   13.3332    9.2031 H         1 RES1    0.0000
     58 H18A       8.9286   13.0468    7.8886 H         1 RES1    0.0000
     59 H15A       9.3467   11.7022   10.3380 H         1 RES1    0.0000
     60 H16A      10.1585   11.4084    9.0128 H         1 RES1    0.0000
     61 H13A       7.3633   10.9761    9.2031 H         1 RES1    0.0000
     62 H14A       8.2714   10.5450    7.9838 H         1 RES1    0.0000
     63 H11A       9.3228    8.9331    9.3198 H         1 RES1    0.0000
     64 H12A       8.4432    9.3760   10.5585 H         1 RES1    0.0000
     65 H9A        6.5080    8.6351    9.3955 H         1 RES1    0.0000
     66 H10A       7.5070    7.4650    9.7608 H         1 RES1    0.0000
     67 H7A        7.4074    8.6372    7.1774 H         1 RES1    0.0000
     68 H8A        8.2725    7.3692    7.5665 H         1 RES1    0.0000
     69 H5A        5.4355    7.3692    7.5730 H         1 RES1    0.0000
     70 H6A        6.3394    6.0992    7.8584 H         1 RES1    0.0000
     71 H3A        6.3214    7.4427    5.3420 H         1 RES1    0.0000
     72 H4A        7.1103    6.1045    5.6403 H         1 RES1    0.0000
     73 C3A        6.2068    3.7261    5.9689 C.ar      1 RES1    0.0000
     74 C2A        6.2055    2.3592    5.9581 C.ar      1 RES1    0.0000
     75 H1A        6.9293    1.8844    6.3256 H         1 RES1    0.0000
     76 H2A        6.9307    4.1797    6.3624 H         1 RES1    0.0000
@<TRIPOS>BOND
     1    1    2 2
     2    2    4 1
     3    3    7 1
     4    4    5 ar
     5    5    6 ar
     6    6    7 ar
     7    7   73 ar
     8    8    3 1
     9    9    8 1
    10   10    9 1
    11   11   10 1
    12   12   11 1
    13   13   12 1
    14   14   13 1
    15   15   14 1
    16   16   15 1
    17   17   16 1
    18   18    5 1
    19   19    6 1
    20   20    8 1
    21   21    8 1
    22   22    9 1
    23   23    9 1
    24   24   10 1
    25   25   10 1
    26   26   11 1
    27   27   11 1
    28   28   12 1
    29   29   12 1
    30   30   13 1
    31   31   13 1
    32   32   14 1
    33   33   14 1
    34   34   15 1
    35   35   15 1
    36   36   16 1
    37   37   16 1
    38   38   17 1
    39   39   17 1
    40   40   17 1
    41   41    2 2
    42   42    3 1
    43   43   42 1
    44   44   43 1
    45   45   44 1
    46   46   45 1
    47   47   46 1
    48   48   47 1
    49   49   48 1
    50   50   49 1
    51   51   50 1
    52   52   51 1
    53   53   51 1
    54   54   51 1
    55   55   50 1
    56   56   50 1
    57   57   49 1
    58   58   49 1
    59   59   48 1
    60   60   48 1
    61   61   47 1
    62   62   47 1
    63   63   46 1
    64   64   46 1
    65   65   45 1
    66   66   45 1
    67   67   44 1
    68   68   44 1
    69   69   43 1
    70   70   43 1
    71   71   42 1
    72   72   42 1
    73   73   74 ar
    74   74    4 ar
    75   75   74 1
    76   76   73 1
@<TRIPOS>SUBSTRUCTURE
     1 RES1 1

