# MOL2 file generated by ConQuest
# Please check atom types

@<TRIPOS>MOLECULE
XIXBEM
    52    54     1
SMALL
NO_CHARGES
****
Generated from CSD

@<TRIPOS>ATOM
      1 O1         1.3798   10.8619    8.9371 O.2       1 RES1    0.0000
      2 O2         5.3153    9.7230   10.6688 O.3       1 RES1    0.0000
      3 O3         4.1209    7.9031   10.2919 O.2       1 RES1    0.0000
      4 O4         7.4582    7.3212    4.2630 O.2       1 RES1    0.0000
      5 O5         8.6077    9.0306    4.7654 O.2       1 RES1    0.0000
      6 N1         7.7617    8.2110    5.0116 N.pl3     1 RES1    0.0000
      7 C1         2.4698   11.6491   12.1761 C.3       1 RES1    0.0000
      8 H1         2.3334   12.6180   12.2366 H         1 RES1    0.0000
      9 C2         1.3559   11.0773   11.2910 C.3       1 RES1    0.0000
     10 H2         1.4497   10.1129   11.2546 H         1 RES1    0.0000
     11 H3         0.4986   11.2759   11.7004 H         1 RES1    0.0000
     12 C3         1.3611   11.6163    9.8937 C.2       1 RES1    0.0000
     13 C4         1.3169   13.1166    9.6973 C.3       1 RES1    0.0000
     14 H4         1.0838   13.5436   10.5484 H         1 RES1    0.0000
     15 C5         2.6835   13.6436    9.2306 C.3       1 RES1    0.0000
     16 H5         2.9828   13.0987    8.4861 H         1 RES1    0.0000
     17 H6         2.5661   14.5483    8.9008 H         1 RES1    0.0000
     18 C6         3.7898   13.6556   10.2943 C.3       1 RES1    0.0000
     19 H7         4.5195   14.2079    9.9717 H         1 RES1    0.0000
     20 H8         3.4405   14.0736   11.0971 H         1 RES1    0.0000
     21 C7         4.3384   12.3000   10.6583 C.2       1 RES1    0.0000
     22 H9         5.1347   12.0522   10.2476 H         1 RES1    0.0000
     23 C8         3.8085   11.4147   11.5043 C.2       1 RES1    0.0000
     24 C9         4.4766   10.0890   11.8044 C.3       1 RES1    0.0000
     25 H10        3.7934    9.4008   11.9467 H         1 RES1    0.0000
     26 C10        5.4009   10.1577   13.0223 C.3       1 RES1    0.0000
     27 H11        5.9654    9.3679   13.0301 H         1 RES1    0.0000
     28 H12        5.9785   10.9310   12.9334 H         1 RES1    0.0000
     29 C11        4.6615   10.2458   14.3547 C.3       1 RES1    0.0000
     30 H13        5.3148   10.3995   15.0549 H         1 RES1    0.0000
     31 H14        4.2458    9.3874   14.5296 H         1 RES1    0.0000
     32 C12        3.5881   11.3266   14.4578 C.3       1 RES1    0.0000
     33 H15        3.3052   11.3983   15.3823 H         1 RES1    0.0000
     34 H16        3.9781   12.1776   14.2038 H         1 RES1    0.0000
     35 C13        2.3678   11.0773   13.5959 C.3       1 RES1    0.0000
     36 H17        1.5942   11.4655   14.0324 H         1 RES1    0.0000
     37 H18        2.2217   10.1204   13.5351 H         1 RES1    0.0000
     38 C14        0.2492   13.4779    8.6451 C.3       1 RES1    0.0000
     39 H19       -0.6113   13.1778    8.9460 H         1 RES1    0.0000
     40 H20        0.4635   13.0539    7.8112 H         1 RES1    0.0000
     41 H21        0.2300   14.4304    8.5235 H         1 RES1    0.0000
     42 C15        4.9917    8.6543    9.9623 C.2       1 RES1    0.0000
     43 C16        5.7947    8.5215    8.7268 C.ar      1 RES1    0.0000
     44 C17        5.4245    7.5451    7.8207 C.ar      1 RES1    0.0000
     45 H22        4.7383    6.9554    8.0341 H         1 RES1    0.0000
     46 C18        6.0652    7.4361    6.5986 C.ar      1 RES1    0.0000
     47 H23        5.8136    6.7882    5.9811 H         1 RES1    0.0000
     48 C19        7.0830    8.3140    6.3295 C.ar      1 RES1    0.0000
     49 C20        7.4994    9.2694    7.2204 C.ar      1 RES1    0.0000
     50 H24        8.2098    9.8352    7.0162 H         1 RES1    0.0000
     51 C21        6.8351    9.3694    8.4274 C.ar      1 RES1    0.0000
     52 H25        7.0929   10.0174    9.0426 H         1 RES1    0.0000
@<TRIPOS>BOND
     1    1   12 2
     2    2   24 1
     3    3   42 2
     4    4    6 2
     5    5    6 2
     6    6   48 1
     7    7    8 1
     8    9    7 1
     9   10    9 1
    10   11    9 1
    11   12    9 1
    12   13   12 1
    13   14   13 1
    14   15   13 1
    15   16   15 1
    16   17   15 1
    17   18   15 1
    18   19   18 1
    19   20   18 1
    20   21   18 1
    21   22   21 1
    22   23    7 1
    23   24   23 1
    24   25   24 1
    25   26   24 1
    26   27   26 1
    27   28   26 1
    28   29   26 1
    29   30   29 1
    30   31   29 1
    31   32   29 1
    32   33   32 1
    33   34   32 1
    34   35    7 1
    35   36   35 1
    36   37   35 1
    37   38   13 1
    38   39   38 1
    39   40   38 1
    40   41   38 1
    41   42    2 1
    42   43   42 1
    43   44   43 ar
    44   45   44 1
    45   46   44 ar
    46   47   46 1
    47   48   46 ar
    48   49   48 ar
    49   50   49 1
    50   51   43 ar
    51   52   51 1
    52   21   23 2
    53   32   35 1
    54   49   51 ar
@<TRIPOS>SUBSTRUCTURE
     1 RES1 1

@<TRIPOS>CRYSIN
   8.6159   14.9290   15.6520  90.0000  95.1810  90.0000  14 1

