# MOL2 file generated by ConQuest
# Please check atom types

@<TRIPOS>MOLECULE
XIXJAP
    22    23     1
SMALL
NO_CHARGES
****
Generated from CSD

@<TRIPOS>ATOM
      1 O1         4.0289   14.5003    4.7079 O.2       1 RES1    0.0000
      2 O2         5.4825   13.2253    5.6640 O.2       1 RES1    0.0000
      3 O3        -2.1384   11.6774   -0.9587 O.2       1 RES1    0.0000
      4 O4        -3.0485   13.2881    2.5114 O.2       1 RES1    0.0000
      5 N1         4.4693   13.4009    4.9998 N.pl3     1 RES1    0.0000
      6 N2         0.7870   11.4480    2.4617 N.pl3     1 RES1    0.0000
      7 C1         2.6437   12.4052    3.7084 C.ar      1 RES1    0.0000
      8 C2         3.7287   12.2156    4.5396 C.ar      1 RES1    0.0000
      9 C3         4.1402   10.9624    4.9463 C.ar      1 RES1    0.0000
     10 C4         3.4334    9.8642    4.5103 C.ar      1 RES1    0.0000
     11 C5         2.3265   10.0231    3.6906 C.ar      1 RES1    0.0000
     12 C6         1.9432   11.2930    3.3030 C.ar      1 RES1    0.0000
     13 C7         0.6851   10.9701    1.1677 C.2       1 RES1    0.0000
     14 C8        -0.6044   11.2315    0.7394 C.2       1 RES1    0.0000
     15 C9        -1.2862   11.9029    1.8153 C.2       1 RES1    0.0000
     16 C10       -0.4056   12.0336    2.8594 C.2       1 RES1    0.0000
     17 C11        1.8889   10.4370    0.4704 C.3       1 RES1    0.0000
     18 C12       -0.5748   12.6026    4.2222 C.3       1 RES1    0.0000
     19 C13       -1.1419   11.0662   -0.6145 C.2       1 RES1    0.0000
     20 C14       -0.4882   10.1513   -1.5986 C.3       1 RES1    0.0000
     21 C15       -2.7151   12.2681    1.9415 C.2       1 RES1    0.0000
     22 C16       -3.7621   11.3007    1.4762 C.3       1 RES1    0.0000
@<TRIPOS>BOND
     1    1    5 2
     2    2    5 2
     3    3   19 2
     4    4   21 2
     5    5    8 1
     6    6   12 1
     7    7    8 ar
     8    8    9 ar
     9    9   10 ar
    10   10   11 ar
    11   11   12 ar
    12   12    7 ar
    13   13    6 1
    14   14   13 2
    15   15   14 1
    16   16    6 1
    17   17   13 1
    18   18   16 1
    19   19   14 1
    20   20   19 1
    21   21   15 1
    22   22   21 1
    23   15   16 2
@<TRIPOS>SUBSTRUCTURE
     1 RES1 1

@<TRIPOS>CRYSIN
   9.3750   12.8140   12.9850  90.0000 100.9600  90.0000  14 1

