# MOL2 file generated by ConQuest
# Please check atom types

@<TRIPOS>MOLECULE
XIXKUK
    37    38     1
SMALL
NO_CHARGES
****
Generated from CSD

@<TRIPOS>ATOM
      1 C1         3.4686    0.9595    9.4996 C.ar      1 RES1    0.0000
      2 C2         2.9399    2.0659   10.2208 C.ar      1 RES1    0.0000
      3 C3         2.1927    1.9116   11.3725 C.ar      1 RES1    0.0000
      4 C4         1.9906    0.6517   11.8827 C.ar      1 RES1    0.0000
      5 C5         2.5479   -0.4571   11.2702 C.ar      1 RES1    0.0000
      6 C6         3.2731   -0.3026   10.1239 C.ar      1 RES1    0.0000
      7 N1         3.3555    3.4504    9.9737 N.pl3     1 RES1    0.0000
      8 N2         1.2049    0.4944   13.0908 N.pl3     1 RES1    0.0000
      9 O1         4.4099    3.6693    9.3984 O.2       1 RES1    0.0000
     10 O2         2.6470    4.3482   10.4307 O.2       1 RES1    0.0000
     11 O3         1.0701   -0.6377   13.5521 O.2       1 RES1    0.0000
     12 O4         0.7100    1.4936   13.6054 O.2       1 RES1    0.0000
     13 N3         4.1156    1.0412    8.3000 N.3       1 RES1    0.0000
     14 C7         3.6541    1.9679    7.2347 C.3       1 RES1    0.0000
     15 C8         4.8497    2.5551    6.4879 C.3       1 RES1    0.0000
     16 C9         5.8221    1.4837    6.0298 C.3       1 RES1    0.0000
     17 C10        6.2749    0.6565    7.2208 C.3       1 RES1    0.0000
     18 C11        5.0977   -0.0076    7.9389 C.3       1 RES1    0.0000
     19 C12        2.6304    1.3000    6.3174 C.3       1 RES1    0.0000
     20 C13        4.5479   -1.1960    7.1548 C.3       1 RES1    0.0000
     21 H1         1.8435    2.6684   11.8039 H         1 RES1    0.0000
     22 H2         3.5899   -1.0777    9.6945 H         1 RES1    0.0000
     23 H3         2.4353   -1.2772   11.6015 H         1 RES1    0.0000
     24 H4         3.1926    2.7250    7.6704 H         1 RES1    0.0000
     25 H5         4.5325    3.0884    5.7741 H         1 RES1    0.0000
     26 H6         5.3148    3.1478    7.1058 H         1 RES1    0.0000
     27 H7         5.2944    0.8047    5.3160 H         1 RES1    0.0000
     28 H8         6.5966    1.9596    5.6782 H         1 RES1    0.0000
     29 H9         6.8663   -0.0854    6.9993 H         1 RES1    0.0000
     30 H10        6.7761    1.2909    7.9261 H         1 RES1    0.0000
     31 H11        4.9359   -0.3126    8.7997 H         1 RES1    0.0000
     32 H12        3.0204    0.6193    5.7208 H         1 RES1    0.0000
     33 H13        1.9070    0.9094    6.8821 H         1 RES1    0.0000
     34 H14        2.2580    2.0402    5.7315 H         1 RES1    0.0000
     35 H15        4.4416   -0.9908    6.2216 H         1 RES1    0.0000
     36 H16        3.6228   -1.5046    7.4787 H         1 RES1    0.0000
     37 H17        5.0988   -1.9369    7.1910 H         1 RES1    0.0000
@<TRIPOS>BOND
     1    1    2 ar
     2    2    3 ar
     3    3    4 ar
     4    4    5 ar
     5    5    6 ar
     6    6    1 ar
     7    7    2 1
     8    8    4 1
     9    9    7 2
    10   10    7 2
    11   11    8 2
    12   12    8 2
    13   13    1 1
    14   14   13 1
    15   15   14 1
    16   16   15 1
    17   17   16 1
    18   18   13 1
    19   19   14 1
    20   20   18 1
    21   21    3 1
    22   22    6 1
    23   23    5 1
    24   24   14 1
    25   25   15 1
    26   26   15 1
    27   27   16 1
    28   28   16 1
    29   29   17 1
    30   30   17 1
    31   31   18 1
    32   32   19 1
    33   33   19 1
    34   34   19 1
    35   35   20 1
    36   36   20 1
    37   37   20 1
    38   17   18 1
@<TRIPOS>SUBSTRUCTURE
     1 RES1 1

@<TRIPOS>CRYSIN
   8.1650    7.8650   11.1480  95.2300 106.0000  92.6300   2 1

