# MOL2 file generated by ConQuest
# Please check atom types

@<TRIPOS>MOLECULE
XIXQOL
    12    11     1
SMALL
NO_CHARGES
****
Generated from CSD

@<TRIPOS>ATOM
      1 C1        12.0015    0.0000    1.5753 C.2       1 RES1    0.0000
      2 O1         9.9621    1.6318    0.7685 O.2       1 RES1    0.0000
      3 O2         8.9294    1.2426    2.6390 O.2       1 RES1    0.0000
      4 O3        12.0015    0.0000    0.3681 O.2       1 RES1    0.0000
      5 N1         9.8770    1.1443    1.8769 N.pl3     1 RES1    0.0000
      6 N2        10.9418    0.3982    2.3784 N.am      1 RES1    0.0000
      7 H1        10.9418    0.1729    3.2289 H         1 RES1    0.0000
      8 O1A       14.0409   -1.6318    0.7685 O.2       1 RES1    0.0000
      9 O2A       15.0736   -1.2426    2.6390 O.2       1 RES1    0.0000
     10 N1A       14.1260   -1.1443    1.8769 N.pl3     1 RES1    0.0000
     11 N2A       13.0612   -0.3982    2.3784 N.am      1 RES1    0.0000
     12 H1A       13.0612   -0.1729    3.2289 H         1 RES1    0.0000
@<TRIPOS>BOND
     1    1    4 2
     2    2    5 2
     3    3    5 2
     4    5    6 1
     5    6    1 1
     6    7    6 1
     7    8   10 2
     8    9   10 2
     9   10   11 1
    10   11    1 1
    11   12   11 1
@<TRIPOS>SUBSTRUCTURE
     1 RES1 1

@<TRIPOS>CRYSIN
  12.0015   17.6425    4.5555  90.0000  90.0000  90.0000  43 1

