# MOL2 file generated by ConQuest
# Please check atom types

@<TRIPOS>MOLECULE
XIYBEM
    90    92     2
SMALL
NO_CHARGES
****
Generated from CSD

@<TRIPOS>ATOM
      1 O1        -4.1349    0.9369   -3.2700 O.2       1 RES1    0.0000
      2 O2         0.5618    2.0968   -3.8162 O.2       1 RES1    0.0000
      3 O3         1.0420    4.1052   -3.2791 O.2       1 RES1    0.0000
      4 O4        -9.4384    3.3453   -0.9552 O.3       1 RES1    0.0000
      5 N1         0.2883    3.2884   -3.7413 N.pl3     1 RES1    0.0000
      6 C1        -4.4794    2.1088   -3.2948 C.2       1 RES1    0.0000
      7 C2        -3.5618    3.1444   -3.9222 C.3       1 RES1    0.0000
      8 H1        -3.8548    4.0352   -3.6759 H         1 RES1    0.0000
      9 H2        -3.5956    3.0708   -4.8884 H         1 RES1    0.0000
     10 C3        -2.1198    2.9166   -3.4332 C.3       1 RES1    0.0000
     11 H3        -1.9206    1.9695   -3.5854 H         1 RES1    0.0000
     12 C4        -1.0892    3.7261   -4.2719 C.3       1 RES1    0.0000
     13 C5        -1.9997    3.1479   -1.9315 C.ar      1 RES1    0.0000
     14 C6        -1.3045    2.2212   -1.1638 C.ar      1 RES1    0.0000
     15 H4        -0.9246    1.4822   -1.5820 H         1 RES1    0.0000
     16 C7        -1.1598    2.3689    0.2098 C.ar      1 RES1    0.0000
     17 H5        -0.6870    1.7375    0.7025 H         1 RES1    0.0000
     18 C8        -1.7250    3.4618    0.8364 C.ar      1 RES1    0.0000
     19 H6        -1.6254    3.5778    1.7533 H         1 RES1    0.0000
     20 C9        -2.4320    4.3748    0.0989 C.ar      1 RES1    0.0000
     21 H7        -2.8244    5.1019    0.5273 H         1 RES1    0.0000
     22 C10       -2.5748    4.2367   -1.2692 C.ar      1 RES1    0.0000
     23 H8        -3.0550    4.8711   -1.7513 H         1 RES1    0.0000
     24 C11       -5.7883    2.5154   -2.7229 C.ar      1 RES1    0.0000
     25 C12       -6.3926    3.7393   -2.9630 C.ar      1 RES1    0.0000
     26 H9        -5.9566    4.3659   -3.4950 H         1 RES1    0.0000
     27 C13       -7.6352    4.0496   -2.4257 C.ar      1 RES1    0.0000
     28 H10       -8.0465    4.8573   -2.6328 H         1 RES1    0.0000
     29 C14       -8.2546    3.1473   -1.5806 C.ar      1 RES1    0.0000
     30 C15       -7.6574    1.9133   -1.3277 C.ar      1 RES1    0.0000
     31 H11       -8.0787    1.3004   -0.7698 H         1 RES1    0.0000
     32 C16       -6.4559    1.6000   -1.8961 C.ar      1 RES1    0.0000
     33 H12       -6.0740    0.7677   -1.7321 H         1 RES1    0.0000
     34 C17       -1.1964    5.2268   -4.1459 C.3       1 RES1    0.0000
     35 H13       -0.5360    5.6430   -4.7055 H         1 RES1    0.0000
     36 H14       -1.0494    5.4821   -3.2313 H         1 RES1    0.0000
     37 H15       -2.0716    5.5096   -4.4207 H         1 RES1    0.0000
     38 C18       -1.0980    3.2861   -5.7321 C.3       1 RES1    0.0000
     39 H16       -1.9119    3.5784   -6.1489 H         1 RES1    0.0000
     40 H17       -1.0402    2.3288   -5.7775 H         1 RES1    0.0000
     41 H18       -0.3479    3.6735   -6.1874 H         1 RES1    0.0000
     42 C19      -10.1131    4.5847   -1.1434 C.3       1 RES1    0.0000
     43 H19       -9.5210    5.3076   -0.9257 H         1 RES1    0.0000
     44 H20      -10.8840    4.6194   -0.5716 H         1 RES1    0.0000
     45 H21      -10.3899    4.6630   -2.0593 H         1 RES1    0.0000
     46 O5        -7.3126   -0.5106   -5.8008 O.2       2 RES2    0.0000
     47 O6       -12.2611    0.3288   -5.8289 O.2       2 RES2    0.0000
     48 O7       -12.6587    2.3127   -6.5519 O.2       2 RES2    0.0000
     49 O8        -2.2842    1.8660   -8.6133 O.3       2 RES2    0.0000
     50 N2       -11.9830    1.5067   -5.9396 N.pl3     2 RES2    0.0000
     51 C20       -7.1033    0.6852   -5.9819 C.2       2 RES2    0.0000
     52 C21       -8.1503    1.6915   -5.5672 C.3       2 RES2    0.0000
     53 H22       -7.9038    2.5680   -5.9026 H         2 RES2    0.0000
     54 H23       -8.1857    1.7393   -4.5978 H         2 RES2    0.0000
     55 C22       -9.5406    1.3094   -6.1103 C.3       2 RES2    0.0000
     56 H24       -9.6359    0.3438   -5.9719 H         2 RES2    0.0000
     57 C23      -10.6728    1.9856   -5.2825 C.3       2 RES2    0.0000
     58 C24       -9.6514    1.5426   -7.6106 C.ar      2 RES2    0.0000
     59 C25       -9.2050    2.6995   -8.2384 C.ar      2 RES2    0.0000
     60 H25       -8.8050    3.3728   -7.7367 H         2 RES2    0.0000
     61 C26       -9.3527    2.8562   -9.6076 C.ar      2 RES2    0.0000
     62 H26       -9.0459    3.6340  -10.0154 H         2 RES2    0.0000
     63 C27       -9.9497    1.8720  -10.3770 C.ar      2 RES2    0.0000
     64 H27      -10.0475    1.9874  -11.2952 H         2 RES2    0.0000
     65 C28      -10.3976    0.7205   -9.7681 C.ar      2 RES2    0.0000
     66 H28      -10.8030    0.0538  -10.2752 H         2 RES2    0.0000
     67 C29      -10.2442    0.5549   -8.3988 C.ar      2 RES2    0.0000
     68 H29      -10.5424   -0.2296   -7.9984 H         2 RES2    0.0000
     69 C30       -5.8203    1.1151   -6.5924 C.ar      2 RES2    0.0000
     70 C31       -4.7584    0.2123   -6.6137 C.ar      2 RES2    0.0000
     71 H30       -4.8429   -0.6021   -6.1720 H         2 RES2    0.0000
     72 C32       -3.5939    0.4998   -7.2708 C.ar      2 RES2    0.0000
     73 H31       -2.8920   -0.1100   -7.2556 H         2 RES2    0.0000
     74 C33       -3.4531    1.6992   -7.9623 C.ar      2 RES2    0.0000
     75 C34       -4.4863    2.6242   -7.9274 C.ar      2 RES2    0.0000
     76 H32       -4.4020    3.4355   -8.3737 H         2 RES2    0.0000
     77 C35       -5.6491    2.3324   -7.2203 C.ar      2 RES2    0.0000
     78 H33       -6.3242    2.9704   -7.1690 H         2 RES2    0.0000
     79 C36      -10.7214    1.4511   -3.8628 C.3       2 RES2    0.0000
     80 H34       -9.9766    1.7955   -3.3660 H         2 RES2    0.0000
     81 H35      -10.6794    0.4921   -3.8799 H         2 RES2    0.0000
     82 H36      -11.5396    1.7273   -3.4450 H         2 RES2    0.0000
     83 C37      -10.6310    3.4947   -5.3085 C.3       2 RES2    0.0000
     84 H37      -11.3664    3.8445   -4.7979 H         2 RES2    0.0000
     85 H38      -10.6967    3.8014   -6.2163 H         2 RES2    0.0000
     86 H39       -9.8039    3.7985   -4.9269 H         2 RES2    0.0000
     87 C38       -2.0961    3.0451   -9.3782 C.3       2 RES2    0.0000
     88 H40       -2.8122    3.1348  -10.0115 H         2 RES2    0.0000
     89 H41       -1.2605    2.9925   -9.8479 H         2 RES2    0.0000
     90 H42       -2.0879    3.8074   -8.7952 H         2 RES2    0.0000
@<TRIPOS>BOND
     1    1    6 2
     2    2    5 2
     3    3    5 2
     4    4   29 1
     5    5   12 1
     6    6    7 1
     7    7    8 1
     8    9    7 1
     9   10    7 1
    10   11   10 1
    11   12   10 1
    12   13   10 1
    13   14   13 ar
    14   15   14 1
    15   16   14 ar
    16   17   16 1
    17   18   16 ar
    18   19   18 1
    19   20   18 ar
    20   21   20 1
    21   22   13 ar
    22   23   22 1
    23   24    6 1
    24   25   24 ar
    25   26   25 1
    26   27   25 ar
    27   28   27 1
    28   29   27 ar
    29   30   29 ar
    30   31   30 1
    31   32   24 ar
    32   33   32 1
    33   34   12 1
    34   35   34 1
    35   36   34 1
    36   37   34 1
    37   38   12 1
    38   39   38 1
    39   40   38 1
    40   41   38 1
    41   42    4 1
    42   43   42 1
    43   44   42 1
    44   45   42 1
    45   46   51 2
    46   47   50 2
    47   48   50 2
    48   49   74 1
    49   50   57 1
    50   51   52 1
    51   52   53 1
    52   54   52 1
    53   55   52 1
    54   56   55 1
    55   57   55 1
    56   58   55 1
    57   59   58 ar
    58   60   59 1
    59   61   59 ar
    60   62   61 1
    61   63   61 ar
    62   64   63 1
    63   65   63 ar
    64   66   65 1
    65   67   58 ar
    66   68   67 1
    67   69   51 1
    68   70   69 ar
    69   71   70 1
    70   72   70 ar
    71   73   72 1
    72   74   72 ar
    73   75   74 ar
    74   76   75 1
    75   77   69 ar
    76   78   77 1
    77   79   57 1
    78   80   79 1
    79   81   79 1
    80   82   79 1
    81   83   57 1
    82   84   83 1
    83   85   83 1
    84   86   83 1
    85   87   49 1
    86   88   87 1
    87   89   87 1
    88   90   87 1
    89   20   22 ar
    90   30   32 ar
    91   65   67 ar
    92   75   77 ar
@<TRIPOS>SUBSTRUCTURE
     1 RES1 1
     2 RES2 46

@<TRIPOS>CRYSIN
  14.6980    5.9790   20.1400  90.0000 107.1400  90.0000   4 1

