# MOL2 file generated by ConQuest
# Please check atom types

@<TRIPOS>MOLECULE
XIYWIL
   176   179     2
SMALL
NO_CHARGES
****
Generated from CSD

@<TRIPOS>ATOM
      1 C1        10.9711    6.3344   10.0537 C.3       1 RES1    0.0000
      2 H1        10.7145    5.9429   10.9158 H         1 RES1    0.0000
      3 C2        10.9184    7.8499   10.2490 C.3       1 RES1    0.0000
      4 H2        11.2907    8.2750    9.4614 H         1 RES1    0.0000
      5 H3         9.9877    8.1191   10.3126 H         1 RES1    0.0000
      6 C3        11.6575    8.3699   11.4774 C.3       1 RES1    0.0000
      7 H4        11.1872    8.0824   12.2737 H         1 RES1    0.0000
      8 H5        12.5454    7.9799   11.4994 H         1 RES1    0.0000
      9 C4        11.7843    9.8823   11.4994 C.3       1 RES1    0.0000
     10 H6        12.4326   10.1591   10.8456 H         1 RES1    0.0000
     11 H7        12.0666   10.1668   12.3703 H         1 RES1    0.0000
     12 H8        10.9348   10.2769   11.2932 H         1 RES1    0.0000
     13 C5        12.3787    5.8022    9.7554 C.ar      1 RES1    0.0000
     14 C6        12.6555    4.4610   10.0076 C.ar      1 RES1    0.0000
     15 C7        13.9196    3.9502    9.7751 C.ar      1 RES1    0.0000
     16 H9        14.0884    3.0479    9.9265 H         1 RES1    0.0000
     17 C8        14.9239    4.7653    9.3232 C.ar      1 RES1    0.0000
     18 C9        14.7187    6.1325    9.0687 C.ar      1 RES1    0.0000
     19 C10       13.4083    6.5928    9.3079 C.ar      1 RES1    0.0000
     20 H10       13.2297    7.4920    9.1521 H         1 RES1    0.0000
     21 C11       15.8620    7.0394    8.5817 C.3       1 RES1    0.0000
     22 H11       16.6626    6.7549    9.0687 H         1 RES1    0.0000
     23 C12       15.6971    8.5304    8.8647 C.3       1 RES1    0.0000
     24 H12       16.3744    9.0091    8.3624 H         1 RES1    0.0000
     25 H13       14.8341    8.8088    8.5225 H         1 RES1    0.0000
     26 C13       15.7887    8.9525   10.2511 C.3       1 RES1    0.0000
     27 H14       16.5407    8.5121   10.6767 H         1 RES1    0.0000
     28 H15       14.9806    8.6941   10.7228 H         1 RES1    0.0000
     29 C14       15.9735   10.5170   10.3323 C.3       1 RES1    0.0000
     30 H16       16.6740   10.7877    9.7356 H         1 RES1    0.0000
     31 H17       16.2031   10.7647   11.2317 H         1 RES1    0.0000
     32 H18       15.1524   10.9483   10.0822 H         1 RES1    0.0000
     33 C15       16.1574    6.8130    7.1164 C.ar      1 RES1    0.0000
     34 C16       17.4624    6.8926    6.6228 C.ar      1 RES1    0.0000
     35 C17       17.7523    6.6876    5.2824 C.ar      1 RES1    0.0000
     36 H19       18.6315    6.7243    4.9775 H         1 RES1    0.0000
     37 C18       16.7354    6.4322    4.4269 C.ar      1 RES1    0.0000
     38 C19       15.4433    6.3022    4.7932 C.ar      1 RES1    0.0000
     39 C20       15.1742    6.5316    6.1533 C.ar      1 RES1    0.0000
     40 H20       14.2865    6.4949    6.4341 H         1 RES1    0.0000
     41 C21       14.3520    5.8572    3.8280 C.3       1 RES1    0.0000
     42 H21       14.8049    5.3724    3.1063 H         1 RES1    0.0000
     43 C22       13.6692    7.0929    3.1655 C.3       1 RES1    0.0000
     44 H22       13.0745    7.5073    3.8105 H         1 RES1    0.0000
     45 H23       14.3512    7.7428    2.9352 H         1 RES1    0.0000
     46 C23       12.8623    6.7457    1.8954 C.3       1 RES1    0.0000
     47 H24       13.4655    6.2885    1.2899 Du        2 SUP2    0.0000
     48 H25       12.1852    6.1019    2.1542 H         1 RES1    0.0000
     49 C24       12.2674    7.6618    1.2285 Du        2 SUP2    0.0000
     50 H26       12.9246    8.2628    0.8555 Du        2 SUP2    0.0000
     51 H27       11.6742    8.1481    1.7923 Du        2 SUP2    0.0000
     52 H28       11.7712    7.2611    0.5046 Du        2 SUP2    0.0000
     53 C25       13.6408    6.6677    0.7283 C.3       1 RES1    0.0000
     54 H29       13.2099    7.1617    0.0241 H         1 RES1    0.0000
     55 H30       13.7400    5.7548    0.4651 H         1 RES1    0.0000
     56 H31       14.5079    7.0516    0.8972 H         1 RES1    0.0000
     57 C26       13.4114    4.8800    4.4642 C.ar      1 RES1    0.0000
     58 C27       13.7717    3.6199    4.8634 C.ar      1 RES1    0.0000
     59 C28       12.8988    2.6855    5.3899 C.ar      1 RES1    0.0000
     60 H32       13.1890    1.8306    5.6115 H         1 RES1    0.0000
     61 C29       11.6057    3.0540    5.5698 C.ar      1 RES1    0.0000
     62 C30       11.1203    4.3203    5.2188 C.ar      1 RES1    0.0000
     63 C31       12.0655    5.2011    4.6879 C.ar      1 RES1    0.0000
     64 H33       11.7835    6.0591    4.4686 H         1 RES1    0.0000
     65 C32        9.6710    4.7301    5.3636 C.3       1 RES1    0.0000
     66 H34        9.1580    3.9135    5.1903 H         1 RES1    0.0000
     67 C33        9.1499    5.7471    4.3457 C.3       1 RES1    0.0000
     68 H35        9.7023    6.5439    4.3764 H         1 RES1    0.0000
     69 H36        8.2430    6.0010    4.5782 H         1 RES1    0.0000
     70 C34        9.1669    5.1675    2.9066 C.3       1 RES1    0.0000
     71 H37       10.0891    5.0605    2.6215 H         1 RES1    0.0000
     72 H38        8.7598    4.2866    2.9176 H         1 RES1    0.0000
     73 C35        8.4488    6.0209    1.9173 C.3       1 RES1    0.0000
     74 H39        7.5079    5.9994    2.0994 H         1 RES1    0.0000
     75 H40        8.6104    5.6875    1.0310 H         1 RES1    0.0000
     76 H41        8.7668    6.9231    1.9831 H         1 RES1    0.0000
     77 C36        9.3041    5.1262    6.7851 C.ar      1 RES1    0.0000
     78 C37        8.0392    4.9381    7.2480 C.ar      1 RES1    0.0000
     79 C38        7.6589    5.1828    8.5861 C.ar      1 RES1    0.0000
     80 H42        6.7772    5.0803    8.8691 H         1 RES1    0.0000
     81 C39        8.6621    5.5850    9.4658 C.ar      1 RES1    0.0000
     82 C40        9.9201    5.8618    9.0490 C.ar      1 RES1    0.0000
     83 C41       10.2300    5.6324    7.7240 C.ar      1 RES1    0.0000
     84 H43       11.0930    5.8205    7.4366 H         1 RES1    0.0000
     85 C42       10.9651    2.7986    9.6567 C.ar      1 RES1    0.0000
     86 C43        9.9718    1.9728   10.1393 C.ar      1 RES1    0.0000
     87 C44        9.2686    1.1776    9.2662 C.ar      1 RES1    0.0000
     88 H44        8.6204    0.5949    9.5930 H         1 RES1    0.0000
     89 C45        9.5132    1.2387    7.9214 C.ar      1 RES1    0.0000
     90 C46       10.5148    2.0294    7.4257 C.ar      1 RES1    0.0000
     91 C47       11.2513    2.8078    8.3141 C.ar      1 RES1    0.0000
     92 H45       11.9441    3.3400    7.9938 H         1 RES1    0.0000
     93 C48       16.5222    3.6520    7.9785 C.ar      1 RES1    0.0000
     94 C49       17.7820    3.1167    7.7832 C.ar      1 RES1    0.0000
     95 C50       18.1067    2.5708    6.5745 C.ar      1 RES1    0.0000
     96 H46       18.9373    2.1655    6.4736 H         1 RES1    0.0000
     97 C51       17.2601    2.5998    5.5237 C.ar      1 RES1    0.0000
     98 C52       15.9721    3.1473    5.7014 C.ar      1 RES1    0.0000
     99 C53       15.6057    3.6168    6.9540 C.ar      1 RES1    0.0000
    100 H47       14.7350    3.9104    7.1010 H         1 RES1    0.0000
    101 C54       19.6662    6.6616    7.5551 C.2       1 RES1    0.0000
    102 C55       20.6973    7.4966    8.2329 C.ar      1 RES1    0.0000
    103 C56       20.3415    8.5993    8.9942 C.ar      1 RES1    0.0000
    104 H48       19.4480    8.8179    9.1280 H         1 RES1    0.0000
    105 C57       21.3730    9.3838    9.5645 C.ar      1 RES1    0.0000
    106 H49       21.1670   10.1010   10.1173 H         1 RES1    0.0000
    107 C58       22.6702    9.0764    9.2947 C.ar      1 RES1    0.0000
    108 H50       23.3395    9.6224    9.6391 H         1 RES1    0.0000
    109 C59       23.0170    8.0411    8.5642 C.ar      1 RES1    0.0000
    110 H51       23.9154    7.8698    8.4062 H         1 RES1    0.0000
    111 C60       22.0150    7.1709    8.0070 C.ar      1 RES1    0.0000
    112 H52       22.2481    6.4185    7.5134 H         1 RES1    0.0000
    113 C61       17.0873    7.2841    2.2376 C.2       1 RES1    0.0000
    114 C62       17.6558    7.0011    0.9235 C.ar      1 RES1    0.0000
    115 C63       17.3056    7.8117   -0.1250 C.ar      1 RES1    0.0000
    116 H53       16.6829    8.4922   -0.0066 H         1 RES1    0.0000
    117 C64       17.8932    7.6052   -1.3601 C.ar      1 RES1    0.0000
    118 H54       17.6474    8.1466   -2.0752 H         1 RES1    0.0000
    119 C65       18.7989    6.6540   -1.5509 C.ar      1 RES1    0.0000
    120 H55       19.1822    6.5454   -2.3911 H         1 RES1    0.0000
    121 C66       19.1695    5.8480   -0.5418 C.ar      1 RES1    0.0000
    122 H56       19.8218    5.1981   -0.6779 H         1 RES1    0.0000
    123 C67       18.5686    5.9933    0.7086 C.ar      1 RES1    0.0000
    124 H57       18.7837    5.4076    1.3996 H         1 RES1    0.0000
    125 C68        6.3247    3.4165    6.4253 C.2       1 RES1    0.0000
    126 C69        5.4377    3.2436    5.2320 C.ar      1 RES1    0.0000
    127 C70        5.5116    3.9410    4.1220 C.ar      1 RES1    0.0000
    128 H58        6.1126    4.6475    4.0627 H         1 RES1    0.0000
    129 C71        4.6981    3.6382    3.0339 C.ar      1 RES1    0.0000
    130 H59        4.7541    4.1368    2.2507 H         1 RES1    0.0000
    131 C72        3.8067    2.5860    3.1304 C.ar      1 RES1    0.0000
    132 H60        3.2293    2.4010    2.4262 H         1 RES1    0.0000
    133 C73        3.7795    1.8566    4.2097 C.ar      1 RES1    0.0000
    134 H61        3.1912    1.1363    4.2711 H         1 RES1    0.0000
    135 C74        4.6005    2.1456    5.2342 C.ar      1 RES1    0.0000
    136 H62        4.6033    1.5828    5.9756 H         1 RES1    0.0000
    137 C75        7.7625    4.7622   11.5323 C.2       1 RES1    0.0000
    138 C76        7.6409    5.1063   12.9801 C.ar      1 RES1    0.0000
    139 C77        7.1105    4.1490   13.7918 C.ar      1 RES1    0.0000
    140 H63        6.8743    3.3216   13.4386 H         1 RES1    0.0000
    141 C78        6.9175    4.4029   15.1650 C.ar      1 RES1    0.0000
    142 H64        6.5209    3.7728   15.7244 H         1 RES1    0.0000
    143 C79        7.3391    5.6294   15.6433 C.ar      1 RES1    0.0000
    144 H65        7.2465    5.8068   16.5514 H         1 RES1    0.0000
    145 C80        7.8613    6.5485   14.8820 C.ar      1 RES1    0.0000
    146 H66        8.1216    7.3636   15.2440 H         1 RES1    0.0000
    147 C81        8.0270    6.3022   13.5110 C.ar      1 RES1    0.0000
    148 H67        8.4021    6.9553   12.9648 H         1 RES1    0.0000
    149 N1        17.6576    2.0080    4.2404 N.pl3     1 RES1    0.0000
    150 N2        18.8372    3.1641    8.8340 N.pl3     1 RES1    0.0000
    151 N3         9.6055    1.9055   11.5586 N.pl3     1 RES1    0.0000
    152 N4         8.7313    0.4206    7.0440 N.pl3     1 RES1    0.0000
    153 O1        11.6697    3.6153   10.5254 O.3       1 RES1    0.0000
    154 O2        16.2159    4.2499    9.1850 O.3       1 RES1    0.0000
    155 O3        18.4479    7.2902    7.5551 O.3       1 RES1    0.0000
    156 O4        17.1363    6.1952    3.0865 O.3       1 RES1    0.0000
    157 O5        15.1139    3.1993    4.6221 O.3       1 RES1    0.0000
    158 O6        10.6862    2.1058    6.0656 O.3       1 RES1    0.0000
    159 O7         7.0752    4.5267    6.3025 O.3       1 RES1    0.0000
    160 O8         8.3141    5.8129   10.8149 O.3       1 RES1    0.0000
    161 O9        19.8595    5.6156    7.0154 O.2       1 RES1    0.0000
    162 O10       16.6273    8.3454    2.5886 O.2       1 RES1    0.0000
    163 O11        6.3507    2.7986    7.4366 O.2       1 RES1    0.0000
    164 O12        7.5215    3.7208   11.0211 O.2       1 RES1    0.0000
    165 O13       18.7129    3.8707    9.7751 O.2       1 RES1    0.0000
    166 O14       19.8575    2.5081    8.6234 O.2       1 RES1    0.0000
    167 O15       18.2191    0.9482    4.3084 O.2       1 RES1    0.0000
    168 O16       17.3704    2.6059    3.2269 O.2       1 RES1    0.0000
    169 O17       10.0825    2.7084   12.3330 O.2       1 RES1    0.0000
    170 O18        8.8144    1.0353   11.8964 O.2       1 RES1    0.0000
    171 O19        8.6408   -0.7341    7.2699 O.2       1 RES1    0.0000
    172 O20        8.4660    0.7035    6.0085 O.2       1 RES1    0.0000
    173 O21        9.3172    6.6173   18.2274 Du        2 SUP2    0.0000
    174 O22       25.4450    5.8037    6.2718 Du        2 SUP2    0.0000
    175 O23       24.4847    5.6462    4.9117 Du        2 SUP2    0.0000
    176 O24        9.1174    5.0788   19.1532 Du        2 SUP2    0.0000
@<TRIPOS>BOND
     1    1    2 1
     2    3    1 1
     3    4    3 1
     4    5    3 1
     5    6    3 1
     6    7    6 1
     7    8    6 1
     8    9    6 1
     9   10    9 1
    10   11    9 1
    11   12    9 1
    12   13    1 1
    13   14   13 ar
    14   15   14 ar
    15   16   15 1
    16   17   15 ar
    17   18   17 ar
    18   19   13 ar
    19   20   19 1
    20   21   18 1
    21   22   21 1
    22   23   21 1
    23   24   23 1
    24   25   23 1
    25   26   23 1
    26   27   26 1
    27   28   26 1
    28   29   26 1
    29   30   29 1
    30   31   29 1
    31   32   29 1
    32   33   21 1
    33   34   33 ar
    34   35   34 ar
    35   36   35 1
    36   37   35 ar
    37   38   37 ar
    38   39   33 ar
    39   40   39 1
    40   41   38 1
    41   42   41 1
    42   43   41 1
    43   44   43 1
    44   45   43 1
    45   46   43 1
    46   48   46 1
    47   53   46 1
    48   54   53 1
    49   55   53 1
    50   56   53 1
    51   57   41 1
    52   58   57 ar
    53   59   58 ar
    54   60   59 1
    55   61   59 ar
    56   62   61 ar
    57   63   57 ar
    58   64   63 1
    59   65   62 1
    60   66   65 1
    61   67   65 1
    62   68   67 1
    63   69   67 1
    64   70   67 1
    65   71   70 1
    66   72   70 1
    67   73   70 1
    68   74   73 1
    69   75   73 1
    70   76   73 1
    71   77   65 1
    72   78   77 ar
    73   79   78 ar
    74   80   79 1
    75   81   79 ar
    76   82    1 1
    77   83   77 ar
    78   84   83 1
    79   85   86 ar
    80   86   87 ar
    81   87   88 1
    82   89   87 ar
    83   90   89 ar
    84   91   85 ar
    85   92   91 1
    86   93   94 ar
    87   94   95 ar
    88   95   96 1
    89   97   95 ar
    90   98   97 ar
    91   99   93 ar
    92  100   99 1
    93  101  102 1
    94  102  103 ar
    95  103  104 1
    96  105  103 ar
    97  106  105 1
    98  107  105 ar
    99  108  107 1
   100  109  107 ar
   101  110  109 1
   102  111  102 ar
   103  112  111 1
   104  113  114 1
   105  114  115 ar
   106  115  116 1
   107  117  115 ar
   108  118  117 1
   109  119  117 ar
   110  120  119 1
   111  121  119 ar
   112  122  121 1
   113  123  114 ar
   114  124  123 1
   115  125  126 1
   116  126  127 ar
   117  127  128 1
   118  129  127 ar
   119  130  129 1
   120  131  129 ar
   121  132  131 1
   122  133  131 ar
   123  134  133 1
   124  135  126 ar
   125  136  135 1
   126  137  138 1
   127  138  139 ar
   128  139  140 1
   129  141  139 ar
   130  142  141 1
   131  143  141 ar
   132  144  143 1
   133  145  143 ar
   134  146  145 1
   135  147  138 ar
   136  148  147 1
   137  149   97 1
   138  150   94 1
   139  151   86 1
   140  152   89 1
   141  153   14 1
   142  154   17 1
   143  155   34 1
   144  156   37 1
   145  157   58 1
   146  158   61 1
   147  159   78 1
   148  160   81 1
   149  161  101 2
   150  162  113 2
   151  163  125 2
   152  164  137 2
   153  165  150 2
   154  166  150 2
   155  167  149 2
   156  168  149 2
   157  169  151 2
   158  170  151 2
   159  171  152 2
   160  172  152 2
   161   18   19 ar
   162   38   39 ar
   163   62   63 ar
   164   81   82 ar
   165   82   83 ar
   166   85  153 1
   167   90  158 1
   168   90   91 ar
   169   93  154 1
   170   98  157 1
   171   98   99 ar
   172  101  155 1
   173  109  111 ar
   174  113  156 1
   175  121  123 ar
   176  125  159 1
   177  133  135 ar
   178  137  160 1
   179  145  147 ar
@<TRIPOS>SUBSTRUCTURE
     1 RES1 1
     2 SUP2 47

@<TRIPOS>CRYSIN
  22.1910   15.2930   22.8560  90.0000 106.3030  90.0000 231 1

