# MOL2 file generated by ConQuest
# Please check atom types

@<TRIPOS>MOLECULE
XIYZOV
   287   252     7
SMALL
USER_CHARGES
****
Generated from CSD

@<TRIPOS>ATOM
      1 O1         1.7890    4.2247    3.7853 O.2       1 RES1   -1.0000
      2 N1         1.8434    3.1492   10.0069 N.pl3     1 RES1    0.0000
      3 N2         0.8933    3.5503    4.4377 N.pl3     1 RES1    1.0000
      4 N3        -0.1786    3.0390    3.9979 N.2       1 RES1    0.0000
      5 N4        -1.9806    3.1118   -1.3179 N.3       1 RES1    0.0000
      6 C1         0.9653    2.3845   10.8817 C.3       1 RES1    0.0000
      7 H1         0.0655    2.7702   10.8588 H         1 RES1    0.0000
      8 H2         1.3114    2.4154   11.7990 H         1 RES1    0.0000
      9 H3         0.9310    1.4545   10.5776 H         1 RES1    0.0000
     10 C2         2.9184    3.8632   10.5841 C.3       1 RES1    0.0000
     11 H4         3.7427    3.3409   10.4975 H         1 RES1    0.0000
     12 H5         2.7306    4.0241   11.5341 H         1 RES1    0.0000
     13 H6         3.0260    4.7205   10.1230 H         1 RES1    0.0000
     14 C3         1.6021    3.1867    8.6465 C.ar      1 RES1    0.0000
     15 C4         2.4961    3.8985    7.7913 C.ar      1 RES1    0.0000
     16 H7         3.2648    4.3282    8.1511 H         1 RES1    0.0000
     17 C5         2.2322    3.9602    6.4440 C.ar      1 RES1    0.0000
     18 H8         2.8445    4.4208    5.8799 H         1 RES1    0.0000
     19 C6         1.1394    3.3916    5.8832 C.ar      1 RES1    0.0000
     20 C7         0.2389    2.6930    6.7024 C.ar      1 RES1    0.0000
     21 H9        -0.5332    2.2919    6.3214 H         1 RES1    0.0000
     22 C8         0.4736    2.5872    8.0677 C.ar      1 RES1    0.0000
     23 H10       -0.1347    2.1024    8.6138 H         1 RES1    0.0000
     24 C9        -0.5165    3.1955    2.6391 C.ar      1 RES1    0.0000
     25 C10        0.2239    3.7905    1.5763 C.ar      1 RES1    0.0000
     26 H11        1.0760    4.1696    1.7545 H         1 RES1    0.0000
     27 C11       -0.2879    3.8236    0.2747 C.ar      1 RES1    0.0000
     28 H12        0.1816    4.2886   -0.4088 H         1 RES1    0.0000
     29 C12       -1.5140    3.1558   -0.0278 C.ar      1 RES1    0.0000
     30 C13       -2.2518    2.6115    1.0448 C.ar      1 RES1    0.0000
     31 H13       -3.1199    2.2589    0.8813 H         1 RES1    0.0000
     32 C14       -1.7422    2.5762    2.3153 C.ar      1 RES1    0.0000
     33 H14       -2.2262    2.1245    2.9955 H         1 RES1    0.0000
     34 C15       -3.2388    2.5366   -1.6417 C.3       1 RES1    0.0000
     35 H15       -3.3742    1.7256   -1.1086 H         1 RES1    0.0000
     36 H16       -3.2588    2.3096   -2.5949 H         1 RES1    0.0000
     37 H17       -3.9517    3.1801   -1.4454 H         1 RES1    0.0000
     38 C16       -1.2298    3.7156   -2.4069 C.3       1 RES1    0.0000
     39 H18       -1.4650    4.6632   -2.4788 H         1 RES1    0.0000
     40 H19       -1.4475    3.2594   -3.2457 H         1 RES1    0.0000
     41 H20       -0.2697    3.6296   -2.2287 H         1 RES1    0.0000
     42 O2         4.5180    7.9138   12.7327 O.2       2 RES2   -1.0000
     43 N5         4.4475    6.8053    6.5192 N.pl3     2 RES2    0.0000
     44 N6         5.3738    7.2350   12.0198 N.pl3     2 RES2    1.0000
     45 N7         6.4645    6.7105   12.4743 N.2       2 RES2    0.0000
     46 N8         8.3292    6.8450   17.8065 N.3       2 RES2    0.0000
     47 C17        5.3328    6.0670    5.6444 C.3       2 RES2    0.0000
     48 H21        5.0035    6.1243    4.7239 H         2 RES2    0.0000
     49 H22        5.3602    5.1282    5.9240 H         2 RES2    0.0000
     50 H23        6.2341    6.4483    5.6935 H         2 RES2    0.0000
     51 C18        3.3769    7.5392    5.9567 C.3       2 RES2    0.0000
     52 H24        2.5267    7.1513    6.2494 H         2 RES2    0.0000
     53 H25        3.4340    7.5017    4.9789 H         2 RES2    0.0000
     54 H26        3.4303    8.4714    6.2511 H         2 RES2    0.0000
     55 C19        4.6728    6.8560    7.8502 C.ar      2 RES2    0.0000
     56 C20        3.7847    7.5656    8.6988 C.ar      2 RES2    0.0000
     57 H27        3.0212    7.9954    8.3309 H         2 RES2    0.0000
     58 C21        4.0228    7.6339   10.0478 C.ar      2 RES2    0.0000
     59 H28        3.3943    8.0703   10.6103 H         2 RES2    0.0000
     60 C22        5.1466    7.0896   10.5956 C.ar      2 RES2    0.0000
     61 C23        6.0685    6.4042    9.8009 C.ar      2 RES2    0.0000
     62 H29        6.8377    6.0075   10.1933 H         2 RES2    0.0000
     63 C24        5.8506    6.3095    8.4356 C.ar      2 RES2    0.0000
     64 H30        6.4925    5.8775    7.8862 H         2 RES2    0.0000
     65 C25        6.8148    6.8648   13.8593 C.ar      2 RES2    0.0000
     66 C26        6.0767    7.4246   14.9156 C.ar      2 RES2    0.0000
     67 H31        5.2097    7.7706   14.7422 H         2 RES2    0.0000
     68 C27        6.5916    7.4819   16.2188 C.ar      2 RES2    0.0000
     69 H32        6.1208    7.9535   16.8957 H         2 RES2    0.0000
     70 C28        7.8195    6.8317   16.5229 C.ar      2 RES2    0.0000
     71 C29        8.0385    6.2455   14.1683 C.ar      2 RES2    0.0000
     72 H33        8.5194    5.7938   13.4832 H         2 RES2    0.0000
     73 C30        8.5572    6.2808   15.4470 C.ar      2 RES2    0.0000
     74 H34        9.4247    5.9282   15.6089 H         2 RES2    0.0000
     75 C31        9.5742    6.2389   18.1335 C.3       2 RES2    0.0000
     76 H35        9.6365    5.3640   17.6953 H         2 RES2    0.0000
     77 H36        9.6371    6.1243   19.1047 H         2 RES2    0.0000
     78 H37       10.3066    6.8119   17.8244 H         2 RES2    0.0000
     79 C32        7.5505    7.3695   18.9200 C.3       2 RES2    0.0000
     80 H38        7.7029    8.3347   18.9985 H         2 RES2    0.0000
     81 H39        7.8282    6.9265   19.7490 H         2 RES2    0.0000
     82 H40        6.5991    7.2020   18.7614 H         2 RES2    0.0000
     83 O3        -1.6027    4.5839   12.3762 O.2       3 RES3   -1.0000
     84 N9        -1.6561    5.6880    6.1791 N.pl3     3 RES3    0.0000
     85 N10       -0.7400    5.2208   11.7287 N.pl3     3 RES3    1.0000
     86 N11        0.3407    5.6924   12.1130 N.2       3 RES3    0.0000
     87 N12        2.1307    5.6263   17.5105 N.3       3 RES3    0.0000
     88 C33       -0.7811    6.4196    5.2962 C.3       3 RES3    0.0000
     89 H41       -0.8061    7.3717    5.5267 H         3 RES3    0.0000
     90 H42       -1.0770    6.3006    4.3690 H         3 RES3    0.0000
     91 H43        0.1352    6.0847    5.3910 H         3 RES3    0.0000
     92 C34       -2.7565    4.9211    5.5512 C.3       3 RES3    0.0000
     93 H44       -3.6147    5.2164    5.9208 H         3 RES3    0.0000
     94 H45       -2.6344    3.9646    5.7327 H         3 RES3    0.0000
     95 H46       -2.7497    5.0709    4.5832 H         3 RES3    0.0000
     96 C35       -1.4418    5.6219    7.5444 C.ar      3 RES3    0.0000
     97 C36       -2.3180    4.9607    8.3865 C.ar      3 RES3    0.0000
     98 H47       -3.0977    4.5663    8.0137 H         3 RES3    0.0000
     99 C37       -2.1026    4.8461    9.7862 C.ar      3 RES3    0.0000
    100 H48       -2.7184    4.3966   10.3536 H         3 RES3    0.0000
    101 C38       -0.9350    5.4323   10.2816 C.ar      3 RES3    0.0000
    102 C39       -0.0633    6.1464    9.4657 C.ar      3 RES3    0.0000
    103 H49        0.7056    6.5607    9.8385 H         3 RES3    0.0000
    104 C40       -0.3195    6.2522    8.1135 C.ar      3 RES3    0.0000
    105 H50        0.2678    6.7546    7.5624 H         3 RES3    0.0000
    106 C41        0.6398    5.5095   13.5715 C.ar      3 RES3    0.0000
    107 C42       -0.0371    4.8748   14.6180 C.ar      3 RES3    0.0000
    108 H51       -0.8471    4.4098   14.4430 H         3 RES3    0.0000
    109 C43        0.4575    4.9211   15.8934 C.ar      3 RES3    0.0000
    110 H52       -0.0478    4.5244   16.5932 H         3 RES3    0.0000
    111 C44        1.6657    5.5227   16.2057 C.ar      3 RES3    0.0000
    112 C45        2.3848    6.1089   15.1657 C.ar      3 RES3    0.0000
    113 H53        3.2176    6.5298   15.3407 H         3 RES3    0.0000
    114 C46        1.8785    6.0758   13.8724 C.ar      3 RES3    0.0000
    115 H54        2.3933    6.4505   13.1693 H         3 RES3    0.0000
    116 C47        3.4449    6.2257   17.7983 C.3       3 RES3    0.0000
    117 H55        4.1154    5.8467   17.1917 H         3 RES3    0.0000
    118 H56        3.6962    6.0318   18.7254 H         3 RES3    0.0000
    119 H57        3.3956    7.1954   17.6691 H         3 RES3    0.0000
    120 C48        1.3824    5.0379   18.6028 C.3       3 RES3    0.0000
    121 H58        0.5546    5.5425   18.7401 H         3 RES3    0.0000
    122 H59        1.9222    5.0643   19.4203 H         3 RES3    0.0000
    123 H60        1.1662    4.1079   18.3853 H         3 RES3    0.0000
    124 O4         7.9908    8.2466    4.4900 O.2       4 RES4   -1.0000
    125 N13        8.0402    9.3859   10.6953 N.pl3     4 RES4    0.0000
    126 N14        7.1302    8.8967    5.1179 N.pl3     4 RES4    1.0000
    127 N15        6.0580    9.3992    4.7402 N.2       4 RES4    0.0000
    128 N16        4.2435    9.2162   -0.6050 N.3       4 RES4    0.0000
    129 C49        7.1603   10.1264   11.5717 C.3       4 RES4    0.0000
    130 H61        7.2520   11.0851   11.3935 H         4 RES4    0.0000
    131 H62        7.3986    9.9435   12.5054 H         4 RES4    0.0000
    132 H63        6.2328    9.8509   11.4131 H         4 RES4    0.0000
    133 C50        9.1333    8.6300   11.3232 C.3       4 RES4    0.0000
    134 H64        9.0413    8.6719   12.2977 H         4 RES4    0.0000
    135 H65        9.9930    9.0201   11.0583 H         4 RES4    0.0000
    136 H66        9.0950    7.6956   11.0305 H         4 RES4    0.0000
    137 C51        7.8336    9.3441    9.3284 C.ar      4 RES4    0.0000
    138 C52        8.6956    8.6278    8.5026 C.ar      4 RES4    0.0000
    139 H67        9.4383    8.1805    8.8885 H         4 RES4    0.0000
    140 C53        8.5001    8.5507    7.1111 C.ar      4 RES4    0.0000
    141 H68        9.1388    8.1342    6.5438 H         4 RES4    0.0000
    142 C54        7.3107    9.1193    6.5928 C.ar      4 RES4    0.0000
    143 C55        6.4683    9.8311    7.4071 C.ar      4 RES4    0.0000
    144 H69        5.7155   10.2675    7.0261 H         4 RES4    0.0000
    145 C56        6.6811    9.9281    8.7463 C.ar      4 RES4    0.0000
    146 H70        6.0559   10.3887    9.2924 H         4 RES4    0.0000
    147 C57        5.7576    9.1942    3.3128 C.ar      4 RES4    0.0000
    148 C58        6.4394    8.6212    2.2728 C.ar      4 RES4    0.0000
    149 H71        7.2962    8.2488    2.4445 H         4 RES4    0.0000
    150 C59        5.9490    8.5617    1.0023 C.ar      4 RES4    0.0000
    151 H72        6.4218    8.0813    0.3336 H         4 RES4    0.0000
    152 C60        4.7323    9.2185    0.6802 C.ar      4 RES4    0.0000
    153 C61        4.0099    9.7672    1.7365 C.ar      4 RES4    0.0000
    154 H73        3.1436   10.1198    1.5714 H         4 RES4    0.0000
    155 C62        4.5294    9.8091    3.0331 C.ar      4 RES4    0.0000
    156 H74        4.0516   10.2542    3.7232 H         4 RES4    0.0000
    157 C63        2.9605    9.8399   -0.9059 C.3       4 RES4    0.0000
    158 H75        2.5811    9.4322   -1.7120 H         4 RES4    0.0000
    159 H76        3.0905   10.7986   -1.0530 H         4 RES4    0.0000
    160 H77        2.3472    9.7055   -0.1521 H         4 RES4    0.0000
    161 C64        5.0461    8.6984   -1.6842 C.3       4 RES4    0.0000
    162 H78        5.7734    9.3264   -1.8804 H         4 RES4    0.0000
    163 H79        4.4885    8.5860   -2.4821 H         4 RES4    0.0000
    164 H80        5.4244    7.8323   -1.4258 H         4 RES4    0.0000
    165 O5         2.0395   11.5589    4.6536 O.2       5 RES5   -1.0000
    166 N17        2.0707   10.4283   10.8490 N.pl3     5 RES5    0.0000
    167 N18        1.1535   10.8713    5.3501 N.pl3     5 RES5    1.0000
    168 N19        0.0854   10.3666    4.8383 N.2       5 RES5    0.0000
    169 N20       -1.6418   10.4526   -0.4039 N.3       5 RES5    0.0000
    170 C65        1.2026    9.7011   11.7058 C.3       5 RES5    0.0000
    171 H81        0.3858   10.2190   11.8595 H         5 RES5    0.0000
    172 H82        1.6499    9.5336   12.5610 H         5 RES5    0.0000
    173 H83        0.9710    8.8438   11.2872 H         5 RES5    0.0000
    174 C66        3.1544   11.1666   11.4426 C.3       5 RES5    0.0000
    175 H84        3.0061   12.1275   11.3118 H         5 RES5    0.0000
    176 H85        3.9998   10.9066   11.0174 H         5 RES5    0.0000
    177 H86        3.1979   10.9705   12.4008 H         5 RES5    0.0000
    178 C67        1.8280   10.5231    9.5131 C.ar      5 RES5    0.0000
    179 C68        2.7213   11.2041    8.6531 C.ar      5 RES5    0.0000
    180 H87        3.5130   11.5809    9.0161 H         5 RES5    0.0000
    181 C69        2.4800   11.3297    7.3302 C.ar      5 RES5    0.0000
    182 H88        3.0669   11.8520    6.7939 H         5 RES5    0.0000
    183 C70        1.3965   10.7126    6.7498 C.ar      5 RES5    0.0000
    184 C71        0.4644   10.0250    7.5428 C.ar      5 RES5    0.0000
    185 H89       -0.3155    9.6482    7.1537 H         5 RES5    0.0000
    186 C72        0.7065    9.9016    8.9179 C.ar      5 RES5    0.0000
    187 H90        0.1095    9.3926    9.4559 H         5 RES5    0.0000
    188 C73       -0.2380   10.4746    3.4893 C.ar      5 RES5    0.0000
    189 C74        0.5296   11.1159    2.4788 C.ar      5 RES5    0.0000
    190 H91        1.3412   11.5655    2.6865 H         5 RES5    0.0000
    191 C75        0.0365   11.0608    1.1413 C.ar      5 RES5    0.0000
    192 H92        0.5700   11.4156    0.4398 H         5 RES5    0.0000
    193 C76       -1.2108   10.5011    0.8241 C.ar      5 RES5    0.0000
    194 C77       -1.9512    9.8994    1.8837 C.ar      5 RES5    0.0000
    195 H93       -2.7818    9.4785    1.6989 H         5 RES5    0.0000
    196 C78       -1.4757    9.9281    3.1656 C.ar      5 RES5    0.0000
    197 H94       -2.0093    9.5600    3.8605 H         5 RES5    0.0000
    198 C79       -2.9147    9.8708   -0.7979 C.3       5 RES5    0.0000
    199 H95       -3.1050    9.0906   -0.2355 H         5 RES5    0.0000
    200 H96       -2.8703    9.5931   -1.7365 H         5 RES5    0.0000
    201 H97       -3.6265   10.5363   -0.6868 H         5 RES5    0.0000
    202 C80       -0.8734   11.0344   -1.5256 C.3       5 RES5    0.0000
    203 H98       -0.9785   12.0085   -1.5239 H         5 RES5    0.0000
    204 H99       -1.2071   10.6708   -2.3726 H         5 RES5    0.0000
    205 H100       0.0742   10.8074   -1.4242 H         5 RES5    0.0000
    206 O6         7.6548    0.8727    3.4795 O.2       6 RES6   -1.0000
    207 N21        7.7900    2.0429    9.5540 N.pl3     6 RES6    0.0000
    208 N22        6.7921    1.4986    4.1712 N.pl3     6 RES6    1.0000
    209 N23        5.7129    1.9680    3.7248 N.2       6 RES6    0.0000
    210 N24        3.8437    1.8710   -1.5877 N.3       6 RES6    0.0000
    211 C81        6.8553    2.7305   10.5923 C.3       6 RES6    0.0000
    212 H101       6.3979    3.4886   10.1704 H         6 RES6    0.0000
    213 H102       7.3877    3.0522   11.3494 H         6 RES6    0.0000
    214 H103       6.1898    2.0848   10.9128 H         6 RES6    0.0000
    215 C82        8.8574    1.2033   10.2751 C.3       6 RES6    0.0000
    216 H104       8.4279    0.6281   10.9406 H         6 RES6    0.0000
    217 H105       9.4953    1.7983   10.7198 H         6 RES6    0.0000
    218 H106       9.3321    0.6479    9.6210 H         6 RES6    0.0000
    219 C83        7.5125    1.9349    8.3064 C.ar      6 RES6    0.0000
    220 C84        8.4605    1.3377    7.4071 C.ar      6 RES6    0.0000
    221 H107       9.2956    1.0380    7.7456 H         6 RES6    0.0000
    222 C85        8.1871    1.1923    6.0696 C.ar      6 RES6    0.0000
    223 H108       8.8006    0.7339    5.5054 H         6 RES6    0.0000
    224 C86        7.0312    1.7079    5.5480 C.ar      6 RES6    0.0000
    225 C87        6.0927    2.3911    6.4375 C.ar      6 RES6    0.0000
    226 H109       5.2773    2.7327    6.0908 H         6 RES6    0.0000
    227 C88        6.3764    2.5366    7.7423 C.ar      6 RES6    0.0000
    228 H110       5.8005    3.0545    8.2917 H         6 RES6    0.0000
    229 C89        5.4108    1.8291    2.3529 C.ar      6 RES6    0.0000
    230 C90        6.0742    1.1812    1.2803 C.ar      6 RES6    0.0000
    231 H111       6.8655    0.6832    1.4471 H         6 RES6    0.0000
    232 C91        5.5863    1.2672    0.0131 C.ar      6 RES6    0.0000
    233 H112       6.1312    0.9278   -0.6868 H         6 RES6    0.0000
    234 C92        4.3185    1.8269   -0.3516 C.ar      6 RES6    0.0000
    235 C93        3.6610    2.4198    0.7522 C.ar      6 RES6    0.0000
    236 H113       2.8375    2.8671    0.5985 H         6 RES6    0.0000
    237 C94        4.1491    2.3823    2.0292 C.ar      6 RES6    0.0000
    238 H114       3.6185    2.7437    2.7290 H         6 RES6    0.0000
    239 C95        2.5440    2.4947   -1.8755 C.3       6 RES6    0.0000
    240 H115       1.8893    2.2060   -1.2051 H         6 RES6    0.0000
    241 H116       2.2414    2.2214   -2.7666 H         6 RES6    0.0000
    242 H117       2.6363    3.4688   -1.8444 H         6 RES6    0.0000
    243 C96        4.6358    1.3509   -2.6849 C.3       6 RES6    0.0000
    244 H118       5.4369    1.9041   -2.8010 H         6 RES6    0.0000
    245 H119       4.1049    1.3686   -3.5073 H         6 RES6    0.0000
    246 H120       4.9021    0.4297   -2.4870 H         6 RES6    0.0000
    247 O7         7.9411    0.8969    4.1990 Du        7 SUP7    0.0000
    248 N25        7.9642    1.9592   10.4615 Du        7 SUP7    0.0000
    249 N26        7.0748    1.5515    4.9315 Du        7 SUP7    0.0000
    250 N27        5.9343    2.0473    4.4410 Du        7 SUP7    0.0000
    251 N28        4.1515    1.9724   -0.9565 Du        7 SUP7    0.0000
    252 C97        7.1067    2.6798   11.4311 Du        7 SUP7    0.0000
    253 C98        9.0889    1.2473   11.1564 Du        7 SUP7    0.0000
    254 C99        7.7900    2.0429    9.5540 Du        7 SUP7    0.0000
    255 C100       8.5840    1.2672    8.1658 Du        7 SUP7    0.0000
    256 C101       8.3778    1.1350    6.7776 Du        7 SUP7    0.0000
    257 C102       7.1750    1.7873    6.3410 Du        7 SUP7    0.0000
    258 C103       6.3991    2.4947    7.1782 Du        7 SUP7    0.0000
    259 C104       6.6387    2.5917    8.5059 Du        7 SUP7    0.0000
    260 C105       5.7069    1.8644    3.0855 Du        7 SUP7    0.0000
    261 C106       6.2840    1.2694    1.8935 Du        7 SUP7    0.0000
    262 C107       5.9656    1.1570    0.6868 Du        7 SUP7    0.0000
    263 C108       4.6532    1.8997    0.3908 Du        7 SUP7    0.0000
    264 C109       3.9274    2.4440    1.4258 Du        7 SUP7    0.0000
    265 C110       4.4519    2.4462    2.7290 Du        7 SUP7    0.0000
    266 C111       2.8693    2.6423   -1.1544 Du        7 SUP7    0.0000
    267 C112       4.9858    1.4898   -2.0472 Du        7 SUP7    0.0000
    268 O8         1.7735   11.6140    3.7101 Du        7 SUP7    0.0000
    269 N29        1.8784   10.5033    9.9824 Du        7 SUP7    0.0000
    270 N30        0.8370   10.8889    4.3592 Du        7 SUP7    0.0000
    271 N31       -0.1541   10.3843    3.9047 Du        7 SUP7    0.0000
    272 N32       -2.0546   10.5253   -1.4144 Du        7 SUP7    0.0000
    273 C113       0.9234    9.7253   10.8507 Du        7 SUP7    0.0000
    274 C114       2.8924   11.2107   10.4435 Du        7 SUP7    0.0000
    275 C115       1.5434   10.5319    8.4830 Du        7 SUP7    0.0000
    276 C116       2.5595   11.2724    7.8159 Du        7 SUP7    0.0000
    277 C117       2.1889   11.3032    6.3148 Du        7 SUP7    0.0000
    278 C118       1.1663   10.7567    5.8783 Du        7 SUP7    0.0000
    279 C119       0.2219   10.0713    6.6484 Du        7 SUP7    0.0000
    280 C120       0.4613    9.9347    8.0448 Du        7 SUP7    0.0000
    281 C121      -0.5530   10.5407    2.5181 Du        7 SUP7    0.0000
    282 C122       0.2481   11.1534    1.5076 Du        7 SUP7    0.0000
    283 C123      -0.3348   11.2063    0.0981 Du        7 SUP7    0.0000
    284 C124      -2.3200   10.0250    0.8911 Du        7 SUP7    0.0000
    285 C125      -1.7032    9.9038    2.2728 Du        7 SUP7    0.0000
    286 C126      -3.3089    9.9699   -1.7152 Du        7 SUP7    0.0000
    287 C127      -1.3393   11.0939   -2.4641 Du        7 SUP7    0.0000
@<TRIPOS>BOND
     1    1    3 1
     2    2    6 1
     3    3    4 2
     4    4   24 1
     5    5   29 1
     6    6    7 1
     7    8    6 1
     8    9    6 1
     9   10    2 1
    10   11   10 1
    11   12   10 1
    12   13   10 1
    13   14    2 1
    14   15   14 ar
    15   16   15 1
    16   17   15 ar
    17   18   17 1
    18   19    3 1
    19   20   19 ar
    20   21   20 1
    21   22   14 ar
    22   23   22 1
    23   24   25 ar
    24   25   26 1
    25   27   25 ar
    26   28   27 1
    27   29   27 ar
    28   30   29 ar
    29   31   30 1
    30   32   24 ar
    31   33   32 1
    32   34    5 1
    33   35   34 1
    34   36   34 1
    35   37   34 1
    36   38    5 1
    37   39   38 1
    38   40   38 1
    39   41   38 1
    40   42   44 1
    41   43   47 1
    42   44   45 2
    43   45   65 1
    44   46   70 1
    45   47   48 1
    46   49   47 1
    47   50   47 1
    48   51   43 1
    49   52   51 1
    50   53   51 1
    51   54   51 1
    52   55   43 1
    53   56   55 ar
    54   57   56 1
    55   58   56 ar
    56   59   58 1
    57   60   44 1
    58   61   60 ar
    59   62   61 1
    60   63   55 ar
    61   64   63 1
    62   65   66 ar
    63   66   67 1
    64   68   66 ar
    65   69   68 1
    66   70   68 ar
    67   71   65 ar
    68   72   71 1
    69   73   70 ar
    70   74   73 1
    71   75   46 1
    72   76   75 1
    73   77   75 1
    74   78   75 1
    75   79   46 1
    76   80   79 1
    77   81   79 1
    78   82   79 1
    79   83   85 1
    80   84   88 1
    81   85   86 2
    82   86  106 1
    83   87  111 1
    84   88   89 1
    85   90   88 1
    86   91   88 1
    87   92   84 1
    88   93   92 1
    89   94   92 1
    90   95   92 1
    91   96   84 1
    92   97   96 ar
    93   98   97 1
    94   99   97 ar
    95  100   99 1
    96  101   85 1
    97  102  101 ar
    98  103  102 1
    99  104   96 ar
   100  105  104 1
   101  106  107 ar
   102  107  108 1
   103  109  107 ar
   104  110  109 1
   105  111  109 ar
   106  112  111 ar
   107  113  112 1
   108  114  106 ar
   109  115  114 1
   110  116   87 1
   111  117  116 1
   112  118  116 1
   113  119  116 1
   114  120   87 1
   115  121  120 1
   116  122  120 1
   117  123  120 1
   118  124  126 1
   119  125  129 1
   120  126  127 2
   121  127  147 1
   122  128  152 1
   123  129  130 1
   124  131  129 1
   125  132  129 1
   126  133  125 1
   127  134  133 1
   128  135  133 1
   129  136  133 1
   130  137  125 1
   131  138  137 ar
   132  139  138 1
   133  140  138 ar
   134  141  140 1
   135  142  126 1
   136  143  142 ar
   137  144  143 1
   138  145  137 ar
   139  146  145 1
   140  147  148 ar
   141  148  149 1
   142  150  148 ar
   143  151  150 1
   144  152  150 ar
   145  153  152 ar
   146  154  153 1
   147  155  147 ar
   148  156  155 1
   149  157  128 1
   150  158  157 1
   151  159  157 1
   152  160  157 1
   153  161  128 1
   154  162  161 1
   155  163  161 1
   156  164  161 1
   157  165  167 1
   158  166  170 1
   159  167  168 2
   160  168  188 1
   161  169  193 1
   162  170  171 1
   163  172  170 1
   164  173  170 1
   165  174  166 1
   166  175  174 1
   167  176  174 1
   168  177  174 1
   169  178  166 1
   170  179  178 ar
   171  180  179 1
   172  181  179 ar
   173  182  181 1
   174  183  167 1
   175  184  183 ar
   176  185  184 1
   177  186  178 ar
   178  187  186 1
   179  188  189 ar
   180  189  190 1
   181  191  189 ar
   182  192  191 1
   183  193  191 ar
   184  194  193 ar
   185  195  194 1
   186  196  188 ar
   187  197  196 1
   188  198  169 1
   189  199  198 1
   190  200  198 1
   191  201  198 1
   192  202  169 1
   193  203  202 1
   194  204  202 1
   195  205  202 1
   196  206  208 1
   197  207  211 1
   198  208  209 2
   199  209  229 1
   200  210  234 1
   201  211  212 1
   202  213  211 1
   203  214  211 1
   204  215  207 1
   205  216  215 1
   206  217  215 1
   207  218  215 1
   208  219  207 1
   209  220  219 ar
   210  221  220 1
   211  222  220 ar
   212  223  222 1
   213  224  208 1
   214  225  224 ar
   215  226  225 1
   216  227  219 ar
   217  228  227 1
   218  229  230 ar
   219  230  231 1
   220  232  230 ar
   221  233  232 1
   222  234  232 ar
   223  235  234 ar
   224  236  235 1
   225  237  229 ar
   226  238  237 1
   227  239  210 1
   228  240  239 1
   229  241  239 1
   230  242  239 1
   231  243  210 1
   232  244  243 1
   233  245  243 1
   234  246  243 1
   235   17   19 ar
   236   20   22 ar
   237   30   32 ar
   238   58   60 ar
   239   61   63 ar
   240   71   73 ar
   241   99  101 ar
   242  102  104 ar
   243  112  114 ar
   244  140  142 ar
   245  143  145 ar
   246  153  155 ar
   247  181  183 ar
   248  184  186 ar
   249  194  196 ar
   250  222  224 ar
   251  225  227 ar
   252  235  237 ar
@<TRIPOS>SUBSTRUCTURE
     1 RES1 1
     2 RES2 42
     3 RES3 83
     4 RES4 124
     5 RES5 165
     6 RES6 206
     7 SUP7 247

@<TRIPOS>CRYSIN
  12.0080   22.0379   17.3408  90.0000 109.4500  90.0000   4 1

