# MOL2 file generated by ConQuest
# Please check atom types

@<TRIPOS>MOLECULE
XIZCUF
   132   138     2
SMALL
NO_CHARGES
****
Generated from CSD

@<TRIPOS>ATOM
      1 C1         8.1600   24.3981    2.3695 C.ar      1 RES1    0.0000
      2 C2         8.9612   23.8795    1.3096 C.ar      1 RES1    0.0000
      3 H1         9.0760   22.9564    1.2720 H         1 RES1    0.0000
      4 C3         9.5850   24.6419    0.3254 C.ar      1 RES1    0.0000
      5 H2        10.0844   24.2624   -0.3615 H         1 RES1    0.0000
      6 C4         9.4021   26.0540    0.4524 C.ar      1 RES1    0.0000
      7 C5         8.7231   26.6268    1.4726 C.ar      1 RES1    0.0000
      8 H3         8.6575   27.5533    1.5376 H         1 RES1    0.0000
      9 C6         8.1313   25.8079    2.4164 C.ar      1 RES1    0.0000
     10 C7         7.6792   22.1348    3.3514 C.3       1 RES1    0.0000
     11 H4         8.4968   21.8908    3.8132 H         1 RES1    0.0000
     12 H5         7.6999   21.7234    2.4734 H         1 RES1    0.0000
     13 C8         6.4592   21.5796    4.1466 C.3       1 RES1    0.0000
     14 C9         6.2245   22.3446    5.4835 C.3       1 RES1    0.0000
     15 H6         7.0808   22.4589    5.9244 H         1 RES1    0.0000
     16 H7         5.8857   23.2298    5.2736 H         1 RES1    0.0000
     17 C10        5.2876   21.6999    6.4395 C.3       1 RES1    0.0000
     18 H8         4.4134   21.6079    6.0312 H         1 RES1    0.0000
     19 H9         5.1960   22.2515    7.2325 H         1 RES1    0.0000
     20 C11        5.8283   20.3262    6.8241 C.3       1 RES1    0.0000
     21 H10        5.2231   19.9082    7.4576 H         1 RES1    0.0000
     22 H11        6.6902   20.4292    7.2563 H         1 RES1    0.0000
     23 C12        5.9872   19.3818    5.5449 C.3       1 RES1    0.0000
     24 C13        6.6656   18.0886    6.0297 C.ar      1 RES1    0.0000
     25 C14        6.2960   17.4700    7.1618 C.ar      1 RES1    0.0000
     26 H12        5.6090   17.8455    7.6647 H         1 RES1    0.0000
     27 C15        6.8989   16.2689    7.6329 C.ar      1 RES1    0.0000
     28 H13        6.6133   15.8818    8.4295 H         1 RES1    0.0000
     29 C16        7.9276   15.6711    6.8862 C.ar      1 RES1    0.0000
     30 C17        8.2823   16.2967    5.6711 C.ar      1 RES1    0.0000
     31 H14        8.9431   15.9172    5.1386 H         1 RES1    0.0000
     32 C18        7.6567   17.4763    5.2534 C.ar      1 RES1    0.0000
     33 C19        8.1896   18.0685    3.9142 C.3       1 RES1    0.0000
     34 H15        9.0747   18.4396    4.0549 H         1 RES1    0.0000
     35 H16        8.2612   17.3623    3.2540 H         1 RES1    0.0000
     36 C20        7.2614   19.1558    3.3947 C.3       1 RES1    0.0000
     37 H17        6.4435   18.7602    3.0563 H         1 RES1    0.0000
     38 H18        7.6892   19.6395    2.6703 H         1 RES1    0.0000
     39 C21        6.9386   20.1249    4.5607 C.3       1 RES1    0.0000
     40 H19        7.7806   20.2501    5.0463 H         1 RES1    0.0000
     41 C22        5.2513   21.6101    3.1999 C.3       1 RES1    0.0000
     42 H20        4.4438   21.6881    3.7136 H         1 RES1    0.0000
     43 H21        5.2271   20.7993    2.6862 H         1 RES1    0.0000
     44 H22        5.3272   22.3623    2.6083 H         1 RES1    0.0000
     45 C23        4.6152   18.9957    5.0542 C.3       1 RES1    0.0000
     46 H23        4.6853   18.6140    4.1761 H         1 RES1    0.0000
     47 H24        4.0560   19.7762    5.0196 H         1 RES1    0.0000
     48 H25        4.2302   18.3524    5.6538 H         1 RES1    0.0000
     49 C24        8.6117   14.4004    7.3176 C.3       1 RES1    0.0000
     50 H26        9.4228   14.2788    6.7815 H         1 RES1    0.0000
     51 C25        7.6611   13.2137    7.0586 C.3       1 RES1    0.0000
     52 H27        8.1772   12.4188    6.9056 H         1 RES1    0.0000
     53 H28        7.1210   13.3995    6.2866 H         1 RES1    0.0000
     54 H29        7.0941   13.0859    7.8227 H         1 RES1    0.0000
     55 C26        8.9869   14.3952    8.7772 C.3       1 RES1    0.0000
     56 H30        8.2063   14.2175    9.3083 H         1 RES1    0.0000
     57 H31        9.3489   15.2524    9.0182 H         1 RES1    0.0000
     58 H32        9.6431   13.7130    8.9367 H         1 RES1    0.0000
     59 C27       11.5750    7.1069    4.0297 C.ar      2 RES2    0.0000
     60 C28       10.6894    6.6130    5.0008 C.ar      2 RES2    0.0000
     61 H33       10.3997    5.7308    4.9409 H         2 RES2    0.0000
     62 C29       10.2302    7.4114    6.0586 C.ar      2 RES2    0.0000
     63 H34        9.7052    7.0510    6.7375 H         2 RES2    0.0000
     64 C30       10.5808    8.7639    6.0643 C.ar      2 RES2    0.0000
     65 C31       11.3634    9.3289    5.0759 C.ar      2 RES2    0.0000
     66 H35       11.5364   10.2429    5.0802 H         2 RES2    0.0000
     67 C32       11.8814    8.5338    4.0910 C.ar      2 RES2    0.0000
     68 C33       11.9101    4.8921    3.0232 C.3       2 RES2    0.0000
     69 H36       11.1649    4.6842    2.4373 H         2 RES2    0.0000
     70 H37       11.7038    4.5451    3.9056 H         2 RES2    0.0000
     71 C34       13.2062    4.2080    2.4827 C.3       2 RES2    0.0000
     72 C35       13.4134    4.7549    1.0101 C.3       2 RES2    0.0000
     73 H38       12.5606    4.7360    0.5476 H         2 RES2    0.0000
     74 H39       13.7007    5.6790    1.0585 H         2 RES2    0.0000
     75 C36       14.3981    3.9934    0.2208 C.3       2 RES2    0.0000
     76 H40       15.2639    4.0453    0.6551 H         2 RES2    0.0000
     77 H41       14.4811    4.3942   -0.6587 H         2 RES2    0.0000
     78 C37       13.9837    2.4875    0.0685 C.3       2 RES2    0.0000
     79 H42       13.1519    2.4305   -0.4279 H         2 RES2    0.0000
     80 H43       14.6664    2.0156   -0.4336 H         2 RES2    0.0000
     81 C38       13.8020    1.8091    1.4705 C.3       2 RES2    0.0000
     82 C39       13.1732    0.4580    1.2728 C.ar      2 RES2    0.0000
     83 C40       13.4260   -0.3626    0.1378 C.ar      2 RES2    0.0000
     84 H44       13.9358   -0.0024   -0.5520 H         2 RES2    0.0000
     85 C41       12.9749   -1.6344   -0.0058 C.ar      2 RES2    0.0000
     86 H45       13.2454   -2.1688   -0.7179 H         2 RES2    0.0000
     87 C42       12.0765   -2.1120    0.9740 C.ar      2 RES2    0.0000
     88 C43       11.8633   -1.4114    2.0996 C.ar      2 RES2    0.0000
     89 H46       11.3897   -1.8105    2.7930 H         2 RES2    0.0000
     90 C44       12.3264   -0.1058    2.2656 C.ar      2 RES2    0.0000
     91 C45       11.9083    0.6799    3.4799 C.3       2 RES2    0.0000
     92 H47       10.9670    0.9005    3.3983 H         2 RES2    0.0000
     93 H48       12.0101    0.1179    4.2642 H         2 RES2    0.0000
     94 C46       12.6828    1.9465    3.6927 C.3       2 RES2    0.0000
     95 H49       13.5473    1.7398    4.0831 H         2 RES2    0.0000
     96 H50       12.2035    2.5224    4.3082 H         2 RES2    0.0000
     97 C47       12.8860    2.6799    2.3413 C.3       2 RES2    0.0000
     98 H51       12.0112    2.6450    1.9012 H         2 RES2    0.0000
     99 C48       14.3826    4.5059    3.3796 C.3       2 RES2    0.0000
    100 H52       14.4402    5.4527    3.5297 H         2 RES2    0.0000
    101 H53       15.1904    4.1985    2.9597 H         2 RES2    0.0000
    102 H54       14.2680    4.0547    4.2187 H         2 RES2    0.0000
    103 C49       15.1935    1.5523    2.1112 C.3       2 RES2    0.0000
    104 H55       15.0802    1.1551    2.9777 H         2 RES2    0.0000
    105 H56       15.6635    2.3857    2.1999 H         2 RES2    0.0000
    106 H57       15.6992    0.9595    1.5513 H         2 RES2    0.0000
    107 C50       11.4715   -3.5422    0.7432 C.3       2 RES2    0.0000
    108 H58       10.4932   -3.4772    0.7684 H         2 RES2    0.0000
    109 C51       11.9275   -4.4062    1.8947 C.3       2 RES2    0.0000
    110 H59       11.1686   -4.8374    2.2923 H         2 RES2    0.0000
    111 H60       12.3648   -3.8591    2.5520 H         2 RES2    0.0000
    112 H61       12.5415   -5.0708    1.5729 H         2 RES2    0.0000
    113 C52       11.8751   -4.2829   -0.5123 C.3       2 RES2    0.0000
    114 H62       12.7546   -4.6488   -0.3983 H         2 RES2    0.0000
    115 H63       11.8739   -3.6752   -1.2554 H         2 RES2    0.0000
    116 H64       11.2512   -4.9930   -0.6789 H         2 RES2    0.0000
    117 N1        10.0452   26.8694   -0.5469 N.pl3     1 RES1    0.0000
    118 N2         7.3602   26.5153    3.4380 N.pl3     1 RES1    0.0000
    119 N3         7.6260   23.6697    3.1920 N.3       1 RES1    0.0000
    120 H65        7.1408   24.0691    3.7735 H         1 RES1    0.0000
    121 N4        10.1358    9.5842    7.1394 N.pl3     2 RES2    0.0000
    122 N5        12.6562    9.1953    3.0809 N.pl3     2 RES2    0.0000
    123 N6        12.0820    6.3150    3.0953 N.3       2 RES2    0.0000
    124 H66       12.5596    6.6950    2.4820 H         2 RES2    0.0000
    125 O1        10.6408   26.3458   -1.4705 O.2       1 RES1    0.0000
    126 O2         9.9925   28.0872   -0.4120 O.2       1 RES1    0.0000
    127 O3         7.5854   27.7228    3.5867 O.2       1 RES1    0.0000
    128 O4         6.6443   25.9163    4.1978 O.2       1 RES1    0.0000
    129 O5         9.4610    9.0890    8.0637 O.2       2 RES2    0.0000
    130 O6        10.4298   10.7519    7.1986 O.2       2 RES2    0.0000
    131 O7        12.6532   10.3935    3.0102 O.2       2 RES2    0.0000
    132 O8        13.4310    8.4718    2.3760 O.2       2 RES2    0.0000
@<TRIPOS>BOND
     1    1    2 ar
     2    2    3 1
     3    4    2 ar
     4    5    4 1
     5    6    4 ar
     6    7    6 ar
     7    8    7 1
     8    9    1 ar
     9   10   11 1
    10   12   10 1
    11   13   10 1
    12   14   13 1
    13   15   14 1
    14   16   14 1
    15   17   14 1
    16   18   17 1
    17   19   17 1
    18   20   17 1
    19   21   20 1
    20   22   20 1
    21   23   20 1
    22   24   23 1
    23   25   24 ar
    24   26   25 1
    25   27   25 ar
    26   28   27 1
    27   29   27 ar
    28   30   29 ar
    29   31   30 1
    30   32   24 ar
    31   33   32 1
    32   34   33 1
    33   35   33 1
    34   36   33 1
    35   37   36 1
    36   38   36 1
    37   39   13 1
    38   40   39 1
    39   41   13 1
    40   42   41 1
    41   43   41 1
    42   44   41 1
    43   45   23 1
    44   46   45 1
    45   47   45 1
    46   48   45 1
    47   49   29 1
    48   50   49 1
    49   51   49 1
    50   52   51 1
    51   53   51 1
    52   54   51 1
    53   55   49 1
    54   56   55 1
    55   57   55 1
    56   58   55 1
    57   59   60 ar
    58   60   61 1
    59   62   60 ar
    60   63   62 1
    61   64   62 ar
    62   65   64 ar
    63   66   65 1
    64   67   59 ar
    65   68   69 1
    66   70   68 1
    67   71   68 1
    68   72   71 1
    69   73   72 1
    70   74   72 1
    71   75   72 1
    72   76   75 1
    73   77   75 1
    74   78   75 1
    75   79   78 1
    76   80   78 1
    77   81   78 1
    78   82   81 1
    79   83   82 ar
    80   84   83 1
    81   85   83 ar
    82   86   85 1
    83   87   85 ar
    84   88   87 ar
    85   89   88 1
    86   90   82 ar
    87   91   90 1
    88   92   91 1
    89   93   91 1
    90   94   91 1
    91   95   94 1
    92   96   94 1
    93   97   71 1
    94   98   97 1
    95   99   71 1
    96  100   99 1
    97  101   99 1
    98  102   99 1
    99  103   81 1
   100  104  103 1
   101  105  103 1
   102  106  103 1
   103  107   87 1
   104  108  107 1
   105  109  107 1
   106  110  109 1
   107  111  109 1
   108  112  109 1
   109  113  107 1
   110  114  113 1
   111  115  113 1
   112  116  113 1
   113  117    6 1
   114  118    9 1
   115  119    1 1
   116  120  119 1
   117  121   64 1
   118  122   67 1
   119  123   59 1
   120  124  123 1
   121  125  117 2
   122  126  117 2
   123  127  118 2
   124  128  118 2
   125  129  121 2
   126  130  121 2
   127  131  122 2
   128  132  122 2
   129    7    9 ar
   130   10  119 1
   131   23   39 1
   132   30   32 ar
   133   36   39 1
   134   65   67 ar
   135   68  123 1
   136   81   97 1
   137   88   90 ar
   138   94   97 1
@<TRIPOS>SUBSTRUCTURE
     1 RES1 1
     2 RES2 59

@<TRIPOS>CRYSIN
  14.1190   23.5740    7.3090  90.0000  99.1910  90.0000   4 1

