# MOL2 file generated by ConQuest
# Please check atom types

@<TRIPOS>MOLECULE
XIZDIU
   137   126     3
SMALL
NO_CHARGES
****
Generated from CSD

@<TRIPOS>ATOM
      1 O1         4.8519    5.7333    6.8256 O.3       1 RES1    0.0000
      2 N1         4.4337    6.4169    5.6033 N.3       1 RES1    0.0000
      3 C1         5.6154    7.1515    5.0760 C.3       1 RES1    0.0000
      4 H1         5.9251    7.7775    5.7636 H         1 RES1    0.0000
      5 C2         6.7745    6.1512    4.7621 C.3       1 RES1    0.0000
      6 C3         6.9952    5.1383    5.9515 C.3       1 RES1    0.0000
      7 H2         7.5188    4.3807    5.6156 H         1 RES1    0.0000
      8 C4         5.6488    4.6110    6.4266 C.3       1 RES1    0.0000
      9 H3         5.2057    4.1481    5.6852 H         1 RES1    0.0000
     10 C5         3.4061    7.3112    6.0768 C.ar      1 RES1    0.0000
     11 C6         3.6492    8.2855    7.0381 C.ar      1 RES1    0.0000
     12 H4         4.4955    8.3686    7.4126 H         1 RES1    0.0000
     13 C7         2.6260    9.1362    7.4396 C.ar      1 RES1    0.0000
     14 H5         2.7896    9.7886    8.0830 H         1 RES1    0.0000
     15 C8         1.3598    9.0128    6.8800 C.ar      1 RES1    0.0000
     16 H6         0.6754    9.5814    7.1488 H         1 RES1    0.0000
     17 C9         1.1165    8.0381    5.9189 C.ar      1 RES1    0.0000
     18 H7         0.2692    7.9555    5.5443 H         1 RES1    0.0000
     19 C10        2.1398    7.1878    5.5172 C.ar      1 RES1    0.0000
     20 H8         1.9772    6.5355    4.8740 H         1 RES1    0.0000
     21 C11        5.1288    7.9569    3.8744 C.ar      1 RES1    0.0000
     22 C12        5.5750    9.2616    3.6992 C.ar      1 RES1    0.0000
     23 H9         6.1391    9.6488    4.3303 H         1 RES1    0.0000
     24 C13        5.1787    9.9876    2.5821 C.ar      1 RES1    0.0000
     25 H10        5.4770   10.8603    2.4655 H         1 RES1    0.0000
     26 C14        4.3363    9.4088    1.6401 C.ar      1 RES1    0.0000
     27 H11        4.0713    9.8941    0.8932 H         1 RES1    0.0000
     28 C15        3.8902    8.1040    1.8152 C.ar      1 RES1    0.0000
     29 H12        3.3258    7.7165    1.1855 H         1 RES1    0.0000
     30 C16        4.2864    7.3781    2.9324 C.ar      1 RES1    0.0000
     31 H13        3.9879    6.5050    3.0503 H         1 RES1    0.0000
     32 C17        6.4904    5.4028    3.4685 C.2       1 RES1    0.0000
     33 O2         5.9214    4.3509    3.3901 O.2       1 RES1    0.0000
     34 O3         6.9130    6.0962    2.4138 O.3       1 RES1    0.0000
     35 C18        6.4738    5.6355    1.1171 C.3       1 RES1    0.0000
     36 H14        6.8373    6.2050    0.4350 H         1 RES1    0.0000
     37 H15        5.5140    5.6609    1.0768 H         1 RES1    0.0000
     38 H16        6.7772    4.7354    0.9769 H         1 RES1    0.0000
     39 C19        8.0650    6.9512    4.5961 C.2       1 RES1    0.0000
     40 O4         8.2003    8.1157    4.7779 O.2       1 RES1    0.0000
     41 O5         9.0809    6.1211    4.2777 O.3       1 RES1    0.0000
     42 C20       10.3977    6.7186    4.2101 C.3       1 RES1    0.0000
     43 H17       11.0424    6.0486    3.9702 H         1 RES1    0.0000
     44 H18       10.6252    7.0898    5.0666 H         1 RES1    0.0000
     45 H19       10.3990    7.4152    3.5494 H         1 RES1    0.0000
     46 C21        7.7601    5.7715    7.1119 C.3       1 RES1    0.0000
     47 H20        7.8749    5.1231    7.8102 H         1 RES1    0.0000
     48 H21        7.2664    6.5215    7.4501 H         1 RES1    0.0000
     49 H22        8.6201    6.0677    6.8047 H         1 RES1    0.0000
     50 C22        5.7318    3.6759    7.6226 C.ar      1 RES1    0.0000
     51 C23        4.9119    3.8744    8.7274 C.ar      1 RES1    0.0000
     52 H23        4.3215    4.5918    8.7443 H         1 RES1    0.0000
     53 C24        4.9752    2.9999    9.8060 C.ar      1 RES1    0.0000
     54 H24        4.4256    3.1324   10.5449 H         1 RES1    0.0000
     55 C25        5.8585    1.9270    9.7799 C.ar      1 RES1    0.0000
     56 H25        5.8997    1.3424   10.5021 H         1 RES1    0.0000
     57 C26        6.6784    1.7285    8.6754 C.ar      1 RES1    0.0000
     58 H26        7.2697    1.0106    8.6588 H         1 RES1    0.0000
     59 C27        6.6152    2.6030    7.5966 C.ar      1 RES1    0.0000
     60 H27        7.1635    2.4700    6.8582 H         1 RES1    0.0000
     61 O6         0.4979    3.2582    3.5280 O.3       2 RES2    0.0000
     62 N2         1.7017    2.7624    2.9290 N.3       2 RES2    0.0000
     63 O7         1.5761    4.2015    2.9647 Du        3 SUP3    0.0000
     64 N3         1.2352    2.7395    3.0004 Du        3 SUP3    0.0000
     65 C28        1.4435    2.2349    1.6020 C.3       2 RES2    0.0000
     66 H28        0.7786    1.5179    1.6580 H         2 RES2    0.0000
     67 H29        0.8067    1.4975    1.4993 Du        3 SUP3    0.0000
     68 C29        0.9128    3.3706    0.6421 C.3       2 RES2    0.0000
     69 C30       -0.1641    4.2536    1.3433 C.3       2 RES2    0.0000
     70 H30       -0.2725    5.1015    0.8646 H         2 RES2    0.0000
     71 H31       -0.3397    4.9604    0.6864 Du        3 SUP3    0.0000
     72 C31        0.2922    4.5231    2.8399 C.3       2 RES2    0.0000
     73 H32        1.1542    4.9884    2.8078 H         2 RES2    0.0000
     74 C32        0.4871    4.9884    2.4762 Du        3 SUP3    0.0000
     75 H33        0.8662    5.8134    2.1090 Du        3 SUP3    0.0000
     76 C33        1.9443    1.8858    3.9999 C.ar      2 RES2    0.0000
     77 C34        2.5040    2.4639    5.1334 C.ar      2 RES2    0.0000
     78 H34        2.6160    3.3866    5.1789 H         2 RES2    0.0000
     79 C35        2.8971    1.6641    6.1998 C.ar      2 RES2    0.0000
     80 H35        3.2715    2.0505    6.9580 H         2 RES2    0.0000
     81 C36        2.7306    0.2848    6.1328 C.ar      2 RES2    0.0000
     82 H36        2.9946   -0.2504    6.8457 H         2 RES2    0.0000
     83 C37        2.1708   -0.2928    4.9993 C.ar      2 RES2    0.0000
     84 H37        2.0602   -1.2153    4.9542 H         2 RES2    0.0000
     85 C38        1.7778    0.5075    3.9329 C.ar      2 RES2    0.0000
     86 H38        1.4026    0.1208    3.1751 H         2 RES2    0.0000
     87 C39        2.7821    1.6530    1.2075 C.ar      2 RES2    0.0000
     88 C40        3.9796    2.2487    1.5857 C.ar      2 RES2    0.0000
     89 H39        3.9727    2.9951    2.1393 H         2 RES2    0.0000
     90 C41        5.1874    1.7279    1.1363 C.ar      2 RES2    0.0000
     91 H40        5.9894    2.1268    1.3888 H         2 RES2    0.0000
     92 C42        5.1976    0.6115    0.3084 C.ar      2 RES2    0.0000
     93 H41        6.0066    0.2631    0.0071 H         2 RES2    0.0000
     94 C43        4.0001    0.0158   -0.0701 C.ar      2 RES2    0.0000
     95 H42        4.0072   -0.7310   -0.6240 H         2 RES2    0.0000
     96 C44        2.7923    0.5365    0.3795 C.ar      2 RES2    0.0000
     97 H43        1.9905    0.1373    0.1266 H         2 RES2    0.0000
     98 C45        2.0546    4.2523    0.1271 C.2       2 RES2    0.0000
     99 O8         2.3455    5.3129    0.5482 O.2       2 RES2    0.0000
    100 O9         2.7033    3.6573   -0.8680 O.3       2 RES2    0.0000
    101 C46       -0.7659    3.1285   -2.6524 C.3       2 RES2    0.0000
    102 H44       -0.9831    3.8671   -3.2250 H         2 RES2    0.0000
    103 H45       -1.5703    2.6645   -2.4103 H         2 RES2    0.0000
    104 H46       -0.1764    2.5260   -3.1145 H         2 RES2    0.0000
    105 C47        0.2528    2.6951   -0.5619 C.2       2 RES2    0.0000
    106 O10        0.0371    1.5269   -0.7051 O.2       2 RES2    0.0000
    107 O11       -0.1117    3.6203   -1.4561 O.3       2 RES2    0.0000
    108 C48        3.9271    4.2892   -1.3258 C.3       2 RES2    0.0000
    109 H47        4.2977    3.7807   -2.0502 H         2 RES2    0.0000
    110 H48        4.5597    4.3248   -0.6043 H         2 RES2    0.0000
    111 H49        3.7337    5.1803   -1.6259 H         2 RES2    0.0000
    112 C49       -1.5146    3.5404    1.4679 C.3       2 RES2    0.0000
    113 H50       -1.7552    3.1616    0.6186 H         2 RES2    0.0000
    114 H51       -2.1863    4.1710    1.7400 H         2 RES2    0.0000
    115 H52       -1.4473    2.8412    2.1232 H         2 RES2    0.0000
    116 C50       -0.6168    5.3278    3.6457 C.ar      2 RES2    0.0000
    117 C51       -1.2041    4.8816    4.8241 C.ar      2 RES2    0.0000
    118 H53       -0.9885    4.0413    5.1610 H         2 RES2    0.0000
    119 C52       -2.1111    5.6901    5.4962 C.ar      2 RES2    0.0000
    120 H54       -2.5060    5.3914    6.2859 H         2 RES2    0.0000
    121 C53       -2.4318    6.9448    4.9917 C.ar      2 RES2    0.0000
    122 H55       -3.0413    7.4864    5.4427 H         2 RES2    0.0000
    123 C54       -1.8445    7.3910    3.8133 C.ar      2 RES2    0.0000
    124 H56       -2.0600    8.2301    3.4763 H         2 RES2    0.0000
    125 C55       -0.9374    6.5825    3.1412 C.ar      2 RES2    0.0000
    126 H57       -0.5434    6.8800    2.3532 H         2 RES2    0.0000
    127 C56       -0.5685    5.3990    3.5352 Du        3 SUP3    0.0000
    128 C57       -0.6175    4.6807    4.7243 Du        3 SUP3    0.0000
    129 H58       -0.0639    3.9434    4.8455 Du        3 SUP3    0.0000
    130 C58       -1.4915    5.0647    5.7333 Du        3 SUP3    0.0000
    131 H59       -1.5239    4.5841    6.5284 Du        3 SUP3    0.0000
    132 C59       -2.3186    6.1668    5.5532 Du        3 SUP3    0.0000
    133 H60       -2.9055    6.4236    6.2289 Du        3 SUP3    0.0000
    134 C60       -2.2726    6.8851    4.3659 Du        3 SUP3    0.0000
    135 H61       -2.8241    7.6237    4.2447 Du        3 SUP3    0.0000
    136 C61       -1.3956    6.5012    3.3551 Du        3 SUP3    0.0000
    137 H62       -1.3632    6.9817    2.5600 Du        3 SUP3    0.0000
@<TRIPOS>BOND
     1    1    2 1
     2    2    3 1
     3    3    4 1
     4    5    3 1
     5    6    5 1
     6    7    6 1
     7    8    1 1
     8    9    8 1
     9   10    2 1
    10   11   10 ar
    11   12   11 1
    12   13   11 ar
    13   14   13 1
    14   15   13 ar
    15   16   15 1
    16   17   15 ar
    17   18   17 1
    18   19   10 ar
    19   20   19 1
    20   21    3 1
    21   22   21 ar
    22   23   22 1
    23   24   22 ar
    24   25   24 1
    25   26   24 ar
    26   27   26 1
    27   28   26 ar
    28   29   28 1
    29   30   21 ar
    30   31   30 1
    31   32    5 1
    32   33   32 2
    33   34   32 1
    34   35   34 1
    35   36   35 1
    36   37   35 1
    37   38   35 1
    38   39    5 1
    39   40   39 2
    40   41   39 1
    41   42   41 1
    42   43   42 1
    43   44   42 1
    44   45   42 1
    45   46    6 1
    46   47   46 1
    47   48   46 1
    48   49   46 1
    49   50    8 1
    50   51   50 ar
    51   52   51 1
    52   53   51 ar
    53   54   53 1
    54   55   53 ar
    55   56   55 1
    56   57   55 ar
    57   58   57 1
    58   59   50 ar
    59   60   59 1
    60   61   62 1
    61   62   65 1
    62   65   66 1
    63   68   65 1
    64   69   68 1
    65   70   69 1
    66   72   61 1
    67   73   72 1
    68   76   62 1
    69   77   76 ar
    70   78   77 1
    71   79   77 ar
    72   80   79 1
    73   81   79 ar
    74   82   81 1
    75   83   81 ar
    76   84   83 1
    77   85   76 ar
    78   86   85 1
    79   87   65 1
    80   88   87 ar
    81   89   88 1
    82   90   88 ar
    83   91   90 1
    84   92   90 ar
    85   93   92 1
    86   94   92 ar
    87   95   94 1
    88   96   87 ar
    89   97   96 1
    90   98   68 1
    91   99   98 2
    92  100   98 1
    93  101  102 1
    94  103  101 1
    95  104  101 1
    96  105   68 1
    97  106  105 2
    98  107  101 1
    99  108  100 1
   100  109  108 1
   101  110  108 1
   102  111  108 1
   103  112   69 1
   104  113  112 1
   105  114  112 1
   106  115  112 1
   107  116   72 1
   108  117  116 ar
   109  118  117 1
   110  119  117 ar
   111  120  119 1
   112  121  119 ar
   113  122  121 1
   114  123  121 ar
   115  124  123 1
   116  125  116 ar
   117  126  125 1
   118    6    8 1
   119   17   19 ar
   120   28   30 ar
   121   57   59 ar
   122   69   72 1
   123   83   85 ar
   124   94   96 ar
   125  105  107 1
   126  123  125 ar
@<TRIPOS>SUBSTRUCTURE
     1 RES1 1
     2 RES2 61
     3 SUP3 63

@<TRIPOS>CRYSIN
  20.5050   12.7125   19.7289  90.0000 115.3620  90.0000  14 1

