# MOL2 file generated by ConQuest
# Please check atom types

@<TRIPOS>MOLECULE
XIZVAD
    39    44     1
SMALL
NO_CHARGES
****
Generated from CSD

@<TRIPOS>ATOM
      1 C1         1.0438    4.9158    3.5310 C.3       1 RES1    0.0000
      2 C2         0.0731    5.1880    4.6552 C.3       1 RES1    0.0000
      3 H1        -0.4689    6.0007    4.5741 H         1 RES1    0.0000
      4 O1         0.5877    4.9006    5.9526 O.3       1 RES1    0.0000
      5 C3        -0.5035    4.1055    5.4304 C.3       1 RES1    0.0000
      6 H2        -1.3922    4.2529    5.8174 H         1 RES1    0.0000
      7 C4        -0.1034    2.7005    5.1491 C.2       1 RES1    0.0000
      8 O2        -0.6922    1.7894    5.7302 O.2       1 RES1    0.0000
      9 C5         0.9984    2.4623    4.2080 C.ar      1 RES1    0.0000
     10 C6         1.4801    1.1442    4.0384 C.ar      1 RES1    0.0000
     11 C7         2.5449    0.9060    3.1550 C.ar      1 RES1    0.0000
     12 H3         2.8615    0.0391    3.0322 H         1 RES1    0.0000
     13 C8         3.1157    1.9444    2.4781 C.ar      1 RES1    0.0000
     14 H4         3.8248    1.7755    1.9006 H         1 RES1    0.0000
     15 C9         2.6563    3.2587    2.6329 C.ar      1 RES1    0.0000
     16 H5         3.0567    3.9555    2.1648 H         1 RES1    0.0000
     17 C10        1.6013    3.5082    3.4905 C.ar      1 RES1    0.0000
     18 O3         0.9433    0.0932    4.6711 O.3       1 RES1    0.0000
     19 H6         0.2326    0.4675    5.0766 H         1 RES1    0.0000
     20 O4         0.3738    5.1098    2.2754 O.3       1 RES1    0.0000
     21 C11        0.0572    6.4090    1.9547 C.ar      1 RES1    0.0000
     22 C12       -0.8951    6.6497    1.0087 C.ar      1 RES1    0.0000
     23 H7        -1.3171    5.9503    0.5652 H         1 RES1    0.0000
     24 C13       -1.2199    7.9829    0.7273 C.ar      1 RES1    0.0000
     25 H8        -1.8644    8.1644    0.0811 H         1 RES1    0.0000
     26 C14       -0.6102    9.0326    1.3809 C.ar      1 RES1    0.0000
     27 C15        0.4247    8.8285    2.3368 C.ar      1 RES1    0.0000
     28 C16        1.1500    9.8101    3.0678 C.ar      1 RES1    0.0000
     29 H9         0.9455   10.7086    2.9499 H         1 RES1    0.0000
     30 C17        2.1288    9.4636    3.9315 C.ar      1 RES1    0.0000
     31 H10        2.5808   10.1314    4.3947 H         1 RES1    0.0000
     32 C18        2.4855    8.1077    4.1478 C.ar      1 RES1    0.0000
     33 H11        3.1802    7.8809    4.7227 H         1 RES1    0.0000
     34 C19        1.7846    7.1538    3.4929 C.ar      1 RES1    0.0000
     35 C20        0.7601    7.4612    2.5973 C.ar      1 RES1    0.0000
     36 O5         2.1424    5.8105    3.6489 O.3       1 RES1    0.0000
     37 N1        -1.1221   10.3620    1.0443 N.pl3     1 RES1    0.0000
     38 O6        -2.1479   10.4414    0.3944 O.2       1 RES1    0.0000
     39 O7        -0.5379   11.3437    1.4510 O.2       1 RES1    0.0000
@<TRIPOS>BOND
     1    1    2 1
     2    2    3 1
     3    4    2 1
     4    5    2 1
     5    6    5 1
     6    7    5 1
     7    8    7 2
     8    9    7 1
     9   10    9 ar
    10   11   10 ar
    11   12   11 1
    12   13   11 ar
    13   14   13 1
    14   15   13 ar
    15   16   15 1
    16   17    1 1
    17   18   10 1
    18   19   18 1
    19   20    1 1
    20   21   20 1
    21   22   21 ar
    22   23   22 1
    23   24   22 ar
    24   25   24 1
    25   26   24 ar
    26   27   26 ar
    27   28   27 ar
    28   29   28 1
    29   30   28 ar
    30   31   30 1
    31   32   30 ar
    32   33   32 1
    33   34   32 ar
    34   35   21 ar
    35   36    1 1
    36   37   26 1
    37   38   37 2
    38   39   37 2
    39    4    5 1
    40    9   17 ar
    41   15   17 ar
    42   27   35 ar
    43   34   35 ar
    44   34   36 1
@<TRIPOS>SUBSTRUCTURE
     1 RES1 1

@<TRIPOS>CRYSIN
   5.0662   12.6013   12.2982  90.0000  92.5530  90.0000   4 1

