# MOL2 file generated by ConQuest
# Please check atom types

@<TRIPOS>MOLECULE
XIZZEL
   168   174     1
SMALL
NO_CHARGES
****
Generated from CSD

@<TRIPOS>ATOM
      1 N1        16.0351   -7.5049    2.1765 N.pl3     1 RES1    0.0000
      2 O1        15.8017   -6.9531    3.2417 O.2       1 RES1    0.0000
      3 N2         5.8723   -4.6289  -13.4399 N.pl3     1 RES1    0.0000
      4 O2        17.0483   -8.1433    1.9449 O.2       1 RES1    0.0000
      5 N3         9.5875   -1.5487    2.3874 N.3       1 RES1    0.0000
      6 O3         4.8648   -3.9755  -13.2033 O.2       1 RES1    0.0000
      7 N4        13.8232   -7.6725  -14.8824 N.3       1 RES1    0.0000
      8 O4         6.2454   -4.9191  -14.5568 O.2       1 RES1    0.0000
      9 C1        15.0453   -7.3454    1.0930 C.ar      1 RES1    0.0000
     10 C2        13.9169   -6.6279    1.2992 C.ar      1 RES1    0.0000
     11 H1        13.7446   -6.2565    2.1357 H         1 RES1    0.0000
     12 C3        13.0169   -6.4502    0.2613 C.ar      1 RES1    0.0000
     13 H2        12.2383   -5.9609    0.4051 H         1 RES1    0.0000
     14 C4        13.2697   -6.9988   -1.0091 C.ar      1 RES1    0.0000
     15 C5        14.4247   -7.7063   -1.1769 C.ar      1 RES1    0.0000
     16 H3        14.6150   -8.0653   -2.0135 H         1 RES1    0.0000
     17 C6        15.3243   -7.9077   -0.1390 C.ar      1 RES1    0.0000
     18 H4        16.0973   -8.4084   -0.2709 H         1 RES1    0.0000
     19 C7        12.3169   -6.7310   -2.0878 C.2       1 RES1    0.0000
     20 H5        11.5507   -6.2535   -1.8648 H         1 RES1    0.0000
     21 C8        12.4442   -7.1051   -3.3606 C.2       1 RES1    0.0000
     22 H6        13.2148   -7.5780   -3.5763 H         1 RES1    0.0000
     23 C9         6.6475   -5.0880  -12.2797 C.ar      1 RES1    0.0000
     24 C10        7.8897   -5.5990  -12.5026 C.ar      1 RES1    0.0000
     25 H7         8.2097   -5.6912  -13.3703 H         1 RES1    0.0000
     26 C11        8.6802   -5.9859  -11.4144 C.ar      1 RES1    0.0000
     27 H8         9.5335   -6.3278  -11.5558 H         1 RES1    0.0000
     28 C12        8.1879   -5.8577  -10.1152 C.ar      1 RES1    0.0000
     29 C13        6.9030   -5.3683   -9.9499 C.ar      1 RES1    0.0000
     30 H9         6.5504   -5.3118   -9.0893 H         1 RES1    0.0000
     31 C14        6.1285   -4.9628  -11.0165 C.ar      1 RES1    0.0000
     32 H10        5.2776   -4.6143  -10.8823 H         1 RES1    0.0000
     33 C15        9.0654   -6.2227   -8.9863 C.2       1 RES1    0.0000
     34 H11        9.8890   -6.5962   -9.2020 H         1 RES1    0.0000
     35 C16        8.8068   -6.0751   -7.7015 C.2       1 RES1    0.0000
     36 H12        7.9627   -5.7524   -7.4810 H         1 RES1    0.0000
     37 C17       11.5100   -6.8564   -4.4536 C.ar      1 RES1    0.0000
     38 C18       10.3711   -6.1083   -4.3002 C.ar      1 RES1    0.0000
     39 H13       10.1423   -5.8423   -3.4373 H         1 RES1    0.0000
     40 C19        9.5269   -5.7170   -5.3477 C.ar      1 RES1    0.0000
     41 C20        9.7142   -6.3701   -6.5797 C.ar      1 RES1    0.0000
     42 C21       10.8662   -7.1289   -6.7571 C.ar      1 RES1    0.0000
     43 H14       10.9950   -7.5629   -7.5697 H         1 RES1    0.0000
     44 C22       11.8317   -7.2653   -5.7695 C.ar      1 RES1    0.0000
     45 C23       13.2620   -7.5114   -6.2010 C.3       1 RES1    0.0000
     46 H15       13.2645   -7.8927   -7.0927 H         1 RES1    0.0000
     47 H16       13.6705   -8.1529   -5.5993 H         1 RES1    0.0000
     48 C24        8.7323   -4.4402   -5.2350 C.3       1 RES1    0.0000
     49 H17        8.6797   -4.1776   -4.3026 H         1 RES1    0.0000
     50 H18        7.8293   -4.5951   -5.5538 H         1 RES1    0.0000
     51 C25       11.2224   -2.7325   -1.3351 C.ar      1 RES1    0.0000
     52 C26       11.8853   -2.9634   -0.1510 C.ar      1 RES1    0.0000
     53 H19       12.7080   -3.3972   -0.1726 H         1 RES1    0.0000
     54 C27       11.3632   -2.5685    1.0738 C.ar      1 RES1    0.0000
     55 H20       11.8546   -2.7354    1.8457 H         1 RES1    0.0000
     56 C28       10.1523   -1.9448    1.1841 C.ar      1 RES1    0.0000
     57 C29        9.4644   -1.7021   -0.0192 C.ar      1 RES1    0.0000
     58 H21        8.6412   -1.2690    0.0000 H         1 RES1    0.0000
     59 C30        9.9968   -2.0960   -1.2320 C.ar      1 RES1    0.0000
     60 H22        9.5129   -1.9285   -2.0063 H         1 RES1    0.0000
     61 C31       11.7910   -3.1692   -2.6055 C.2       1 RES1    0.0000
     62 H23       12.5909   -3.6409   -2.5648 H         1 RES1    0.0000
     63 C32       11.2770   -2.9612   -3.8256 C.2       1 RES1    0.0000
     64 H24       10.5315   -2.4056   -3.8639 H         1 RES1    0.0000
     65 C33       13.3875   -7.0903  -13.6939 C.ar      1 RES1    0.0000
     66 C34       13.7225   -7.6666  -12.4451 C.ar      1 RES1    0.0000
     67 H25       14.2001   -8.4648  -12.4163 H         1 RES1    0.0000
     68 C35       13.3428   -7.0525  -11.2658 C.ar      1 RES1    0.0000
     69 H26       13.5695   -7.4538  -10.4580 H         1 RES1    0.0000
     70 C36       12.6432   -5.8680  -11.2442 C.ar      1 RES1    0.0000
     71 C37       12.2379   -5.3485  -12.4787 C.ar      1 RES1    0.0000
     72 H27       11.7114   -4.5822  -12.4978 H         1 RES1    0.0000
     73 C38       12.6056   -5.9523  -13.6867 C.ar      1 RES1    0.0000
     74 H28       12.3207   -5.5844  -14.4897 H         1 RES1    0.0000
     75 C39       12.3373   -5.1481  -10.0002 C.2       1 RES1    0.0000
     76 H29       11.6876   -4.4850  -10.0577 H         1 RES1    0.0000
     77 C40       12.8836   -5.3382   -8.8041 C.2       1 RES1    0.0000
     78 H30       13.5739   -5.9594   -8.7562 H         1 RES1    0.0000
     79 C41       11.7412   -3.5000   -5.1175 C.ar      1 RES1    0.0000
     80 C42       12.9074   -4.2464   -5.2182 C.ar      1 RES1    0.0000
     81 H31       13.4894   -4.2675   -4.4919 H         1 RES1    0.0000
     82 C43       13.2406   -4.9638   -6.3640 C.ar      1 RES1    0.0000
     83 C44       12.5177   -4.6746   -7.5529 C.ar      1 RES1    0.0000
     84 C45       11.3544   -3.9260   -7.4402 C.ar      1 RES1    0.0000
     85 H32       10.8729   -3.7349   -8.2144 H         1 RES1    0.0000
     86 C46       10.8772   -3.4482   -6.2297 C.ar      1 RES1    0.0000
     87 C47       14.1162   -6.1816   -6.2010 C.3       1 RES1    0.0000
     88 H33       14.6085   -6.1148   -5.3692 H         1 RES1    0.0000
     89 H34       14.7592   -6.2127   -6.9273 H         1 RES1    0.0000
     90 C48        9.3893   -3.2699   -6.0739 C.3       1 RES1    0.0000
     91 H35        8.9786   -3.2381   -6.9512 H         1 RES1    0.0000
     92 H36        9.2154   -2.4250   -5.6305 H         1 RES1    0.0000
     93 C49       10.2222   -1.9317    3.6338 C.3       1 RES1    0.0000
     94 H37       10.6436   -2.7974    3.5164 H         1 RES1    0.0000
     95 H38        9.5368   -2.0307    4.3146 H         1 RES1    0.0000
     96 C50       11.2756   -0.9394    4.1396 C.3       1 RES1    0.0000
     97 H39       11.8694   -0.7097    3.4085 H         1 RES1    0.0000
     98 H40       10.8306   -0.1262    4.4272 H         1 RES1    0.0000
     99 C51       12.0955   -1.4834    5.2901 C.3       1 RES1    0.0000
    100 H41       11.5009   -1.8486    5.9613 H         1 RES1    0.0000
    101 H42       12.5960   -0.7578    5.6952 H         1 RES1    0.0000
    102 C52       13.0642   -2.5668    4.8299 C.3       1 RES1    0.0000
    103 H43       12.5450   -3.3472    4.5782 H         1 RES1    0.0000
    104 H44       13.5128   -2.2510    4.0317 H         1 RES1    0.0000
    105 C53       14.0757   -2.9880    5.7743 C.3       1 RES1    0.0000
    106 H45       13.6358   -3.3939    6.5366 H         1 RES1    0.0000
    107 H46       14.5460   -2.2018    6.0931 H         1 RES1    0.0000
    108 C54       15.0975   -3.9737    5.2230 C.3       1 RES1    0.0000
    109 H47       15.7646   -4.1514    5.8894 H         1 RES1    0.0000
    110 H48       15.5179   -3.5976    4.4440 H         1 RES1    0.0000
    111 H49       14.6572   -4.7916    4.9833 H         1 RES1    0.0000
    112 C55        8.4703   -0.6492    2.4545 C.3       1 RES1    0.0000
    113 H50        8.5305   -0.0354    1.7066 H         1 RES1    0.0000
    114 H51        8.5569   -0.1227    3.2647 H         1 RES1    0.0000
    115 C56        7.1054   -1.2630    2.4425 C.3       1 RES1    0.0000
    116 H52        6.9760   -1.8108    3.2335 H         1 RES1    0.0000
    117 H53        6.9949   -1.8216    1.6587 H         1 RES1    0.0000
    118 C57        5.9965    0.0010    2.4209 C.3       1 RES1    0.0000
    119 H54        6.0019    0.4098    3.3006 H         1 RES1    0.0000
    120 H55        6.3254    0.6678    1.7953 H         1 RES1    0.0000
    121 C58        4.5885   -0.2781    2.0686 C.3       1 RES1    0.0000
    122 H56        4.1699   -0.8914    2.6942 H         1 RES1    0.0000
    123 H57        4.4963   -0.6168    1.1649 H         1 RES1    0.0000
    124 C59        4.0711    1.0940    2.2052 C.3       1 RES1    0.0000
    125 H58        4.7124    1.6574    1.7450 H         1 RES1    0.0000
    126 H59        3.2620    1.1187    1.6707 H         1 RES1    0.0000
    127 C60        3.7402    1.8133    3.4469 C.3       1 RES1    0.0000
    128 H60        2.9886    2.3913    3.2934 H         1 RES1    0.0000
    129 H61        4.4955    2.3366    3.7249 H         1 RES1    0.0000
    130 H62        3.5202    1.1795    4.1348 H         1 RES1    0.0000
    131 C61       14.7483   -8.7907  -14.8349 C.3       1 RES1    0.0000
    132 H63       14.7520   -9.2277  -15.7002 H         1 RES1    0.0000
    133 H64       14.4279   -9.4337  -14.1829 H         1 RES1    0.0000
    134 C62       16.1919   -8.3983  -14.4729 C.3       1 RES1    0.0000
    135 H65       16.5168   -7.7853  -15.1513 H         1 RES1    0.0000
    136 H66       16.1716   -7.9131  -13.6340 H         1 RES1    0.0000
    137 C63       17.1942   -9.5294  -14.3411 C.3       1 RES1    0.0000
    138 H67       17.2016  -10.0275  -15.1729 H         1 RES1    0.0000
    139 H68       16.8837  -10.1301  -13.6460 H         1 RES1    0.0000
    140 C64       18.6674   -9.1099  -14.0055 C.3       1 RES1    0.0000
    141 H69       18.5594   -8.5263  -13.2385 H         1 RES1    0.0000
    142 H70       18.8995   -8.5204  -14.7390 H         1 RES1    0.0000
    143 C65       20.0510   -9.8656  -13.6939 C.3       1 RES1    0.0000
    144 H71       20.7916   -9.2472  -13.5933 H         1 RES1    0.0000
    145 H72       19.9896  -10.4393  -12.9149 H         1 RES1    0.0000
    146 C66       20.1336  -10.6113  -14.9068 C.3       1 RES1    0.0000
    147 H73       20.4161  -11.5080  -14.7126 H         1 RES1    0.0000
    148 H74       20.7679  -10.1950  -15.4965 H         1 RES1    0.0000
    149 H75       19.2714  -10.6333  -15.3287 H         1 RES1    0.0000
    150 C67       13.8239   -6.9099  -16.1365 C.3       1 RES1    0.0000
    151 H76       14.7240   -6.9108  -16.4984 H         1 RES1    0.0000
    152 H77       13.5864   -5.9896  -15.9423 H         1 RES1    0.0000
    153 C68       12.8788   -7.4428  -17.1863 C.3       1 RES1    0.0000
    154 H78       13.0474   -6.9746  -18.0205 H         1 RES1    0.0000
    155 H79       13.0742   -8.3815  -17.3325 H         1 RES1    0.0000
    156 C69       11.4384   -7.3047  -16.8484 C.3       1 RES1    0.0000
    157 H80       11.3119   -7.5474  -15.9183 H         1 RES1    0.0000
    158 H81       10.9301   -7.9289  -17.3877 H         1 RES1    0.0000
    159 C70       10.8852   -5.8998  -17.0689 C.3       1 RES1    0.0000
    160 H82       11.4798   -5.2595  -16.6494 H         1 RES1    0.0000
    161 H83       10.8765   -5.7131  -18.0205 H         1 RES1    0.0000
    162 C71        9.4811   -5.6996  -16.5176 C.3       1 RES1    0.0000
    163 H84        8.8701   -6.2798  -16.9994 H         1 RES1    0.0000
    164 H85        9.4691   -5.9652  -15.5851 H         1 RES1    0.0000
    165 C72        8.9973   -4.2850  -16.6278 C.3       1 RES1    0.0000
    166 H86        9.5742   -3.7096  -16.1197 H         1 RES1    0.0000
    167 H87        8.1024   -4.2256  -16.2827 H         1 RES1    0.0000
    168 H88        9.0048   -4.0135  -17.5483 H         1 RES1    0.0000
@<TRIPOS>BOND
     1    1    2 2
     2    3    6 2
     3    4    1 2
     4    5   56 1
     5    7   65 1
     6    8    3 2
     7    9    1 1
     8   10    9 ar
     9   11   10 1
    10   12   10 ar
    11   13   12 1
    12   14   12 ar
    13   15   14 ar
    14   16   15 1
    15   17    9 ar
    16   18   17 1
    17   19   14 1
    18   20   19 1
    19   21   19 2
    20   22   21 1
    21   23    3 1
    22   24   23 ar
    23   25   24 1
    24   26   24 ar
    25   27   26 1
    26   28   26 ar
    27   29   28 ar
    28   30   29 1
    29   31   23 ar
    30   32   31 1
    31   33   28 1
    32   34   33 1
    33   35   33 2
    34   36   35 1
    35   37   21 1
    36   38   37 ar
    37   39   38 1
    38   40   38 ar
    39   41   35 1
    40   42   41 ar
    41   43   42 1
    42   44   37 ar
    43   45   44 1
    44   46   45 1
    45   47   45 1
    46   48   40 1
    47   49   48 1
    48   50   48 1
    49   51   52 ar
    50   52   53 1
    51   54   52 ar
    52   55   54 1
    53   56   54 ar
    54   57   56 ar
    55   58   57 1
    56   59   51 ar
    57   60   59 1
    58   61   51 1
    59   62   61 1
    60   63   61 2
    61   64   63 1
    62   65   66 ar
    63   66   67 1
    64   68   66 ar
    65   69   68 1
    66   70   68 ar
    67   71   70 ar
    68   72   71 1
    69   73   65 ar
    70   74   73 1
    71   75   70 1
    72   76   75 1
    73   77   75 2
    74   78   77 1
    75   79   63 1
    76   80   79 ar
    77   81   80 1
    78   82   80 ar
    79   83   77 1
    80   84   83 ar
    81   85   84 1
    82   86   79 ar
    83   87   45 1
    84   88   87 1
    85   89   87 1
    86   90   48 1
    87   91   90 1
    88   92   90 1
    89   93    5 1
    90   94   93 1
    91   95   93 1
    92   96   93 1
    93   97   96 1
    94   98   96 1
    95   99   96 1
    96  100   99 1
    97  101   99 1
    98  102   99 1
    99  103  102 1
   100  104  102 1
   101  105  102 1
   102  106  105 1
   103  107  105 1
   104  108  105 1
   105  109  108 1
   106  110  108 1
   107  111  108 1
   108  112    5 1
   109  113  112 1
   110  114  112 1
   111  115  112 1
   112  116  115 1
   113  117  115 1
   114  118  115 1
   115  119  118 1
   116  120  118 1
   117  121  118 1
   118  122  121 1
   119  123  121 1
   120  124  121 1
   121  125  124 1
   122  126  124 1
   123  127  124 1
   124  128  127 1
   125  129  127 1
   126  130  127 1
   127  131    7 1
   128  132  131 1
   129  133  131 1
   130  134  131 1
   131  135  134 1
   132  136  134 1
   133  137  134 1
   134  138  137 1
   135  139  137 1
   136  140  137 1
   137  141  140 1
   138  142  140 1
   139  143  140 1
   140  144  143 1
   141  145  143 1
   142  146  143 1
   143  147  146 1
   144  148  146 1
   145  149  146 1
   146  150    7 1
   147  151  150 1
   148  152  150 1
   149  153  150 1
   150  154  153 1
   151  155  153 1
   152  156  153 1
   153  157  156 1
   154  158  156 1
   155  159  156 1
   156  160  159 1
   157  161  159 1
   158  162  159 1
   159  163  162 1
   160  164  162 1
   161  165  162 1
   162  166  165 1
   163  167  165 1
   164  168  165 1
   165   15   17 ar
   166   29   31 ar
   167   40   41 ar
   168   42   44 ar
   169   57   59 ar
   170   71   73 ar
   171   82   87 1
   172   82   83 ar
   173   84   86 ar
   174   86   90 1
@<TRIPOS>SUBSTRUCTURE
     1 RES1 1

@<TRIPOS>CRYSIN
  10.2010   12.5080   24.7790 101.8040  97.2210  96.4630   2 1

