# MOL2 file generated by ConQuest
# Please check atom types

@<TRIPOS>MOLECULE
XOBQIP
    32    34     1
SMALL
NO_CHARGES
****
Generated from CSD

@<TRIPOS>ATOM
      1 O1        14.5078   -1.2426    6.8684 O.3       1 RES1    0.0000
      2 O2        11.4271    0.2109    3.7733 O.3       1 RES1    0.0000
      3 O3         8.9016    1.1059    1.4705 O.2       1 RES1    0.0000
      4 O4        11.0465    0.4530    1.2804 O.3       1 RES1    0.0000
      5 N1        15.2568   -0.7947    5.7300 N.2       1 RES1    0.0000
      6 N2        12.2643   -1.4520    7.4586 N.ar      1 RES1    0.0000
      7 N3        10.7127   -0.6900    5.7680 N.ar      1 RES1    0.0000
      8 C1        13.1966   -1.0957    6.5803 C.ar      1 RES1    0.0000
      9 C2        13.0513   -0.5686    5.3079 C.ar      1 RES1    0.0000
     10 C3        14.3902   -0.3934    4.8197 C.2       1 RES1    0.0000
     11 C4        11.0482   -1.2317    6.9644 C.ar      1 RES1    0.0000
     12 C5        11.6969   -0.3606    4.9537 C.ar      1 RES1    0.0000
     13 C6        10.0432    0.4283    3.4232 C.3       1 RES1    0.0000
     14 C7         9.9342    0.7126    1.9587 C.2       1 RES1    0.0000
     15 C8        10.9825    0.6784   -0.1581 C.3       1 RES1    0.0000
     16 C9        14.9230    0.0909    3.5212 C.ar      1 RES1    0.0000
     17 C10       14.1480    0.0909    2.3708 C.ar      1 RES1    0.0000
     18 C11       14.6860    0.5046    1.1664 C.ar      1 RES1    0.0000
     19 C12       16.0024    0.9001    1.0804 C.ar      1 RES1    0.0000
     20 C13       16.7929    0.8747    2.2208 C.ar      1 RES1    0.0000
     21 C14       16.2618    0.4792    3.4312 C.ar      1 RES1    0.0000
     22 H1        10.3217   -1.4869    7.5226 H         1 RES1    0.0000
     23 H2         9.6834    1.1917    3.9394 H         1 RES1    0.0000
     24 H3         9.5122   -0.3759    3.6473 H         1 RES1    0.0000
     25 H4        11.7938    0.3257   -0.5802 H         1 RES1    0.0000
     26 H5        10.9133    1.6403   -0.3341 H         1 RES1    0.0000
     27 H6        10.1972    0.2218   -0.5242 H         1 RES1    0.0000
     28 H7        13.2416   -0.1941    2.4108 H         1 RES1    0.0000
     29 H8        14.1411    0.5162    0.3881 H         1 RES1    0.0000
     30 H9        16.3656    1.1874    0.2521 H         1 RES1    0.0000
     31 H10       17.7062    1.1314    2.1688 H         1 RES1    0.0000
     32 H11       16.8102    0.4712    4.2075 H         1 RES1    0.0000
@<TRIPOS>BOND
     1    1    5 1
     2    2   12 1
     3    3   14 2
     4    4   14 1
     5    5   10 2
     6    6    8 ar
     7    7   11 ar
     8    8    1 1
     9    9    8 ar
    10   10    9 1
    11   11    6 ar
    12   12    7 ar
    13   13    2 1
    14   14   13 1
    15   15    4 1
    16   16   10 1
    17   17   16 ar
    18   18   17 ar
    19   19   18 ar
    20   20   19 ar
    21   21   16 ar
    22   22   11 1
    23   23   13 1
    24   24   13 1
    25   25   15 1
    26   26   15 1
    27   27   15 1
    28   28   17 1
    29   29   18 1
    30   30   19 1
    31   31   20 1
    32   32   21 1
    33    9   12 ar
    34   20   21 ar
@<TRIPOS>SUBSTRUCTURE
     1 RES1 1

@<TRIPOS>CRYSIN
  17.2980    7.2710   20.0070  90.0000  90.0000  90.0000  61 1

