# MOL2 file generated by ConQuest
# Please check atom types

@<TRIPOS>MOLECULE
XOCBUO
    87    87     3
SMALL
USER_CHARGES
****
Generated from CSD

@<TRIPOS>ATOM
      1 N1         3.0626    1.0385   -1.6497 N.3       1 RES1    0.0000
      2 N2         3.9176    1.4825   -2.6065 N.2       1 RES1    0.0000
      3 C1         4.9500    1.8941   -1.9169 C.2       1 RES1    0.0000
      4 C2         4.7975    1.7394   -0.5398 C.2       1 RES1    0.0000
      5 C3         3.5419    1.1552   -0.3873 C.2       1 RES1    0.0000
      6 N3         6.1560    2.2694   -2.6384 N.pl3     1 RES1    0.0000
      7 O1         6.0585    3.0570   -3.5522 O.2       1 RES1    0.0000
      8 O2         7.1847    1.7045   -2.2804 O.2       1 RES1    0.0000
      9 N4         5.6319    2.2469    0.4910 N.pl3     1 RES1    0.0000
     10 O3         6.5785    2.9565    0.1553 O.2       1 RES1    0.0000
     11 O4         5.3604    1.9811    1.6497 O.2       1 RES1    0.0000
     12 N5         2.7494    0.7900    0.6726 N.2       1 RES1    0.0000
     13 N6         3.3474    0.1818    1.6089 N.1       1 RES1    1.0000
     14 N7         3.6973   -0.3915    2.5022 N.2       1 RES1   -1.0000
     15 N8         1.8628    0.4263   -1.9829 N.3       1 RES1    0.0000
     16 H1         1.3963    0.9749   -2.3594 H         1 RES1    0.0000
     17 C4         2.0683   -0.7784   -2.7850 C.3       1 RES1    0.0000
     18 H2         3.0210   -1.0453   -2.7559 H         1 RES1    0.0000
     19 H3         1.8244   -0.6012   -3.7291 H         1 RES1    0.0000
     20 C5         1.1995   -1.8926   -2.2244 C.3       1 RES1    0.0000
     21 N9         1.2253   -1.9150   -0.7103 N.pl3     1 RES1    0.0000
     22 O5         2.3463   -1.9668   -0.2398 O.2       1 RES1    0.0000
     23 O6         0.1772   -1.8755   -0.1156 O.2       1 RES1    0.0000
     24 N10        1.6479   -3.2636   -2.6963 N.pl3     1 RES1    0.0000
     25 O7         1.5775   -4.1789   -1.9031 O.2       1 RES1    0.0000
     26 O8         2.0122   -3.3132   -3.8480 O.2       1 RES1    0.0000
     27 N11       -0.2552   -1.7525   -2.6508 N.pl3     1 RES1    0.0000
     28 O9        -0.6518   -0.6166   -2.7587 O.2       1 RES1    0.0000
     29 O10       -0.8857   -2.7679   -2.8366 O.2       1 RES1    0.0000
     30 N12        9.7649    2.7011    2.5918 N.3       2 RES2    0.0000
     31 N13       10.6308    2.5255    1.5629 N.2       2 RES2    0.0000
     32 C6        11.6494    1.9212    2.1288 C.2       2 RES2    0.0000
     33 C7        11.4756    1.7154    3.4979 C.2       2 RES2    0.0000
     34 C8        10.2138    2.2346    3.7776 C.2       2 RES2    0.0000
     35 N14       12.8093    1.6527    1.2948 N.pl3     2 RES2    0.0000
     36 O11       12.6305    1.1823    0.1938 O.2       2 RES2    0.0000
     37 O12       13.8856    1.9289    1.7639 O.2       2 RES2    0.0000
     38 N15       12.3956    1.1304    4.4186 N.pl3     2 RES2    0.0000
     39 O13       13.2641    0.3892    3.9789 O.2       2 RES2    0.0000
     40 O14       12.2848    1.4041    5.6042 O.2       2 RES2    0.0000
     41 N16        9.3712    2.3437    4.8517 N.2       2 RES2    0.0000
     42 N17        9.6883    1.7471    5.9147 N.1       2 RES2    1.0000
     43 N18        9.7798    1.2627    6.9147 N.2       2 RES2   -1.0000
     44 N19        8.5683    3.3851    2.4080 N.3       2 RES2    0.0000
     45 H4         8.0517    2.9325    1.9352 H         2 RES2    0.0000
     46 C9         8.7459    4.7144    1.8338 C.3       2 RES2    0.0000
     47 H5         8.1931    4.7980    1.0175 H         2 RES2    0.0000
     48 H6         9.6946    4.8390    1.5776 H         2 RES2    0.0000
     49 C10        8.3452    5.7868    2.8274 C.3       2 RES2    0.0000
     50 N20        9.3526    5.9988    3.9514 N.pl3     2 RES2    0.0000
     51 O15        9.4482    7.1284    4.3970 O.2       2 RES2    0.0000
     52 O16        9.9674    5.0289    4.3077 O.2       2 RES2    0.0000
     53 N21        8.2285    7.1401    2.1507 N.pl3     2 RES2    0.0000
     54 O17        7.2822    7.8364    2.4210 O.2       2 RES2    0.0000
     55 O18        9.1478    7.4117    1.4104 O.2       2 RES2    0.0000
     56 N22        7.0095    5.4680    3.4687 N.pl3     2 RES2    0.0000
     57 O19        6.1488    5.1384    2.6744 O.2       2 RES2    0.0000
     58 O20        6.9150    5.5616    4.6668 O.2       2 RES2    0.0000
     59 N23        2.8789   11.7670    6.5377 N.3       3 RES3    0.0000
     60 N24        1.8562   11.9435    7.4121 N.2       3 RES3    0.0000
     61 C11        0.9122   12.4549    6.6599 C.2       3 RES3    0.0000
     62 C12        1.2936   12.6259    5.3222 C.2       3 RES3    0.0000
     63 C13        2.6031   12.1547    5.2728 C.2       3 RES3    0.0000
     64 N25       -0.4083   12.6406    7.2660 N.pl3     3 RES3    0.0000
     65 O21       -1.3422   12.0804    6.7198 O.2       3 RES3    0.0000
     66 O22       -0.4760   13.3052    8.2758 O.2       3 RES3    0.0000
     67 N26        0.5821   13.3124    4.3036 N.pl3     3 RES3    0.0000
     68 O23       -0.4720   13.8694    4.6171 O.2       3 RES3    0.0000
     69 O24        1.0586   13.3280    3.1776 O.2       3 RES3    0.0000
     70 N27        3.6296   12.0804    4.3704 N.2       3 RES3    0.0000
     71 N28        3.3742   11.9729    3.1405 N.1       3 RES3    1.0000
     72 N29        3.3860   11.8576    2.0303 N.2       3 RES3   -1.0000
     73 N30        4.0893   11.2161    6.9380 N.3       3 RES3    0.0000
     74 H7         4.5456   11.7686    7.3667 H         3 RES3    0.0000
     75 C14        3.9485    9.9132    7.5638 C.3       3 RES3    0.0000
     76 H8         2.9951    9.6470    7.5774 H         3 RES3    0.0000
     77 H9         4.2725    9.9518    8.4979 H         3 RES3    0.0000
     78 C15        4.7564    8.8949    6.7800 C.3       3 RES3    0.0000
     79 N31        6.2491    8.9615    7.0722 N.pl3     3 RES3    0.0000
     80 O25        6.8845    7.9355    6.9624 O.2       3 RES3    0.0000
     81 O26        6.6741   10.0583    7.3547 O.2       3 RES3    0.0000
     82 N32        4.5940    9.1100    5.2853 N.pl3     3 RES3    0.0000
     83 O27        3.4303    9.1495    4.9177 O.2       3 RES3    0.0000
     84 O28        5.5850    9.2423    4.6171 O.2       3 RES3    0.0000
     85 N33        4.3275    7.4720    7.0797 N.pl3     3 RES3    0.0000
     86 O29        4.2619    6.6952    6.1548 O.2       3 RES3    0.0000
     87 O30        4.1066    7.2461    8.2472 O.2       3 RES3    0.0000
@<TRIPOS>BOND
     1    1    2 1
     2    2    3 2
     3    3    4 1
     4    4    5 2
     5    5    1 1
     6    6    3 1
     7    7    6 2
     8    8    6 2
     9    9    4 1
    10   10    9 2
    11   11    9 2
    12   12    5 1
    13   13   12 2
    14   14   13 2
    15   15    1 1
    16   16   15 1
    17   17   15 1
    18   18   17 1
    19   19   17 1
    20   20   17 1
    21   21   20 1
    22   22   21 2
    23   23   21 2
    24   24   20 1
    25   25   24 2
    26   26   24 2
    27   27   20 1
    28   28   27 2
    29   29   27 2
    30   30   31 1
    31   31   32 2
    32   32   33 1
    33   33   34 2
    34   34   30 1
    35   35   32 1
    36   36   35 2
    37   37   35 2
    38   38   33 1
    39   39   38 2
    40   40   38 2
    41   41   34 1
    42   42   41 2
    43   43   42 2
    44   44   30 1
    45   45   44 1
    46   46   44 1
    47   47   46 1
    48   48   46 1
    49   49   46 1
    50   50   49 1
    51   51   50 2
    52   52   50 2
    53   53   49 1
    54   54   53 2
    55   55   53 2
    56   56   49 1
    57   57   56 2
    58   58   56 2
    59   59   60 1
    60   60   61 2
    61   61   62 1
    62   62   63 2
    63   63   59 1
    64   64   61 1
    65   65   64 2
    66   66   64 2
    67   67   62 1
    68   68   67 2
    69   69   67 2
    70   70   63 1
    71   71   70 2
    72   72   71 2
    73   73   59 1
    74   74   73 1
    75   75   73 1
    76   76   75 1
    77   77   75 1
    78   78   75 1
    79   79   78 1
    80   80   79 2
    81   81   79 2
    82   82   78 1
    83   83   82 2
    84   84   82 2
    85   85   78 1
    86   86   85 2
    87   87   85 2
@<TRIPOS>SUBSTRUCTURE
     1 RES1 1
     2 RES2 30
     3 RES3 59

@<TRIPOS>CRYSIN
  18.9685    7.7374   27.7321  90.0000  91.2480  90.0000  14 1

