# MOL2 file generated by ConQuest
# Please check atom types

@<TRIPOS>MOLECULE
XOCCAV
    17    17     1
SMALL
NO_CHARGES
****
Generated from CSD

@<TRIPOS>ATOM
      1 N1         2.0400    1.6885    5.6732 N.3       1 RES1    0.0000
      2 N2         1.0920    1.1912    6.5269 N.2       1 RES1    0.0000
      3 C1         1.7920    0.5575    7.4267 C.2       1 RES1    0.0000
      4 C2         3.1799    0.5993    7.1816 C.2       1 RES1    0.0000
      5 C3         3.3098    1.3734    6.0177 C.2       1 RES1    0.0000
      6 N3         1.7129    2.4419    4.5519 N.3       1 RES1    0.0000
      7 H1         1.3757    1.8720    3.9574 H         1 RES1    0.0000
      8 H2         1.0746    3.0097    4.8095 H         1 RES1    0.0000
      9 N4         1.0645   -0.1588    8.4545 N.pl3     1 RES1    0.0000
     10 O1         0.1024    0.4049    8.9565 O.2       1 RES1    0.0000
     11 O2         1.4362   -1.2898    8.7298 O.2       1 RES1    0.0000
     12 N5         4.2386    0.1130    7.9623 N.pl3     1 RES1    0.0000
     13 O3         4.0006   -0.3017    9.0941 O.2       1 RES1    0.0000
     14 O4         5.3704    0.1348    7.4564 O.2       1 RES1    0.0000
     15 N6         4.3734    1.8037    5.3416 N.3       1 RES1    0.0000
     16 H3         5.1609    1.6138    5.6120 H         1 RES1    0.0000
     17 H4         4.2349    2.2754    4.6370 H         1 RES1    0.0000
@<TRIPOS>BOND
     1    1    2 1
     2    2    3 2
     3    3    4 1
     4    4    5 2
     5    5    1 1
     6    6    1 1
     7    7    6 1
     8    8    6 1
     9    9    3 1
    10   10    9 2
    11   11    9 2
    12   12    4 1
    13   13   12 2
    14   14   12 2
    15   15    5 1
    16   16   15 1
    17   17   15 1
@<TRIPOS>SUBSTRUCTURE
     1 RES1 1

@<TRIPOS>CRYSIN
  12.7023    8.0688   13.0694  90.0000  90.0000  90.0000  61 1

