# MOL2 file generated by ConQuest
# Please check atom types

@<TRIPOS>MOLECULE
XOCROX
   100   102     2
SMALL
NO_CHARGES
****
Generated from CSD

@<TRIPOS>ATOM
      1 O1         8.8639    3.3466    9.9723 O.2       1 RES1    0.0000
      2 O2         7.6396    1.1229   12.1653 O.3       1 RES1    0.0000
      3 H1         7.7052    0.8362   11.3760 H         1 RES1    0.0000
      4 O3         1.9572    7.6371   11.0351 O.2       1 RES1    0.0000
      5 O4         0.9150    6.1549   12.2002 O.2       1 RES1    0.0000
      6 N1         7.6815    3.9339   11.8114 N.am      1 RES1    0.0000
      7 N2         1.8870    6.5390   11.5763 N.pl3     1 RES1    0.0000
      8 C1         8.8179    3.9006   11.0806 C.2       1 RES1    0.0000
      9 C2        10.0408    4.5133   11.7043 C.3       1 RES1    0.0000
     10 H2         9.8133    5.4154   12.0407 H         1 RES1    0.0000
     11 H3        10.7393    4.6165   11.0104 H         1 RES1    0.0000
     12 C3        10.6026    3.6758   12.8578 C.3       1 RES1    0.0000
     13 H4        11.5726    3.8555   12.9309 H         1 RES1    0.0000
     14 H5        10.4948    2.7182   12.6318 H         1 RES1    0.0000
     15 C4         9.9530    3.9306   14.2309 C.3       1 RES1    0.0000
     16 H6        10.0646    4.9066   14.4194 H         1 RES1    0.0000
     17 C5         8.4416    3.6608   14.2048 C.3       1 RES1    0.0000
     18 H7         8.2985    2.6986   14.0229 H         1 RES1    0.0000
     19 H8         8.0743    3.8509   15.1031 H         1 RES1    0.0000
     20 C6         7.6500    4.4702   13.1780 C.3       1 RES1    0.0000
     21 H9         6.7067    4.5192   13.4745 H         1 RES1    0.0000
     22 H10        8.0064    5.3932   13.1612 H         1 RES1    0.0000
     23 C7         6.5258    3.1532   11.3641 C.3       1 RES1    0.0000
     24 H11        6.6909    2.9004   10.4098 H         1 RES1    0.0000
     25 C8         6.4246    1.8513   12.1691 C.3       1 RES1    0.0000
     26 H12        6.1769    2.0656   13.1042 H         1 RES1    0.0000
     27 H13        5.7059    1.2876   11.7867 H         1 RES1    0.0000
     28 C9        10.6644    3.1715   15.3922 C.3       1 RES1    0.0000
     29 C10       10.5125    1.6410   15.2828 C.3       1 RES1    0.0000
     30 H14       10.9273    1.3300   14.4502 H         1 RES1    0.0000
     31 H15        9.5619    1.4071   15.2811 H         1 RES1    0.0000
     32 H16       10.9522    1.2137   16.0479 H         1 RES1    0.0000
     33 C11       10.0469    3.6105   16.7397 C.3       1 RES1    0.0000
     34 H17       10.5876    3.2584   17.4770 H         1 RES1    0.0000
     35 H18        9.1340    3.2617   16.8099 H         1 RES1    0.0000
     36 H19       10.0284    4.5891   16.7862 H         1 RES1    0.0000
     37 C12       12.1420    3.5080   15.4271 C.3       1 RES1    0.0000
     38 H20       12.5938    3.0781   14.6710 H         1 RES1    0.0000
     39 H21       12.5304    3.1839   16.2663 H         1 RES1    0.0000
     40 H22       12.2564    4.4793   15.3666 H         1 RES1    0.0000
     41 C13        5.2648    3.9972   11.3947 C.ar      1 RES1    0.0000
     42 C14        5.2535    5.2084   10.7063 C.ar      1 RES1    0.0000
     43 H23        6.0206    5.4703   10.2127 H         1 RES1    0.0000
     44 C15        4.1445    6.0367   10.7300 C.ar      1 RES1    0.0000
     45 H24        4.1390    6.8578   10.2531 H         1 RES1    0.0000
     46 C16        3.0418    5.6389   11.4676 C.ar      1 RES1    0.0000
     47 C17        3.0078    4.4310   12.1361 C.ar      1 RES1    0.0000
     48 H25        2.2326    4.1730   12.6223 H         1 RES1    0.0000
     49 C18        4.1148    3.5994   12.0903 C.ar      1 RES1    0.0000
     50 H26        4.0938    2.7587   12.5321 H         1 RES1    0.0000
     51 O5         8.1721    0.1228    9.6829 O.2       2 RES2    0.0000
     52 O6         9.3969   -2.2531    7.4803 O.3       2 RES2    0.0000
     53 H27        9.1929   -2.4693    8.2613 H         2 RES2    0.0000
     54 O7        15.0944    4.2409    8.6687 O.2       2 RES2    0.0000
     55 O8        16.1950    2.7201    7.5909 O.2       2 RES2    0.0000
     56 N3         9.3803    0.5736    7.8169 N.am      2 RES2    0.0000
     57 N4        15.1777    3.1323    8.1690 N.pl3     2 RES2    0.0000
     58 C19        8.2568    0.6395    8.5427 C.2       2 RES2    0.0000
     59 C20        7.0638    1.3261    7.9264 C.3       2 RES2    0.0000
     60 H28        7.3430    2.2132    7.5871 H         2 RES2    0.0000
     61 H29        6.3807    1.4731    8.6269 H         2 RES2    0.0000
     62 C21        6.4293    0.5193    6.7655 C.3       2 RES2    0.0000
     63 H30        6.4373   -0.4396    7.0103 H         2 RES2    0.0000
     64 H31        5.4817    0.7944    6.6732 H         2 RES2    0.0000
     65 C22        7.1186    0.6813    5.3960 C.3       2 RES2    0.0000
     66 H32        7.1188    1.6606    5.1895 H         2 RES2    0.0000
     67 C23        8.5826    0.2456    5.4539 C.3       2 RES2    0.0000
     68 H33        8.9732    0.3227    4.5485 H         2 RES2    0.0000
     69 H34        8.6200   -0.7081    5.7165 H         2 RES2    0.0000
     70 C24        9.4374    1.0609    6.4301 C.3       2 RES2    0.0000
     71 H35       10.3793    1.0413    6.1224 H         2 RES2    0.0000
     72 H36        9.1340    2.0029    6.4097 H         2 RES2    0.0000
     73 C25       10.5174   -0.2234    8.2922 C.3       2 RES2    0.0000
     74 H37       10.3295   -0.4697    9.2442 H         2 RES2    0.0000
     75 C26       10.6123   -1.5293    7.4960 C.3       2 RES2    0.0000
     76 H38       10.8752   -1.3209    6.5640 H         2 RES2    0.0000
     77 H39       11.3213   -2.0969    7.8910 H         2 RES2    0.0000
     78 C27        6.3381   -0.0176    4.2368 C.3       2 RES2    0.0000
     79 C28        6.2539   -1.5430    4.4535 C.3       2 RES2    0.0000
     80 H40        5.8055   -1.9578    3.6867 H         2 RES2    0.0000
     81 H41        5.7444   -1.7292    5.2702 H         2 RES2    0.0000
     82 H42        7.1573   -1.9108    4.5414 H         2 RES2    0.0000
     83 C29        7.0156    0.2469    2.9041 C.3       2 RES2    0.0000
     84 H43        6.4282   -0.0457    2.1745 H         2 RES2    0.0000
     85 H44        7.8592   -0.2489    2.8630 H         2 RES2    0.0000
     86 H45        7.1958    1.2059    2.8131 H         2 RES2    0.0000
     87 C30        4.9103    0.5651    4.1497 C.3       2 RES2    0.0000
     88 H46        4.4651    0.2215    3.3473 H         2 RES2    0.0000
     89 H47        4.9587    1.5430    4.1022 H         2 RES2    0.0000
     90 H48        4.3994    0.3011    4.9449 H         2 RES2    0.0000
     91 C31       11.7886    0.6036    8.2848 C.ar      2 RES2    0.0000
     92 C32       11.7967    1.8180    8.9790 C.ar      2 RES2    0.0000
     93 H49       11.0269    2.0799    9.4721 H         2 RES2    0.0000
     94 C33       12.9092    2.6437    8.9600 C.ar      2 RES2    0.0000
     95 H50       12.9108    3.4681    9.4317 H         2 RES2    0.0000
     96 C34       14.0134    2.2367    8.2386 C.ar      2 RES2    0.0000
     97 C35       14.0703    1.0341    7.5774 C.ar      2 RES2    0.0000
     98 H51       14.8580    0.7689    7.1147 H         2 RES2    0.0000
     99 C36       12.9406    0.2090    7.6014 C.ar      2 RES2    0.0000
    100 H52       12.9583   -0.6265    7.1480 H         2 RES2    0.0000
@<TRIPOS>BOND
     1    1    8 2
     2    2    3 1
     3    4    7 2
     4    5    7 2
     5    6    8 1
     6    7   46 1
     7    8    9 1
     8    9   10 1
     9   11    9 1
    10   12    9 1
    11   13   12 1
    12   14   12 1
    13   15   12 1
    14   16   15 1
    15   17   15 1
    16   18   17 1
    17   19   17 1
    18   20    6 1
    19   21   20 1
    20   22   20 1
    21   23    6 1
    22   24   23 1
    23   25    2 1
    24   26   25 1
    25   27   25 1
    26   28   15 1
    27   29   28 1
    28   30   29 1
    29   31   29 1
    30   32   29 1
    31   33   28 1
    32   34   33 1
    33   35   33 1
    34   36   33 1
    35   37   28 1
    36   38   37 1
    37   39   37 1
    38   40   37 1
    39   41   23 1
    40   42   41 ar
    41   43   42 1
    42   44   42 ar
    43   45   44 1
    44   46   44 ar
    45   47   46 ar
    46   48   47 1
    47   49   41 ar
    48   50   49 1
    49   51   58 2
    50   52   53 1
    51   54   57 2
    52   55   57 2
    53   56   58 1
    54   57   96 1
    55   58   59 1
    56   59   60 1
    57   61   59 1
    58   62   59 1
    59   63   62 1
    60   64   62 1
    61   65   62 1
    62   66   65 1
    63   67   65 1
    64   68   67 1
    65   69   67 1
    66   70   56 1
    67   71   70 1
    68   72   70 1
    69   73   56 1
    70   74   73 1
    71   75   52 1
    72   76   75 1
    73   77   75 1
    74   78   65 1
    75   79   78 1
    76   80   79 1
    77   81   79 1
    78   82   79 1
    79   83   78 1
    80   84   83 1
    81   85   83 1
    82   86   83 1
    83   87   78 1
    84   88   87 1
    85   89   87 1
    86   90   87 1
    87   91   73 1
    88   92   91 ar
    89   93   92 1
    90   94   92 ar
    91   95   94 1
    92   96   94 ar
    93   97   96 ar
    94   98   97 1
    95   99   91 ar
    96  100   99 1
    97   17   20 1
    98   23   25 1
    99   47   49 ar
   100   67   70 1
   101   73   75 1
   102   97   99 ar
@<TRIPOS>SUBSTRUCTURE
     1 RES1 1
     2 RES2 51

@<TRIPOS>CRYSIN
  22.6425    6.5325   23.7395  90.0000  90.0000  90.0000  29 1

