# MOL2 file generated by ConQuest
# Please check atom types

@<TRIPOS>MOLECULE
XOCYOE
    30    30     1
SMALL
NO_CHARGES
****
Generated from CSD

@<TRIPOS>ATOM
      1 O1        -1.6365    4.9601   -2.0464 O.2       1 RES1    0.0000
      2 O2        -1.7201    3.3372   -3.4775 O.2       1 RES1    0.0000
      3 O3         2.3146    2.5122    3.5363 O.2       1 RES1    0.0000
      4 O4         0.6926    0.9613    3.7389 O.3       1 RES1    0.0000
      5 O5         3.8581   -1.2552    1.8405 O.2       1 RES1    0.0000
      6 O6         3.4582   -0.4676    3.9071 O.3       1 RES1    0.0000
      7 N1        -1.3502    3.8238   -2.4128 N.pl3     1 RES1    0.0000
      8 C1         2.0394    0.6116    0.8252 C.2       1 RES1    0.0000
      9 C2         2.3452    0.5738    2.1349 C.2       1 RES1    0.0000
     10 C3         1.1212    1.4708    0.0825 C.ar      1 RES1    0.0000
     11 C4         0.5270    2.6413    0.5792 C.ar      1 RES1    0.0000
     12 C5         0.8564    1.0834   -1.2413 C.ar      1 RES1    0.0000
     13 C6         0.0291    1.8362   -2.0566 C.ar      1 RES1    0.0000
     14 C7        -0.2910    3.4153   -0.2331 C.ar      1 RES1    0.0000
     15 C8        -0.5224    2.9978   -1.5364 C.ar      1 RES1    0.0000
     16 C9         1.8003    1.4728    3.1986 C.2       1 RES1    0.0000
     17 C10        0.0993    1.7186    4.8199 C.3       1 RES1    0.0000
     18 C11        3.3009   -0.4770    2.5796 C.2       1 RES1    0.0000
     19 C12        4.3787   -1.4518    4.4269 C.3       1 RES1    0.0000
     20 H1         2.5377   -0.1303    0.2243 H         1 RES1    0.0000
     21 H2         0.7332    3.0048    1.5783 H         1 RES1    0.0000
     22 H3         1.3076    0.1776   -1.6272 H         1 RES1    0.0000
     23 H4        -0.1810    1.5276   -3.0733 H         1 RES1    0.0000
     24 H5        -0.7122    4.3478    0.1218 H         1 RES1    0.0000
     25 H6        -0.5536    2.4495    4.4003 H         1 RES1    0.0000
     26 H7         0.8769    2.1725    5.3905 H         1 RES1    0.0000
     27 H8        -0.4547    1.0020    5.3819 H         1 RES1    0.0000
     28 H9         4.2130   -1.4597    5.4799 H         1 RES1    0.0000
     29 H10        4.1583   -2.4037    4.0006 H         1 RES1    0.0000
     30 H11        5.3720   -1.1341    4.2059 H         1 RES1    0.0000
@<TRIPOS>BOND
     1    1    7 2
     2    2    7 2
     3    3   16 2
     4    4   16 1
     5    5   18 2
     6    6   18 1
     7    7   15 1
     8    8    9 2
     9    9   16 1
    10   10    8 1
    11   11   10 ar
    12   12   10 ar
    13   13   12 ar
    14   14   11 ar
    15   15   13 ar
    16   17    4 1
    17   18    9 1
    18   19    6 1
    19   20    8 1
    20   21   11 1
    21   22   12 1
    22   23   13 1
    23   24   14 1
    24   25   17 1
    25   26   17 1
    26   27   17 1
    27   28   19 1
    28   29   19 1
    29   30   19 1
    30   14   15 ar
@<TRIPOS>SUBSTRUCTURE
     1 RES1 1

@<TRIPOS>CRYSIN
   7.7690    7.8650   10.8110  87.6100  85.4100  62.4300   2 1

