# MOL2 file generated by ConQuest
# Please check atom types

@<TRIPOS>MOLECULE
XOCZUL
    46    49     1
SMALL
USER_CHARGES
****
Generated from CSD

@<TRIPOS>ATOM
      1 C1        -3.5799    9.9491    0.6993 C.3       1 RES1    0.0000
      2 H1        -3.9553   10.8285    0.9902 H         1 RES1    0.0000
      3 N1        -3.5622    8.9793    1.7933 N.3       1 RES1    0.0000
      4 N2        -2.9412    9.2757    2.9762 N.pl3     1 RES1    0.0000
      5 O1        -2.6516   10.4466    3.1628 O.2       1 RES1    0.0000
      6 O2        -2.7772    8.3462    3.7484 O.2       1 RES1    0.0000
      7 C2        -3.5105    7.6143    1.2761 C.3       1 RES1    0.0000
      8 H2        -4.0342    6.9911    1.8561 H         1 RES1    0.0000
      9 N3        -2.1630    7.1365    1.0913 N.am      1 RES1    0.0000
     10 C3        -1.5751    6.1109    1.8026 C.2       1 RES1    0.0000
     11 O3        -0.4041    5.8471    1.6560 O.2       1 RES1    0.0000
     12 C4        -2.4687    5.3299    2.7416 C.3       1 RES1    0.0000
     13 H3        -2.6556    5.8810    3.5429 H         1 RES1    0.0000
     14 H4        -3.3311    5.1474    2.2904 H         1 RES1    0.0000
     15 N4        -1.8719    4.0646    3.1607 N.2       1 RES1    0.0000
     16 N5        -0.7899    4.1644    3.7470 N.1       1 RES1    1.0000
     17 N6         0.1971    4.0902    4.2854 N.2       1 RES1   -1.0000
     18 C5        -1.3516    7.9085    0.1863 C.3       1 RES1    0.0000
     19 H5        -0.4545    7.4798    0.0792 H         1 RES1    0.0000
     20 N7        -1.1975    9.2879    0.6955 N.3       1 RES1    0.0000
     21 N8         0.1492    9.8003    0.5770 N.pl3     1 RES1    0.0000
     22 O4         0.2602   10.9959    0.7202 O.2       1 RES1    0.0000
     23 O5         1.0321    8.9923    0.4257 O.2       1 RES1    0.0000
     24 C6        -2.1749   10.1157   -0.0033 C.3       1 RES1    0.0000
     25 H6        -1.8903   11.0734   -0.0410 H         1 RES1    0.0000
     26 N9        -2.1373    9.4873   -1.3198 N.3       1 RES1    0.0000
     27 N10       -2.7864   10.0753   -2.3725 N.pl3     1 RES1    0.0000
     28 O6        -3.1563   11.2225   -2.2124 O.2       1 RES1    0.0000
     29 O7        -2.8899    9.4049   -3.3883 O.2       1 RES1    0.0000
     30 C7        -2.0547    8.0376   -1.2057 C.3       1 RES1    0.0000
     31 H7        -1.4816    7.6565   -1.9299 H         1 RES1    0.0000
     32 N11       -3.3468    7.3902   -1.1784 N.am      1 RES1    0.0000
     33 C8        -3.7155    6.3227   -1.9632 C.2       1 RES1    0.0000
     34 O8        -4.7472    5.7230   -1.7591 O.2       1 RES1    0.0000
     35 C9        -2.7733    5.9530   -3.0946 C.3       1 RES1    0.0000
     36 H8        -2.6217    6.7486   -3.6644 H         1 RES1    0.0000
     37 H9        -1.9009    5.6811   -2.7138 H         1 RES1    0.0000
     38 N12       -3.2960    4.8636   -3.9220 N.2       1 RES1    0.0000
     39 N13       -4.3954    5.1047   -4.4451 N.1       1 RES1    1.0000
     40 N14       -5.3814    5.1940   -4.9868 N.2       1 RES1   -1.0000
     41 C10       -4.2111    7.8134   -0.1064 C.3       1 RES1    0.0000
     42 H10       -5.0710    7.3043   -0.1352 H         1 RES1    0.0000
     43 N15       -4.4701    9.2614   -0.2226 N.3       1 RES1    0.0000
     44 N16       -5.8536    9.6377   -0.1146 N.pl3     1 RES1    0.0000
     45 O9        -6.0638   10.7775    0.2203 O.2       1 RES1    0.0000
     46 O10       -6.6631    8.8018   -0.4513 O.2       1 RES1    0.0000
@<TRIPOS>BOND
     1    1    2 1
     2    3    1 1
     3    4    3 1
     4    5    4 2
     5    6    4 2
     6    7    3 1
     7    8    7 1
     8    9    7 1
     9   10    9 1
    10   11   10 2
    11   12   10 1
    12   13   12 1
    13   14   12 1
    14   15   12 1
    15   16   15 2
    16   17   16 2
    17   18    9 1
    18   19   18 1
    19   20   18 1
    20   21   20 1
    21   22   21 2
    22   23   21 2
    23   24    1 1
    24   25   24 1
    25   26   24 1
    26   27   26 1
    27   28   27 2
    28   29   27 2
    29   30   18 1
    30   31   30 1
    31   32   30 1
    32   33   32 1
    33   34   33 2
    34   35   33 1
    35   36   35 1
    36   37   35 1
    37   38   35 1
    38   39   38 2
    39   40   39 2
    40   41    7 1
    41   42   41 1
    42   43    1 1
    43   44   43 1
    44   45   44 2
    45   46   44 2
    46   20   24 1
    47   26   30 1
    48   32   41 1
    49   41   43 1
@<TRIPOS>SUBSTRUCTURE
     1 RES1 1

@<TRIPOS>CRYSIN
  10.9430   12.1860   14.5350  90.0000 110.0060  90.0000 231 1

