# MOL2 file generated by ConQuest
# Please check atom types

@<TRIPOS>MOLECULE
XODGAA
   354   372     6
SMALL
NO_CHARGES
****
Generated from CSD

@<TRIPOS>ATOM
      1 O1         1.6121   14.8085   12.5052 O.2       1 RES1    0.0000
      2 O2         1.3133   16.6688   11.4441 O.2       1 RES1    0.0000
      3 O3        -0.5358   13.0896    5.8076 O.2       1 RES1    0.0000
      4 O4        -0.7013   11.2825    7.1302 O.3       1 RES1    0.0000
      5 O5        -2.4040    8.2735    1.7474 O.3       1 RES1    0.0000
      6 O6        -1.0337    6.5427    2.2438 O.3       1 RES1    0.0000
      7 N1         1.2848   15.4511   11.5135 N.pl3     1 RES1    0.0000
      8 C1         0.8316   14.6844   10.3393 C.ar      1 RES1    0.0000
      9 C2         0.7038   15.3553    9.1368 C.ar      1 RES1    0.0000
     10 H1         0.8873   16.2853    9.0765 H         1 RES1    0.0000
     11 C3         0.3056   14.6443    8.0283 C.ar      1 RES1    0.0000
     12 H2         0.2179   15.0849    7.1905 H         1 RES1    0.0000
     13 C4         0.0318   13.2874    8.1270 C.ar      1 RES1    0.0000
     14 C5         0.1413   12.6380    9.3494 C.ar      1 RES1    0.0000
     15 H3        -0.0715   11.7139    9.4171 H         1 RES1    0.0000
     16 C6         0.5607   13.3361   10.4751 C.ar      1 RES1    0.0000
     17 H4         0.6590   12.8991   11.3140 H         1 RES1    0.0000
     18 C7        -0.4199   12.5723    6.8820 C.2       1 RES1    0.0000
     19 C8        -1.1930   10.5213    6.0517 C.ar      1 RES1    0.0000
     20 C9        -0.3034    9.8792    5.2025 C.ar      1 RES1    0.0000
     21 H5         0.6322   10.0198    5.2870 H         1 RES1    0.0000
     22 C10       -0.8041    9.0298    4.2320 C.ar      1 RES1    0.0000
     23 H6        -0.2056    8.5833    3.6455 H         1 RES1    0.0000
     24 C11       -2.1728    8.8200    4.1043 C.ar      1 RES1    0.0000
     25 C12       -3.0459    9.4997    4.9497 C.ar      1 RES1    0.0000
     26 H7        -3.9832    9.3695    4.8657 H         1 RES1    0.0000
     27 C13       -2.5500   10.3678    5.9159 C.ar      1 RES1    0.0000
     28 H8        -3.1448   10.8508    6.4767 H         1 RES1    0.0000
     29 C14       -2.7380    7.8501    3.0805 C.3       1 RES1    0.0000
     30 H9        -3.7317    7.8002    3.1783 H         1 RES1    0.0000
     31 C15       -2.1368    6.4280    3.1519 C.3       1 RES1    0.0000
     32 H10       -1.8099    6.2322    4.0777 H         1 RES1    0.0000
     33 C16       -3.1086    5.3247    2.6784 C.3       1 RES1    0.0000
     34 C17       -3.6424    5.7495    1.2986 C.3       1 RES1    0.0000
     35 H11       -4.0825    4.9737    0.8688 H         1 RES1    0.0000
     36 H12       -4.3233    6.4573    1.4189 H         1 RES1    0.0000
     37 C18       -2.5365    6.2699    0.3794 C.3       1 RES1    0.0000
     38 H13       -2.9412    6.7401   -0.3907 H         1 RES1    0.0000
     39 H14       -2.0106    5.5077    0.0306 H         1 RES1    0.0000
     40 C19       -1.6105    7.2281    1.1334 C.3       1 RES1    0.0000
     41 C20       -0.5063    7.8814    0.3211 C.3       1 RES1    0.0000
     42 H15       -0.0481    8.5422    0.9168 H         1 RES1    0.0000
     43 C21        0.5438    6.8731   -0.1325 C.3       1 RES1    0.0000
     44 H16        0.9147    6.4124    0.6505 H         1 RES1    0.0000
     45 H17        1.2631    7.3402   -0.6068 H         1 RES1    0.0000
     46 H18        0.1300    6.2169   -0.7313 H         1 RES1    0.0000
     47 C22       -1.0558    8.6521   -0.8777 C.3       1 RES1    0.0000
     48 H19       -1.4102    8.0194   -1.5368 H         1 RES1    0.0000
     49 H20       -0.3362    9.1791   -1.2835 H         1 RES1    0.0000
     50 H21       -1.7731    9.2497   -0.5807 H         1 RES1    0.0000
     51 C23       -2.3466    4.0113    2.6415 C.2       1 RES1    0.0000
     52 H22       -1.7448    3.8545    3.3595 H         1 RES1    0.0000
     53 C24       -2.4240    3.0698    1.7350 C.2       1 RES1    0.0000
     54 H23       -3.0091    3.1708    0.9932 H         1 RES1    0.0000
     55 H24       -1.8944    2.2852    1.8184 H         1 RES1    0.0000
     56 C25       -4.2554    5.1619    3.6913 C.3       1 RES1    0.0000
     57 H25       -3.8828    4.9681    4.5776 H         1 RES1    0.0000
     58 H26       -4.8356    4.4239    3.4119 H         1 RES1    0.0000
     59 H27       -4.7772    5.9912    3.7306 H         1 RES1    0.0000
     60 O7         7.6132   11.8320   12.4308 O.2       2 RES2    0.0000
     61 O8         7.5615   13.1428   10.7017 O.2       2 RES2    0.0000
     62 O9         5.6134    6.5830    8.4040 O.2       2 RES2    0.0000
     63 O10        5.1162    8.1151    6.8290 O.3       2 RES2    0.0000
     64 O11        2.7844    5.0036    2.0067 O.3       2 RES2    0.0000
     65 O12        4.0800    3.1724    2.2349 O.3       2 RES2    0.0000
     66 N2         7.4114   12.0574   11.2354 N.pl3     2 RES2    0.0000
     67 C26        6.9692   10.9246   10.3972 C.ar      2 RES2    0.0000
     68 C27        6.6958    9.7107   11.0036 C.ar      2 RES2    0.0000
     69 H28        6.7965    9.5987   11.9427 H         2 RES2    0.0000
     70 C28        6.2743    8.6638   10.2040 C.ar      2 RES2    0.0000
     71 H29        6.1046    7.8098   10.5849 H         2 RES2    0.0000
     72 C29        6.1004    8.8700    8.8347 C.ar      2 RES2    0.0000
     73 C30        6.3620   10.0975    8.2636 C.ar      2 RES2    0.0000
     74 H30        6.2326   10.2254    7.3302 H         2 RES2    0.0000
     75 C31        6.8164   11.1491    9.0549 C.ar      2 RES2    0.0000
     76 H31        7.0145   11.9967    8.6749 H         2 RES2    0.0000
     77 C32        5.6009    7.7205    8.0294 C.2       2 RES2    0.0000
     78 C33        4.4814    7.1282    6.0344 C.ar      2 RES2    0.0000
     79 C34        5.2246    6.1007    5.4732 C.ar      2 RES2    0.0000
     80 H32        6.1511    6.0066    5.6646 H         2 RES2    0.0000
     81 C35        4.5773    5.2131    4.6247 C.ar      2 RES2    0.0000
     82 H33        5.0690    4.5001    4.2327 H         2 RES2    0.0000
     83 C36        3.2192    5.3500    4.3383 C.ar      2 RES2    0.0000
     84 C37        2.5084    6.3798    4.9423 C.ar      2 RES2    0.0000
     85 H34        1.5788    6.4701    4.7697 H         2 RES2    0.0000
     86 C38        3.1376    7.2823    5.7958 C.ar      2 RES2    0.0000
     87 H35        2.6490    7.9881    6.2038 H         2 RES2    0.0000
     88 C39        2.5210    4.4656    3.3246 C.3       2 RES2    0.0000
     89 H36        1.5367    4.4566    3.4992 H         2 RES2    0.0000
     90 C40        3.0490    3.0260    3.2226 C.3       2 RES2    0.0000
     91 H37        3.4356    2.7289    4.0951 H         2 RES2    0.0000
     92 C41        2.0146    2.0052    2.7101 C.3       2 RES2    0.0000
     93 C42        1.3844    2.5803    1.4278 C.3       2 RES2    0.0000
     94 H38        0.8800    1.8677    0.9627 H         2 RES2    0.0000
     95 H39        0.7441    3.2968    1.6721 H         2 RES2    0.0000
     96 C43        2.4451    3.1513    0.4783 C.3       2 RES2    0.0000
     97 H40        2.9085    2.4086    0.0153 H         2 RES2    0.0000
     98 H41        2.0061    3.7135   -0.2074 H         2 RES2    0.0000
     99 C44        3.4643    3.9870    1.2449 C.3       2 RES2    0.0000
    100 C45        4.5426    4.6149    0.3824 C.3       2 RES2    0.0000
    101 H42        4.9413    3.8914   -0.1812 H         2 RES2    0.0000
    102 C46        5.6695    5.2242    1.2257 C.3       2 RES2    0.0000
    103 H43        5.2873    5.8365    1.8882 H         2 RES2    0.0000
    104 H44        6.2831    5.7176    0.6418 H         2 RES2    0.0000
    105 H45        6.1570    4.5089    1.6852 H         2 RES2    0.0000
    106 C47        3.9598    5.6675   -0.5599 C.3       2 RES2    0.0000
    107 H46        3.3008    5.2475   -1.1504 H         2 RES2    0.0000
    108 H47        4.6796    6.0577   -1.0980 H         2 RES2    0.0000
    109 H48        3.5248    6.3714   -0.0349 H         2 RES2    0.0000
    110 C48        2.7389    0.6906    2.4874 C.2       2 RES2    0.0000
    111 H49        3.3690    0.4408    3.1521 H         2 RES2    0.0000
    112 C49        2.5971   -0.1388    1.4863 C.2       2 RES2    0.0000
    113 H50        1.9825    0.0572    0.7902 H         2 RES2    0.0000
    114 H51        3.1106   -0.9380    1.4560 H         2 RES2    0.0000
    115 C50        0.9444    1.7661    3.7758 C.3       2 RES2    0.0000
    116 H52        1.3612    1.3844    4.5776 H         2 RES2    0.0000
    117 H53        0.2719    1.1426    3.4293 H         2 RES2    0.0000
    118 H54        0.5153    2.6168    4.0035 H         2 RES2    0.0000
    119 O13        0.3278    9.5605   10.4871 O.2       3 RES3    0.0000
    120 O14        0.8353    7.9834   11.8752 O.2       3 RES3    0.0000
    121 O15       -1.0402    4.6725    5.7511 O.2       3 RES3    0.0000
    122 O16       -1.6602    3.3861    7.4926 O.3       3 RES3    0.0000
    123 O17       -4.7547   -0.8735    3.8011 O.3       3 RES3    0.0000
    124 O18       -3.6713   -0.2403    1.9382 O.3       3 RES3    0.0000
    125 N3         0.4266    8.3742   10.7895 N.pl3     3 RES3    0.0000
    126 C51        0.0374    7.3631    9.8012 C.ar      3 RES3    0.0000
    127 C52       -0.0427    7.7370    8.4697 C.ar      3 RES3    0.0000
    128 H55        0.1495    8.6271    8.1968 H         3 RES3    0.0000
    129 C53       -0.4123    6.7739    7.5494 C.ar      3 RES3    0.0000
    130 H56       -0.4596    6.9937    6.6273 H         3 RES3    0.0000
    131 C54       -0.7167    5.4786    7.9737 C.ar      3 RES3    0.0000
    132 C55       -0.6395    5.1382    9.3184 C.ar      3 RES3    0.0000
    133 H57       -0.8595    4.2584    9.6004 H         3 RES3    0.0000
    134 C56       -0.2402    6.0859   10.2468 C.ar      3 RES3    0.0000
    135 H58       -0.1592    5.8628   11.1677 H         3 RES3    0.0000
    136 C57       -1.1400    4.4978    6.9275 C.2       3 RES3    0.0000
    137 C58       -2.1009    2.3748    6.6044 C.ar      3 RES3    0.0000
    138 C59       -3.4148    2.3506    6.2053 C.ar      3 RES3    0.0000
    139 H59       -4.0143    3.0379    6.4701 H         3 RES3    0.0000
    140 C60       -3.8521    1.2961    5.4018 C.ar      3 RES3    0.0000
    141 H60       -4.7606    1.2599    5.1233 H         3 RES3    0.0000
    142 C61       -2.9702    0.2999    5.0078 C.ar      3 RES3    0.0000
    143 C62       -1.6377    0.3619    5.4357 C.ar      3 RES3    0.0000
    144 H61       -1.0301   -0.3197    5.1735 H         3 RES3    0.0000
    145 C63       -1.1941    1.4001    6.2329 C.ar      3 RES3    0.0000
    146 H62       -0.2898    1.4434    6.5182 H         3 RES3    0.0000
    147 C64       -3.3618   -0.8681    4.1250 C.3       3 RES3    0.0000
    148 H63       -3.1310   -1.7226    4.5907 H         3 RES3    0.0000
    149 C65       -2.6542   -0.8358    2.7422 C.3       3 RES3    0.0000
    150 H64       -1.8398   -0.2554    2.7723 H         3 RES3    0.0000
    151 C66       -2.3085   -2.2394    2.1967 C.3       3 RES3    0.0000
    152 C67       -3.6051   -3.0892    2.3128 C.3       3 RES3    0.0000
    153 H65       -3.5061   -3.9056    1.7616 H         3 RES3    0.0000
    154 H66       -3.7220   -3.3717    3.2547 H         3 RES3    0.0000
    155 C68       -4.8538   -2.3337    1.8616 C.3       3 RES3    0.0000
    156 H67       -5.6567   -2.8010    2.2026 H         3 RES3    0.0000
    157 H68       -4.8957   -2.3373    0.8732 H         3 RES3    0.0000
    158 C69       -4.8611   -0.8798    2.3637 C.3       3 RES3    0.0000
    159 C70       -6.1101   -0.0946    1.9537 C.3       3 RES3    0.0000
    160 H69       -6.9092   -0.6002    2.2790 H         3 RES3    0.0000
    161 C71       -6.1427    1.2696    2.5837 C.3       3 RES3    0.0000
    162 H70       -6.2981    1.1812    3.5472 H         3 RES3    0.0000
    163 H71       -6.8655    1.7969    2.1829 H         3 RES3    0.0000
    164 H72       -5.2875    1.7216    2.4318 H         3 RES3    0.0000
    165 C72       -6.2116    0.0056    0.4346 C.3       3 RES3    0.0000
    166 H73       -5.4673    0.5430    0.0917 H         3 RES3    0.0000
    167 H74       -7.0606    0.4315    0.1921 H         3 RES3    0.0000
    168 H75       -6.1737   -0.8926    0.0437 H         3 RES3    0.0000
    169 C73       -1.8934   -2.1013    0.7490 C.2       3 RES3    0.0000
    170 H76       -2.5237   -1.6921    0.1681 H         3 RES3    0.0000
    171 C74       -0.7580   -2.4841    0.2043 C.2       3 RES3    0.0000
    172 H77       -0.0905   -2.8989    0.7378 H         3 RES3    0.0000
    173 H78       -0.6058   -2.3450   -0.7225 H         3 RES3    0.0000
    174 C75       -1.1953   -2.8615    3.0349 C.3       3 RES3    0.0000
    175 H79       -0.3892   -2.3064    2.9709 H         3 RES3    0.0000
    176 H80       -0.9982   -3.7613    2.7003 H         3 RES3    0.0000
    177 H81       -1.4819   -2.9153    3.9707 H         3 RES3    0.0000
    178 O19        1.7412    3.4454    6.8556 O.2       4 RES4    0.0000
    179 O20        2.0075    1.5853    7.9288 O.2       4 RES4    0.0000
    180 O21        3.9013    5.1368   13.5578 O.2       4 RES4    0.0000
    181 O22        4.0021    6.9775   12.2688 O.3       4 RES4    0.0000
    182 O23        5.4328   10.0562   17.6715 O.3       4 RES4    0.0000
    183 O24        7.6585   10.1129   17.3556 O.3       4 RES4    0.0000
    184 N4         2.0586    2.8102    7.8552 N.pl3     4 RES4    0.0000
    185 C76        2.5065    3.5643    9.0394 C.ar      4 RES4    0.0000
    186 C77        2.6785    2.8746   10.2265 C.ar      4 RES4    0.0000
    187 H82        2.5252    1.9379   10.2771 H         4 RES4    0.0000
    188 C78        3.0834    3.5959   11.3402 C.ar      4 RES4    0.0000
    189 H83        3.2008    3.1507   12.1719 H         4 RES4    0.0000
    190 C79        3.3199    4.9612   11.2524 C.ar      4 RES4    0.0000
    191 C80        3.1551    5.6277   10.0403 C.ar      4 RES4    0.0000
    192 H84        3.3233    6.5614    9.9846 H         4 RES4    0.0000
    193 C81        2.7438    4.9239    8.9122 C.ar      4 RES4    0.0000
    194 H85        2.6300    5.3629    8.0768 H         4 RES4    0.0000
    195 C82        3.7724    5.6609   12.4878 C.2       4 RES4    0.0000
    196 C83        4.4030    7.7715   13.3655 C.ar      4 RES4    0.0000
    197 C84        3.5072    8.7046   13.8329 C.ar      4 RES4    0.0000
    198 H86        2.6169    8.7353   13.5013 H         4 RES4    0.0000
    199 C85        3.9412    9.6076   14.8097 C.ar      4 RES4    0.0000
    200 H87        3.3382   10.2652   15.1363 H         4 RES4    0.0000
    201 C86        5.2309    9.5633   15.3113 C.ar      4 RES4    0.0000
    202 C87        6.0900    8.5693   14.8527 C.ar      4 RES4    0.0000
    203 H88        6.9665    8.5038   15.2105 H         4 RES4    0.0000
    204 C88        5.6756    7.6691   13.8722 C.ar      4 RES4    0.0000
    205 H89        6.2657    6.9939   13.5580 H         4 RES4    0.0000
    206 C89        5.6370   10.5919   16.3480 C.3       4 RES4    0.0000
    207 H90        5.0759   11.4126   16.2343 H         4 RES4    0.0000
    208 C90        7.1205   10.9920   16.3550 C.3       4 RES4    0.0000
    209 H91        7.5366   10.8046   15.4659 H         4 RES4    0.0000
    210 C91        7.3809   12.4566   16.7754 C.3       4 RES4    0.0000
    211 C92        6.5997   12.6967   18.0817 C.3       4 RES4    0.0000
    212 H92        6.9134   13.5369   18.5001 H         4 RES4    0.0000
    213 H93        5.6379   12.8016   17.8715 H         4 RES4    0.0000
    214 C93        6.7784   11.5387   19.0738 C.3       4 RES4    0.0000
    215 H94        6.0852   11.6027   19.7793 H         4 RES4    0.0000
    216 H95        7.6640   11.6149   19.5086 H         4 RES4    0.0000
    217 C94        6.6714   10.1724   18.3799 C.3       4 RES4    0.0000
    218 C95        6.8393    8.9880   19.3305 C.3       4 RES4    0.0000
    219 H96        7.6849    9.1285   19.8470 H         4 RES4    0.0000
    220 C96        6.9736    7.6736   18.5709 C.3       4 RES4    0.0000
    221 H97        6.1808    7.5371   18.0112 H         4 RES4    0.0000
    222 H98        7.0532    6.9335   19.2096 H         4 RES4    0.0000
    223 H99        7.7720    7.7036   18.0046 H         4 RES4    0.0000
    224 C97        5.6915    8.9057   20.3333 C.3       4 RES4    0.0000
    225 H100       5.6416    9.7421   20.8424 H         4 RES4    0.0000
    226 H101       5.8478    8.1578   20.9472 H         4 RES4    0.0000
    227 H102       4.8494    8.7636   19.8535 H         4 RES4    0.0000
    228 C98        8.8780   12.6280   16.9428 C.2       4 RES4    0.0000
    229 H103       9.4273   12.1081   16.3674 H         4 RES4    0.0000
    230 C99        9.5004   13.4092   17.7874 C.2       4 RES4    0.0000
    231 H104       9.0026   13.9531   18.3866 H         4 RES4    0.0000
    232 H105      10.4499   13.4336   17.8016 H         4 RES4    0.0000
    233 C100       6.9013   13.4031   15.6759 C.3       4 RES4    0.0000
    234 H106       5.9532   13.2363   15.4899 H         4 RES4    0.0000
    235 H107       7.4249   13.2505   14.8612 H         4 RES4    0.0000
    236 H108       7.0181   14.3309   15.9701 H         4 RES4    0.0000
    237 O25       -5.1081   -1.3718    7.5101 O.2       5 RES5    0.0000
    238 O26       -4.7304   -2.9133    8.9833 O.2       5 RES5    0.0000
    239 O27       -3.1575    1.9625   13.6019 O.2       5 RES5    0.0000
    240 O28       -2.3775    3.2086   11.8872 O.3       5 RES5    0.0000
    241 O29       -0.0221    7.6378   15.8713 O.3       5 RES5    0.0000
    242 O30       -0.2867    6.1719   17.5722 O.3       5 RES5    0.0000
    243 N5        -4.7523   -1.7338    8.6249 N.pl3     5 RES5    0.0000
    244 C101      -4.3294   -0.7067    9.5878 C.ar      5 RES5    0.0000
    245 C102      -4.2924   -1.0418   10.9307 C.ar      5 RES5    0.0000
    246 H109      -4.5342   -1.9128   11.2245 H         5 RES5    0.0000
    247 C103      -3.8937   -0.0740   11.8298 C.ar      5 RES5    0.0000
    248 H110      -3.8882   -0.2679   12.7591 H         5 RES5    0.0000
    249 C104      -3.4988    1.1862   11.3825 C.ar      5 RES5    0.0000
    250 C105      -3.5297    1.4924   10.0272 C.ar      5 RES5    0.0000
    251 H111      -3.2515    2.3481    9.7248 H         5 RES5    0.0000
    252 C106      -3.9714    0.5334    9.1156 C.ar      5 RES5    0.0000
    253 H112      -4.0235    0.7332    8.1881 H         5 RES5    0.0000
    254 C107      -3.0261    2.1348   12.4231 C.2       5 RES5    0.0000
    255 C108      -1.6628    4.0167   12.8102 C.ar      5 RES5    0.0000
    256 C109      -2.2964    5.0214   13.5008 C.ar      5 RES5    0.0000
    257 H113      -3.2306    5.1625   13.3965 H         5 RES5    0.0000
    258 C110      -1.5519    5.8301   14.3541 C.ar      5 RES5    0.0000
    259 H114      -1.9804    6.5317   14.8307 H         5 RES5    0.0000
    260 C111      -0.1912    5.6219   14.5163 C.ar      5 RES5    0.0000
    261 C112       0.4276    4.6001   13.7947 C.ar      5 RES5    0.0000
    262 H115       1.3617    4.4552   13.8920 H         5 RES5    0.0000
    263 C113      -0.3055    3.7933   12.9372 C.ar      5 RES5    0.0000
    264 H116       0.1188    3.0987   12.4469 H         5 RES5    0.0000
    265 C114       0.6479    6.4309   15.4910 C.3       5 RES5    0.0000
    266 H117       1.5347    6.6460   15.0817 H         5 RES5    0.0000
    267 C115       0.8521    5.7018   16.8435 C.3       5 RES5    0.0000
    268 H118       0.8052    4.7110   16.7189 H         5 RES5    0.0000
    269 C116       2.1538    6.0963   17.5868 C.3       5 RES5    0.0000
    270 C117       2.1914    7.6349   17.6558 C.3       5 RES5    0.0000
    271 H119       2.8770    7.9132   18.3124 H         5 RES5    0.0000
    272 H120       2.4561    7.9930   16.7713 H         5 RES5    0.0000
    273 C118       0.8369    8.2349   18.0561 C.3       5 RES5    0.0000
    274 H121       0.6973    8.1159   19.0284 H         5 RES5    0.0000
    275 H122       0.8363    9.2054   17.8627 H         5 RES5    0.0000
    276 C119      -0.3003    7.5624   17.2928 C.3       5 RES5    0.0000
    277 C120      -1.6937    8.1082   17.5527 C.3       5 RES5    0.0000
    278 H123      -2.3412    7.5029   17.0900 H         5 RES5    0.0000
    279 C121      -1.8840    9.5055   16.9704 C.3       5 RES5    0.0000
    280 H124      -1.2603   10.1267   17.4021 H         5 RES5    0.0000
    281 H125      -2.8035    9.8029   17.1293 H         5 RES5    0.0000
    282 H126      -1.7087    9.4841   16.0073 H         5 RES5    0.0000
    283 C122      -2.0431    8.0900   19.0463 C.3       5 RES5    0.0000
    284 H127      -1.8502    7.2026   19.4170 H         5 RES5    0.0000
    285 H128      -2.9961    8.2908   19.1616 H         5 RES5    0.0000
    286 H129      -1.5087    8.7630   19.5152 H         5 RES5    0.0000
    287 C123       2.0592    5.5190   18.9904 C.2       5 RES5    0.0000
    288 H130       1.3219    5.8033   19.5174 H         5 RES5    0.0000
    289 C124       2.8927    4.6669   19.5523 C.2       5 RES5    0.0000
    290 H131       3.6467    4.3511   19.0677 H         5 RES5    0.0000
    291 H132       2.7390    4.3676   20.4407 H         5 RES5    0.0000
    292 C125       3.3756    5.5662   16.8442 C.3       5 RES5    0.0000
    293 H133       3.3248    4.5901   16.7887 H         5 RES5    0.0000
    294 H134       4.1888    5.8259   17.3257 H         5 RES5    0.0000
    295 H135       3.3974    5.9442   15.9396 H         5 RES5    0.0000
    296 O31        1.0084   -5.9427    7.2857 O.2       6 RES6    0.0000
    297 O32        1.2665   -7.1557    9.0560 O.2       6 RES6    0.0000
    298 O33        2.8387   -0.3426   10.8752 O.2       6 RES6    0.0000
    299 O34        3.3301   -1.7183   12.5982 O.3       6 RES6    0.0000
    300 O35        5.5290    1.5762   17.3508 O.3       6 RES6    0.0000
    301 O36        7.7130    1.3868   16.7739 O.3       6 RES6    0.0000
    302 N6         1.2712   -6.0797    8.4703 N.pl3     6 RES6    0.0000
    303 C126       1.6256   -4.8724    9.2464 C.ar      6 RES6    0.0000
    304 C127       1.8219   -3.6920    8.5710 C.ar      6 RES6    0.0000
    305 H136       1.6932   -3.6399    7.6314 H         6 RES6    0.0000
    306 C128       2.2131   -2.5790    9.2987 C.ar      6 RES6    0.0000
    307 H137       2.3457   -1.7486    8.8561 H         6 RES6    0.0000
    308 C129       2.4114   -2.6682   10.6668 C.ar      6 RES6    0.0000
    309 C130       2.1986   -3.8823   11.3295 C.ar      6 RES6    0.0000
    310 H138       2.3266   -3.9412   12.2701 H         6 RES6    0.0000
    311 C131       1.8010   -4.9958   10.6131 C.ar      6 RES6    0.0000
    312 H139       1.6513   -5.8263   11.0499 H         6 RES6    0.0000
    313 C132       2.8703   -1.4383   11.3690 C.2       6 RES6    0.0000
    314 C133       3.9190   -0.6707   13.3520 C.ar      6 RES6    0.0000
    315 C134       5.1688   -0.9267   13.8516 C.ar      6 RES6    0.0000
    316 H140       5.6225   -1.7293   13.6257 H         6 RES6    0.0000
    317 C135       5.7621    0.0090   14.6955 C.ar      6 RES6    0.0000
    318 H141       6.6287   -0.1585   15.0490 H         6 RES6    0.0000
    319 C136       5.1004    1.1837   15.0228 C.ar      6 RES6    0.0000
    320 C137       3.8477    1.4132   14.4925 C.ar      6 RES6    0.0000
    321 H142       3.3932    2.2206   14.7041 H         6 RES6    0.0000
    322 C138       3.2341    0.4846   13.6510 C.ar      6 RES6    0.0000
    323 H143       2.3675    0.6461   13.2939 H         6 RES6    0.0000
    324 C139       5.6669    2.1535   16.0361 C.3       6 RES6    0.0000
    325 H144       5.1618    3.0157   15.9942 H         6 RES6    0.0000
    326 C140       7.1753    2.4336   15.9383 C.3       6 RES6    0.0000
    327 H145       7.4957    2.3387   14.9966 H         6 RES6    0.0000
    328 C141       7.5873    3.7955   16.5244 C.3       6 RES6    0.0000
    329 C142       6.9691    3.9103   17.9365 C.3       6 RES6    0.0000
    330 H146       7.3787    4.6765   18.4106 H         6 RES6    0.0000
    331 H147       5.9989    4.0877   17.8540 H         6 RES6    0.0000
    332 C143       7.1815    2.6370   18.7575 C.3       6 RES6    0.0000
    333 H148       8.1225    2.5869   19.0590 H         6 RES6    0.0000
    334 H149       6.6008    2.6543   19.5588 H         6 RES6    0.0000
    335 C144       6.8472    1.4170   17.9051 C.3       6 RES6    0.0000
    336 C145       6.9244    0.0577   18.5927 C.3       6 RES6    0.0000
    337 H150       6.7866   -0.6366   17.8867 H         6 RES6    0.0000
    338 C146       5.8167   -0.1264   19.6224 C.3       6 RES6    0.0000
    339 H151       5.9497    0.5028   20.3622 H         6 RES6    0.0000
    340 H152       5.8388   -1.0434   19.9649 H         6 RES6    0.0000
    341 H153       4.9473    0.0440   19.2008 H         6 RES6    0.0000
    342 C147       8.2816   -0.2047   19.2177 C.3       6 RES6    0.0000
    343 H154       8.9851   -0.0242   18.5591 H         6 RES6    0.0000
    344 H155       8.3339   -1.1408   19.5043 H         6 RES6    0.0000
    345 H156       8.4021    0.3818   19.9932 H         6 RES6    0.0000
    346 C148       9.0984    3.8480   16.5499 C.2       6 RES6    0.0000
    347 H157       9.5513    3.4025   15.8435 H         6 RES6    0.0000
    348 C149       9.8537    4.4470   17.4488 C.2       6 RES6    0.0000
    349 H158       9.4509    4.9070   18.1771 H         6 RES6    0.0000
    350 H159      10.7991    4.4187   17.3694 H         6 RES6    0.0000
    351 C150       7.0884    4.9291   15.6130 C.3       6 RES6    0.0000
    352 H160       6.1117    4.8967   15.5576 H         6 RES6    0.0000
    353 H161       7.4709    4.8197   14.7172 H         6 RES6    0.0000
    354 H162       7.3667    5.7929   15.9832 H         6 RES6    0.0000
@<TRIPOS>BOND
     1    1    7 2
     2    2    7 2
     3    3   18 2
     4    4   18 1
     5    5   29 1
     6    6   31 1
     7    7    8 1
     8    8    9 ar
     9    9   10 1
    10   11    9 ar
    11   12   11 1
    12   13   11 ar
    13   14   13 ar
    14   15   14 1
    15   16    8 ar
    16   17   16 1
    17   18   13 1
    18   19    4 1
    19   20   19 ar
    20   21   20 1
    21   22   20 ar
    22   23   22 1
    23   24   22 ar
    24   25   24 ar
    25   26   25 1
    26   27   19 ar
    27   28   27 1
    28   29   24 1
    29   30   29 1
    30   31   29 1
    31   32   31 1
    32   33   31 1
    33   34   33 1
    34   35   34 1
    35   36   34 1
    36   37   34 1
    37   38   37 1
    38   39   37 1
    39   40    5 1
    40   41   40 1
    41   42   41 1
    42   43   41 1
    43   44   43 1
    44   45   43 1
    45   46   43 1
    46   47   41 1
    47   48   47 1
    48   49   47 1
    49   50   47 1
    50   51   33 1
    51   52   51 1
    52   53   51 2
    53   54   53 1
    54   55   53 1
    55   56   33 1
    56   57   56 1
    57   58   56 1
    58   59   56 1
    59   60   66 2
    60   61   66 2
    61   62   77 2
    62   63   77 1
    63   64   88 1
    64   65   90 1
    65   66   67 1
    66   67   68 ar
    67   68   69 1
    68   70   68 ar
    69   71   70 1
    70   72   70 ar
    71   73   72 ar
    72   74   73 1
    73   75   67 ar
    74   76   75 1
    75   77   72 1
    76   78   63 1
    77   79   78 ar
    78   80   79 1
    79   81   79 ar
    80   82   81 1
    81   83   81 ar
    82   84   83 ar
    83   85   84 1
    84   86   78 ar
    85   87   86 1
    86   88   83 1
    87   89   88 1
    88   90   88 1
    89   91   90 1
    90   92   90 1
    91   93   92 1
    92   94   93 1
    93   95   93 1
    94   96   93 1
    95   97   96 1
    96   98   96 1
    97   99   64 1
    98  100   99 1
    99  101  100 1
   100  102  100 1
   101  103  102 1
   102  104  102 1
   103  105  102 1
   104  106  100 1
   105  107  106 1
   106  108  106 1
   107  109  106 1
   108  110   92 1
   109  111  110 1
   110  112  110 2
   111  113  112 1
   112  114  112 1
   113  115   92 1
   114  116  115 1
   115  117  115 1
   116  118  115 1
   117  119  125 2
   118  120  125 2
   119  121  136 2
   120  122  136 1
   121  123  147 1
   122  124  149 1
   123  125  126 1
   124  126  127 ar
   125  127  128 1
   126  129  127 ar
   127  130  129 1
   128  131  129 ar
   129  132  131 ar
   130  133  132 1
   131  134  126 ar
   132  135  134 1
   133  136  131 1
   134  137  122 1
   135  138  137 ar
   136  139  138 1
   137  140  138 ar
   138  141  140 1
   139  142  140 ar
   140  143  142 ar
   141  144  143 1
   142  145  137 ar
   143  146  145 1
   144  147  142 1
   145  148  147 1
   146  149  147 1
   147  150  149 1
   148  151  149 1
   149  152  151 1
   150  153  152 1
   151  154  152 1
   152  155  152 1
   153  156  155 1
   154  157  155 1
   155  158  123 1
   156  159  158 1
   157  160  159 1
   158  161  159 1
   159  162  161 1
   160  163  161 1
   161  164  161 1
   162  165  159 1
   163  166  165 1
   164  167  165 1
   165  168  165 1
   166  169  151 1
   167  170  169 1
   168  171  169 2
   169  172  171 1
   170  173  171 1
   171  174  151 1
   172  175  174 1
   173  176  174 1
   174  177  174 1
   175  178  184 2
   176  179  184 2
   177  180  195 2
   178  181  195 1
   179  182  206 1
   180  183  208 1
   181  184  185 1
   182  185  186 ar
   183  186  187 1
   184  188  186 ar
   185  189  188 1
   186  190  188 ar
   187  191  190 ar
   188  192  191 1
   189  193  185 ar
   190  194  193 1
   191  195  190 1
   192  196  181 1
   193  197  196 ar
   194  198  197 1
   195  199  197 ar
   196  200  199 1
   197  201  199 ar
   198  202  201 ar
   199  203  202 1
   200  204  196 ar
   201  205  204 1
   202  206  201 1
   203  207  206 1
   204  208  206 1
   205  209  208 1
   206  210  208 1
   207  211  210 1
   208  212  211 1
   209  213  211 1
   210  214  211 1
   211  215  214 1
   212  216  214 1
   213  217  182 1
   214  218  217 1
   215  219  218 1
   216  220  218 1
   217  221  220 1
   218  222  220 1
   219  223  220 1
   220  224  218 1
   221  225  224 1
   222  226  224 1
   223  227  224 1
   224  228  210 1
   225  229  228 1
   226  230  228 2
   227  231  230 1
   228  232  230 1
   229  233  210 1
   230  234  233 1
   231  235  233 1
   232  236  233 1
   233  237  243 2
   234  238  243 2
   235  239  254 2
   236  240  254 1
   237  241  265 1
   238  242  267 1
   239  243  244 1
   240  244  245 ar
   241  245  246 1
   242  247  245 ar
   243  248  247 1
   244  249  247 ar
   245  250  249 ar
   246  251  250 1
   247  252  244 ar
   248  253  252 1
   249  254  249 1
   250  255  240 1
   251  256  255 ar
   252  257  256 1
   253  258  256 ar
   254  259  258 1
   255  260  258 ar
   256  261  260 ar
   257  262  261 1
   258  263  255 ar
   259  264  263 1
   260  265  260 1
   261  266  265 1
   262  267  265 1
   263  268  267 1
   264  269  267 1
   265  270  269 1
   266  271  270 1
   267  272  270 1
   268  273  270 1
   269  274  273 1
   270  275  273 1
   271  276  241 1
   272  277  276 1
   273  278  277 1
   274  279  277 1
   275  280  279 1
   276  281  279 1
   277  282  279 1
   278  283  277 1
   279  284  283 1
   280  285  283 1
   281  286  283 1
   282  287  269 1
   283  288  287 1
   284  289  287 2
   285  290  289 1
   286  291  289 1
   287  292  269 1
   288  293  292 1
   289  294  292 1
   290  295  292 1
   291  296  302 2
   292  297  302 2
   293  298  313 2
   294  299  313 1
   295  300  324 1
   296  301  326 1
   297  302  303 1
   298  303  304 ar
   299  304  305 1
   300  306  304 ar
   301  307  306 1
   302  308  306 ar
   303  309  308 ar
   304  310  309 1
   305  311  303 ar
   306  312  311 1
   307  313  308 1
   308  314  299 1
   309  315  314 ar
   310  316  315 1
   311  317  315 ar
   312  318  317 1
   313  319  317 ar
   314  320  319 ar
   315  321  320 1
   316  322  314 ar
   317  323  322 1
   318  324  319 1
   319  325  324 1
   320  326  324 1
   321  327  326 1
   322  328  326 1
   323  329  328 1
   324  330  329 1
   325  331  329 1
   326  332  329 1
   327  333  332 1
   328  334  332 1
   329  335  300 1
   330  336  335 1
   331  337  336 1
   332  338  336 1
   333  339  338 1
   334  340  338 1
   335  341  338 1
   336  342  336 1
   337  343  342 1
   338  344  342 1
   339  345  342 1
   340  346  328 1
   341  347  346 1
   342  348  346 2
   343  349  348 1
   344  350  348 1
   345  351  328 1
   346  352  351 1
   347  353  351 1
   348  354  351 1
   349    6   40 1
   350   14   16 ar
   351   25   27 ar
   352   37   40 1
   353   65   99 1
   354   73   75 ar
   355   84   86 ar
   356   96   99 1
   357  124  158 1
   358  132  134 ar
   359  143  145 ar
   360  155  158 1
   361  183  217 1
   362  191  193 ar
   363  202  204 ar
   364  214  217 1
   365  242  276 1
   366  250  252 ar
   367  261  263 ar
   368  273  276 1
   369  301  335 1
   370  309  311 ar
   371  320  322 ar
   372  332  335 1
@<TRIPOS>SUBSTRUCTURE
     1 RES1 1
     2 RES2 60
     3 RES3 119
     4 RES4 178
     5 RES5 237
     6 RES6 296

@<TRIPOS>CRYSIN
  12.9525   12.9574   22.2532  98.9531  92.3957 114.3590   1 1

