# MOL2 file generated by ConQuest
# Please check atom types

@<TRIPOS>MOLECULE
XODMAE
    39    41     1
SMALL
NO_CHARGES
****
Generated from CSD

@<TRIPOS>ATOM
      1 O1        -0.2420    1.5690   12.2531 O.2       1 RES1    0.0000
      2 O2        -2.2059    4.7768   14.3410 O.2       1 RES1    0.0000
      3 N1         0.8166    2.1028   11.6940 N.pl3     1 RES1    0.0000
      4 N2         0.5082    5.4446   12.9497 N.2       1 RES1    0.0000
      5 N3        -0.9857    7.9426   14.9855 N.3       1 RES1    0.0000
      6 N4        -1.9791    6.9521   15.0859 N.am      1 RES1    0.0000
      7 C1         1.6012    1.3373   10.8975 C.ar      1 RES1    0.0000
      8 H1         1.3552    0.4565   10.7273 H         1 RES1    0.0000
      9 C2         2.7446    1.8282   10.3381 C.ar      1 RES1    0.0000
     10 H2         3.2674    1.2865    9.7932 H         1 RES1    0.0000
     11 C3         3.1232    3.1352   10.5850 C.ar      1 RES1    0.0000
     12 H3         3.9088    3.4788   10.2269 H         1 RES1    0.0000
     13 C4         2.3134    3.9107   11.3703 C.ar      1 RES1    0.0000
     14 H4         2.5563    4.7930   11.5391 H         1 RES1    0.0000
     15 C5         1.1409    3.4179   11.9210 C.ar      1 RES1    0.0000
     16 C6         0.2297    4.2113   12.7193 C.2       1 RES1    0.0000
     17 H5        -0.5477    3.8328   13.0605 H         1 RES1    0.0000
     18 C7        -0.3361    6.2121   13.7367 C.2       1 RES1    0.0000
     19 C8        -0.0573    7.5090   14.1032 C.2       1 RES1    0.0000
     20 C9         1.0509    8.3734   13.6406 C.3       1 RES1    0.0000
     21 H6         0.6910    9.1582   13.2206 H         1 RES1    0.0000
     22 H7         1.5909    7.8922   13.0093 H         1 RES1    0.0000
     23 H8         1.5909    8.6319   14.3906 H         1 RES1    0.0000
     24 C10       -1.3214    9.3138   15.3116 C.3       1 RES1    0.0000
     25 H9        -0.5530    9.8722   15.1757 H         1 RES1    0.0000
     26 H10       -1.5962    9.3665   16.2300 H         1 RES1    0.0000
     27 H11       -2.0368    9.6117   14.7464 H         1 RES1    0.0000
     28 C11       -1.5603    5.8363   14.3677 C.2       1 RES1    0.0000
     29 C12       -2.8120    6.8600   16.2500 C.ar      1 RES1    0.0000
     30 C13       -4.0040    7.5034   16.2945 C.ar      1 RES1    0.0000
     31 H12       -4.2798    8.0348   15.5827 H         1 RES1    0.0000
     32 C14       -4.8100    7.3588   17.4188 C.ar      1 RES1    0.0000
     33 H13       -5.6202    7.8133   17.4644 H         1 RES1    0.0000
     34 C15       -4.4311    6.5647   18.4464 C.ar      1 RES1    0.0000
     35 H14       -4.9748    6.4765   19.1948 H         1 RES1    0.0000
     36 C16       -3.2420    5.8907   18.3757 C.ar      1 RES1    0.0000
     37 H15       -2.9889    5.3244   19.0681 H         1 RES1    0.0000
     38 C17       -2.4273    6.0477   17.2903 C.ar      1 RES1    0.0000
     39 H16       -1.6109    5.6045   17.2553 H         1 RES1    0.0000
@<TRIPOS>BOND
     1    1    3 1
     2    2   28 2
     3    3    7 ar
     4    4   16 2
     5    5    6 1
     6    6   28 1
     7    7    8 1
     8    9    7 ar
     9   10    9 1
    10   11    9 ar
    11   12   11 1
    12   13   11 ar
    13   14   13 1
    14   15    3 ar
    15   16   15 1
    16   17   16 1
    17   18    4 1
    18   19    5 1
    19   20   19 1
    20   21   20 1
    21   22   20 1
    22   23   20 1
    23   24    5 1
    24   25   24 1
    25   26   24 1
    26   27   24 1
    27   28   18 1
    28   29    6 1
    29   30   29 ar
    30   31   30 1
    31   32   30 ar
    32   33   32 1
    33   34   32 ar
    34   35   34 1
    35   36   34 ar
    36   37   36 1
    37   38   29 ar
    38   39   38 1
    39   13   15 ar
    40   18   19 2
    41   36   38 ar
@<TRIPOS>SUBSTRUCTURE
     1 RES1 1

@<TRIPOS>CRYSIN
  13.3910   10.2590   22.2420  90.0000  90.0000  90.0000  60 1

