# MOL2 file generated by ConQuest
# Please check atom types

@<TRIPOS>MOLECULE
XODWIW
   336   338     3
SMALL
NO_CHARGES
****
Generated from CSD

@<TRIPOS>ATOM
      1 O1         5.0489    7.1368    8.0693 O.3       1 RES1    0.0000
      2 O2        13.8023    1.8129    4.8426 O.2       1 RES1    0.0000
      3 O3         8.2929   -3.1696    2.7931 O.2       1 RES1    0.0000
      4 O4         3.7248    4.6486   12.8324 O.3       2 RES2    0.0000
      5 O5        11.1140   -1.8586    8.7188 O.2       2 RES2    0.0000
      6 O6        15.7294    4.1516   10.2277 O.2       2 RES2    0.0000
      7 N1        12.5501   -0.0661    4.5237 N.2       1 RES1    0.0000
      8 N2         9.3142   -2.5138    3.2022 N.2       1 RES1    0.0000
      9 N3        12.7103   -0.4791    9.5389 N.am      2 RES2    0.0000
     10 N4        15.0404    3.1143   10.0442 N.3       2 RES2    0.0000
     11 C1        -4.1700   11.5143   14.1078 C.3       1 RES1    0.0000
     12 C2        -3.3916   10.3155   12.9501 C.2       1 RES1    0.0000
     13 C3        -3.1590   10.1566   13.0580 Du        3 SUP3    0.0000
     14 C4        -2.6402    9.1067   12.1653 C.3       1 RES1    0.0000
     15 C5        -1.1449    9.0932   11.6061 C.3       1 RES1    0.0000
     16 C6        -0.2928    7.9872   11.0665 C.3       1 RES1    0.0000
     17 C7         0.8759    8.4041   10.3993 C.3       1 RES1    0.0000
     18 C8         1.9416    7.5800    9.8205 C.3       1 RES1    0.0000
     19 C9         3.0595    7.8049    9.2221 C.3       1 RES1    0.0000
     20 C10        3.9713    6.7594    8.5647 C.3       1 RES1    0.0000
     21 C11        6.0340    6.3376    7.5915 C.2       1 RES1    0.0000
     22 C12        5.9025    4.9406    7.4709 C.2       1 RES1    0.0000
     23 C13        7.2283    6.8249    7.2501 C.2       1 RES1    0.0000
     24 C14        6.9972    4.1504    6.9941 C.2       1 RES1    0.0000
     25 C15        8.3383    6.0516    6.7910 C.2       1 RES1    0.0000
     26 C16        8.2191    4.6903    6.6968 C.2       1 RES1    0.0000
     27 C17        9.3858    3.8295    6.2082 C.2       1 RES1    0.0000
     28 C18        9.5029    2.5585    6.6772 C.2       1 RES1    0.0000
     29 C19       10.3854    4.2973    5.3478 C.2       1 RES1    0.0000
     30 C20       10.4779    1.6944    6.2269 C.2       1 RES1    0.0000
     31 C21       11.3608    3.4036    4.9309 C.2       1 RES1    0.0000
     32 C22       11.4760    2.0402    5.3046 C.2       1 RES1    0.0000
     33 C23       12.6747    1.2821    4.8828 C.2       1 RES1    0.0000
     34 C24       13.8033   -0.7814    4.2608 C.3       1 RES1    0.0000
     35 C25       11.2281   -0.6431    4.2206 C.3       1 RES1    0.0000
     36 C26       11.1087   -0.9207    2.7087 C.3       1 RES1    0.0000
     37 C27       10.9994   -1.9555    4.8926 C.3       1 RES1    0.0000
     38 C28        9.6901   -1.4087    2.2937 C.3       1 RES1    0.0000
     39 C29        9.6233   -2.5675    4.6267 C.3       1 RES1    0.0000
     40 C30        9.8839   -1.9526    0.8457 C.3       1 RES1    0.0000
     41 C31        8.6297   -0.3157    2.2830 C.3       1 RES1    0.0000
     42 C32        9.6915   -4.0534    4.9191 C.3       1 RES1    0.0000
     43 C33        8.4964   -1.9398    5.4302 C.3       1 RES1    0.0000
     44 C34       -1.9522   11.4399   19.3761 C.3       2 RES2    0.0000
     45 C35       -0.7994   11.1195   18.6207 C.3       2 RES2    0.0000
     46 C36       -0.9164   11.2595   17.6004 C.3       2 RES2    0.0000
     47 C37        0.5540   10.2371   17.3551 C.3       2 RES2    0.0000
     48 C38        0.5908   10.0314   16.2956 C.3       2 RES2    0.0000
     49 C39        1.4032    8.9499   15.8149 C.3       2 RES2    0.0000
     50 C40        1.6215    8.1155   15.1968 C.3       2 RES2    0.0000
     51 C41        2.5982    7.0145   14.8338 C.3       2 RES2    0.0000
     52 C42        2.4659    5.9930   14.2942 C.3       2 RES2    0.0000
     53 C43        3.5041    4.7937   14.0882 C.3       2 RES2    0.0000
     54 C44        4.7682    3.7930   12.3517 C.ar      2 RES2    0.0000
     55 C45        4.8968    3.5991   10.9998 C.ar      2 RES2    0.0000
     56 C46        5.6208    3.0784   13.3367 C.ar      2 RES2    0.0000
     57 C47        5.8574    2.8448   10.5259 C.ar      2 RES2    0.0000
     58 C48        6.6524    2.3172   12.8069 C.ar      2 RES2    0.0000
     59 C49        6.7858    2.2298   11.3804 C.ar      2 RES2    0.0000
     60 C50        7.9460    1.4321   10.8065 C.ar      2 RES2    0.0000
     61 C51        7.9495    0.8045    9.6115 C.ar      2 RES2    0.0000
     62 C52        9.2033    1.3577   11.6061 C.ar      2 RES2    0.0000
     63 C53        9.0661    0.0945    9.1328 C.ar      2 RES2    0.0000
     64 C54       10.3142    0.6451   11.0508 C.ar      2 RES2    0.0000
     65 C55       10.2565    0.0126    9.8019 C.ar      2 RES2    0.0000
     66 C56       11.4096   -0.7910    9.2898 C.2       2 RES2    0.0000
     67 C57       13.7272   -1.5070    9.2427 C.3       2 RES2    0.0000
     68 C58       13.1688    0.8954    9.7361 C.3       2 RES2    0.0000
     69 C59       14.0902    1.0234   10.9860 C.3       2 RES2    0.0000
     70 C60       13.9805    1.4563    8.5206 C.3       2 RES2    0.0000
     71 C61       14.5390    2.4379   11.3000 C.3       2 RES2    0.0000
     72 C62       14.4448    2.9201    8.6491 C.3       2 RES2    0.0000
     73 C63       15.6970    2.2966   12.1927 C.3       2 RES2    0.0000
     74 C64       13.3818    3.2236   11.8660 C.3       2 RES2    0.0000
     75 C65       15.4720    3.2418    7.6327 C.3       2 RES2    0.0000
     76 C66       13.2464    3.8938    8.4961 C.3       2 RES2    0.0000
     77 H1        -4.4602   11.4535   14.9751 H         1 RES1    0.0000
     78 H2        -4.0745   12.4864   13.8841 H         1 RES1    0.0000
     79 H3        -5.2171   11.4700   13.6212 H         1 RES1    0.0000
     80 H4        -2.4678   11.0176   13.2886 Du        3 SUP3    0.0000
     81 H5        -3.1322    9.8679   14.0911 Du        3 SUP3    0.0000
     82 H6        -4.1833    9.6944   12.8854 Du        3 SUP3    0.0000
     83 H7        -3.4068   10.7870   12.1054 Du        3 SUP3    0.0000
     84 H8        -2.3763    8.3335   12.7559 H         1 RES1    0.0000
     85 H9        -2.9887    8.6926   11.3775 H         1 RES1    0.0000
     86 H10       -1.2356    9.8803   10.9026 H         1 RES1    0.0000
     87 H11       -0.6236    9.5362   12.2859 H         1 RES1    0.0000
     88 H12       -0.3808    7.3050   11.6021 H         1 RES1    0.0000
     89 H13       -0.9432    7.6858   10.2071 H         1 RES1    0.0000
     90 H14        0.8749    9.1183    9.8970 H         1 RES1    0.0000
     91 H15        1.4499    8.6549   11.2607 H         1 RES1    0.0000
     92 H16        2.0089    6.7076   10.4160 H         1 RES1    0.0000
     93 H17        1.3091    7.0477    9.0749 H         1 RES1    0.0000
     94 H18        2.9513    8.6436    8.6462 H         1 RES1    0.0000
     95 H19        3.6691    8.2359    9.9608 H         1 RES1    0.0000
     96 H20        3.2101    6.4115    7.7769 H         1 RES1    0.0000
     97 H21        3.8283    5.9390    9.1181 H         1 RES1    0.0000
     98 H22        5.0542    4.4591    7.7730 H         1 RES1    0.0000
     99 H23        7.3183    7.8227    7.3139 H         1 RES1    0.0000
    100 H24        6.8608    3.1661    6.9087 H         1 RES1    0.0000
    101 H25        9.2000    6.4480    6.5594 H         1 RES1    0.0000
    102 H26        8.8387    2.1942    7.3659 H         1 RES1    0.0000
    103 H27       10.3306    5.2401    4.9995 H         1 RES1    0.0000
    104 H28       10.5497    0.6808    6.5643 H         1 RES1    0.0000
    105 H29       12.0486    3.8432    4.2981 H         1 RES1    0.0000
    106 H30       13.6429   -1.3956    3.5142 H         1 RES1    0.0000
    107 H31       14.4546   -0.1352    3.9125 H         1 RES1    0.0000
    108 H32       10.5024   -0.0468    4.4737 H         1 RES1    0.0000
    109 H33       11.3590   -0.0890    2.2005 H         1 RES1    0.0000
    110 H34       11.7739   -1.5692    2.4203 H         1 RES1    0.0000
    111 H35       11.6918   -2.5444    4.6140 H         1 RES1    0.0000
    112 H36       11.0896   -1.8093    5.8413 H         1 RES1    0.0000
    113 H37        9.0456   -2.0948    0.4248 H         1 RES1    0.0000
    114 H38       10.4241   -1.3958    0.2982 H         1 RES1    0.0000
    115 H39       10.3319   -2.8222    0.9026 H         1 RES1    0.0000
    116 H40        8.2967   -0.1118    3.1836 H         1 RES1    0.0000
    117 H41        9.0011    0.5945    1.9935 H         1 RES1    0.0000
    118 H42        7.8984   -0.4645    1.7267 H         1 RES1    0.0000
    119 H43        9.5652   -4.3400    5.8531 H         1 RES1    0.0000
    120 H44        8.9200   -4.5929    4.4658 H         1 RES1    0.0000
    121 H45       10.4652   -4.5603    4.6081 H         1 RES1    0.0000
    122 H46        8.6130   -0.9634    5.4312 H         1 RES1    0.0000
    123 H47        7.6399   -2.1114    5.0525 H         1 RES1    0.0000
    124 H48        8.4854   -2.2075    6.3495 H         1 RES1    0.0000
    125 H49       -2.7703   11.8708   19.6234 H         2 RES2    0.0000
    126 H50       -2.5466   10.6672   18.6678 H         2 RES2    0.0000
    127 H51       -2.0631   10.5880   20.1394 H         2 RES2    0.0000
    128 H52       -1.0818   12.5531   19.2545 Du        3 SUP3    0.0000
    129 H53       -0.4093   11.1823   19.5312 H         2 RES2    0.0000
    130 H54       -1.7009   10.9317   17.1275 H         2 RES2    0.0000
    131 H55       -0.7942   12.1851   17.0235 H         2 RES2    0.0000
    132 H56        1.0456   10.9846   17.9075 H         2 RES2    0.0000
    133 H57        0.1409    9.7588   18.1998 H         2 RES2    0.0000
    134 H58       -0.4292    9.7042   15.8982 H         2 RES2    0.0000
    135 H59        0.6142   10.8252   15.6491 H         2 RES2    0.0000
    136 H60        2.4497    9.2850   15.6491 Du        3 SUP3    0.0000
    137 H61        1.7715    8.3498   16.6860 Du        3 SUP3    0.0000
    138 H62        0.5566    7.7238   15.3606 H         2 RES2    0.0000
    139 H63        1.1616    8.6992   14.3168 H         2 RES2    0.0000
    140 H64        3.2143    7.4605   14.1588 H         2 RES2    0.0000
    141 H65        3.0615    6.8722   15.5863 H         2 RES2    0.0000
    142 H66        1.5899    5.7313   14.8044 H         2 RES2    0.0000
    143 H67        2.1048    6.2035   13.4201 H         2 RES2    0.0000
    144 H68        3.1325    3.8688   14.6170 H         2 RES2    0.0000
    145 H69        4.3097    4.8680   14.7631 H         2 RES2    0.0000
    146 H70        4.1518    3.9887   10.4445 H         2 RES2    0.0000
    147 H71        5.3861    3.0810   14.3070 H         2 RES2    0.0000
    148 H72        5.8815    2.7228    9.5370 H         2 RES2    0.0000
    149 H73        7.3125    1.8192   13.4466 H         2 RES2    0.0000
    150 H74        7.1547    0.8186    9.0621 H         2 RES2    0.0000
    151 H75        9.2201    1.7083   12.5037 H         2 RES2    0.0000
    152 H76        8.9720   -0.3440    8.2410 H         2 RES2    0.0000
    153 H77       11.2057    0.6698   11.5776 H         2 RES2    0.0000
    154 H78       13.4587   -2.0067    8.4608 H         2 RES2    0.0000
    155 H79       14.5766   -1.0629    8.9788 H         2 RES2    0.0000
    156 H80       12.3858    1.5452    9.8951 H         2 RES2    0.0000
    157 H81       13.6063    0.5742   11.7552 H         2 RES2    0.0000
    158 H82       14.8531    0.4627   10.8379 H         2 RES2    0.0000
    159 H83       14.7245    0.8544    8.3617 H         2 RES2    0.0000
    160 H84       13.4044    1.3053    7.6847 H         2 RES2    0.0000
    161 H85       16.3245    1.6233   11.8808 H         2 RES2    0.0000
    162 H86       16.2281    3.1453   12.1604 H         2 RES2    0.0000
    163 H87       15.5580    2.1351   13.1287 H         2 RES2    0.0000
    164 H88       13.5895    4.1667   11.8965 H         2 RES2    0.0000
    165 H89       12.5638    3.1403   11.3471 H         2 RES2    0.0000
    166 H90       13.1049    2.9975   12.7941 H         2 RES2    0.0000
    167 H91       16.2855    2.7543    7.7740 H         2 RES2    0.0000
    168 H92       15.1979    3.0431    6.7066 H         2 RES2    0.0000
    169 H93       15.7342    4.1933    7.5994 H         2 RES2    0.0000
    170 H94       13.4891    4.8016    8.3303 H         2 RES2    0.0000
    171 H95       12.6343    3.6288    7.7828 H         2 RES2    0.0000
    172 H96       12.6909    3.9011    9.3094 H         2 RES2    0.0000
    173 C24A      14.4230   -1.2227    5.5499 C.3       1 RES1    0.0000
    174 N1A       15.6762   -1.9380    5.2870 N.2       1 RES1    0.0000
    175 C23A      15.5516   -3.2862    4.9279 C.2       1 RES1    0.0000
    176 O2A       14.4240   -3.8170    4.9681 O.2       1 RES1    0.0000
    177 C22A      16.7503   -4.0443    4.5061 C.2       1 RES1    0.0000
    178 C20A      17.7484   -3.6985    3.5839 C.2       1 RES1    0.0000
    179 C18A      18.7234   -4.5626    3.1335 C.2       1 RES1    0.0000
    180 C17A      18.8405   -5.8335    3.6025 C.2       1 RES1    0.0000
    181 C16A      20.0072   -6.6944    3.1139 C.2       1 RES1    0.0000
    182 C14A      21.2291   -6.1545    2.8167 C.2       1 RES1    0.0000
    183 C12A      22.3238   -6.9447    2.3399 C.2       1 RES1    0.0000
    184 C11A      22.1923   -8.3417    2.2192 C.2       1 RES1    0.0000
    185 O1A       23.1774   -9.1408    1.7414 O.3       1 RES1    0.0000
    186 C10A      24.2550   -8.7635    1.2460 C.3       1 RES1    0.0000
    187 C9A       25.1668   -9.8090    0.5886 C.3       1 RES1    0.0000
    188 C8A       26.2847   -9.5840   -0.0098 C.3       1 RES1    0.0000
    189 C7A       27.3504  -10.4082   -0.5886 C.3       1 RES1    0.0000
    190 C6A       28.5191   -9.9912   -1.2558 C.3       1 RES1    0.0000
    191 C5A       29.3712  -11.0972   -1.7954 C.3       1 RES1    0.0000
    192 C4A       30.8665  -11.1108   -2.3546 C.3       1 RES1    0.0000
    193 C2A       31.6178  -12.3196   -3.1394 C.2       1 RES1    0.0000
    194 C1A       32.3963  -13.5184   -4.2971 C.3       1 RES1    0.0000
    195 H1A       32.6865  -13.4576   -5.1644 H         1 RES1    0.0000
    196 H2A       32.3008  -14.4905   -4.0734 H         1 RES1    0.0000
    197 H3A       33.4434  -13.4740   -3.8105 H         1 RES1    0.0000
    198 H8A       30.6026  -10.3375   -2.9452 H         1 RES1    0.0000
    199 H9A       31.2150  -10.6967   -1.5668 H         1 RES1    0.0000
    200 H10A      29.4619  -11.8844   -1.0919 H         1 RES1    0.0000
    201 H11A      28.8499  -11.5402   -2.4752 H         1 RES1    0.0000
    202 H12A      28.6070   -9.3091   -1.7914 H         1 RES1    0.0000
    203 H13A      29.1695   -9.6899   -0.3964 H         1 RES1    0.0000
    204 H14A      27.3514  -11.1223   -0.0863 H         1 RES1    0.0000
    205 H15A      26.7764  -10.6589   -1.4500 H         1 RES1    0.0000
    206 H16A      26.2174   -8.7117   -0.6053 H         1 RES1    0.0000
    207 H17A      26.9172   -9.0518    0.7358 H         1 RES1    0.0000
    208 H18A      25.2750  -10.6477    1.1645 H         1 RES1    0.0000
    209 H19A      24.5572  -10.2399   -0.1501 H         1 RES1    0.0000
    210 H20A      25.0161   -8.4156    2.0338 H         1 RES1    0.0000
    211 H21A      24.3980   -7.9431    0.6926 H         1 RES1    0.0000
    212 C13A      20.9980   -8.8290    2.5606 C.2       1 RES1    0.0000
    213 C15A      19.8880   -8.0557    3.0197 C.2       1 RES1    0.0000
    214 H25A      19.0263   -8.4521    3.2513 H         1 RES1    0.0000
    215 H23A      20.9080   -9.8268    2.4968 H         1 RES1    0.0000
    216 H22A      23.1721   -6.4631    2.0377 H         1 RES1    0.0000
    217 H24A      21.3655   -5.1702    2.9020 H         1 RES1    0.0000
    218 C19A      17.8409   -6.3014    4.4629 C.2       1 RES1    0.0000
    219 C21A      16.8655   -5.4076    4.8798 C.2       1 RES1    0.0000
    220 H29A      16.1777   -5.8472    5.5126 H         1 RES1    0.0000
    221 H27A      17.8957   -7.2442    4.8112 H         1 RES1    0.0000
    222 H26A      19.3876   -4.1983    2.4448 H         1 RES1    0.0000
    223 H28A      17.6766   -2.6849    3.2464 H         1 RES1    0.0000
    224 C25A      16.9982   -1.3610    5.5901 C.3       1 RES1    0.0000
    225 C26A      17.1176   -1.0834    7.1020 C.3       1 RES1    0.0000
    226 C28A      18.5362   -0.5954    7.5170 C.3       1 RES1    0.0000
    227 N2A       18.9120    0.5098    6.6085 N.2       1 RES1    0.0000
    228 O3A       19.9334    1.1655    7.0176 O.2       1 RES1    0.0000
    229 C29A      18.6030    0.5634    5.1840 C.3       1 RES1    0.0000
    230 C27A      17.2269   -0.0485    4.9181 C.3       1 RES1    0.0000
    231 H32A      17.7239   -1.9573    5.3370 H         1 RES1    0.0000
    232 H35A      16.5344    0.5403    5.1967 H         1 RES1    0.0000
    233 H36A      17.1367   -0.1948    3.9694 H         1 RES1    0.0000
    234 C32A      18.5348    2.0493    4.8916 C.3       1 RES1    0.0000
    235 H43A      18.6611    2.3359    3.9576 H         1 RES1    0.0000
    236 H44A      19.3063    2.5888    5.3449 H         1 RES1    0.0000
    237 H45A      17.7611    2.5562    5.2026 H         1 RES1    0.0000
    238 C33A      19.7299   -0.0642    4.3805 C.3       1 RES1    0.0000
    239 H46A      19.6133   -1.0407    4.3795 H         1 RES1    0.0000
    240 H47A      20.5864    0.1073    4.7582 H         1 RES1    0.0000
    241 H48A      19.7408    0.2034    3.4612 H         1 RES1    0.0000
    242 C30A      18.3423   -0.0515    8.9650 C.3       1 RES1    0.0000
    243 H37A      19.1807    0.0907    9.3859 H         1 RES1    0.0000
    244 H38A      17.8022   -0.6083    9.5125 H         1 RES1    0.0000
    245 H39A      17.8944    0.8181    8.9081 H         1 RES1    0.0000
    246 C31A      19.5966   -1.6883    7.5278 C.3       1 RES1    0.0000
    247 H40A      19.9296   -1.8923    6.6271 H         1 RES1    0.0000
    248 H41A      19.2252   -2.5986    7.8172 H         1 RES1    0.0000
    249 H42A      20.3278   -1.5395    8.0840 H         1 RES1    0.0000
    250 H33A      16.8673   -1.9151    7.6102 H         1 RES1    0.0000
    251 H34A      16.4523   -0.4349    7.3904 H         1 RES1    0.0000
    252 H30A      14.5834   -0.6085    6.2965 H         1 RES1    0.0000
    253 H31A      13.7717   -1.8689    5.8982 H         1 RES1    0.0000
    254 C57A      13.7954   -2.5012   10.3787 C.3       2 RES2    0.0000
    255 N3A       14.8123   -3.5291   10.0825 N.am      2 RES2    0.0000
    256 C56A      16.1130   -3.2172   10.3317 C.2       2 RES2    0.0000
    257 O5A       16.4086   -2.1495   10.9026 O.2       2 RES2    0.0000
    258 C55A      17.2661   -4.0207    9.8195 C.ar      2 RES2    0.0000
    259 C53A      18.4565   -4.1027   10.4886 C.ar      2 RES2    0.0000
    260 C51A      19.5731   -4.8126   10.0099 C.ar      2 RES2    0.0000
    261 C50A      19.5766   -5.4402    8.8149 C.ar      2 RES2    0.0000
    262 C49A      20.7368   -6.2380    8.2410 C.ar      2 RES2    0.0000
    263 C47A      21.6652   -6.8529    9.0955 C.ar      2 RES2    0.0000
    264 C45A      22.6258   -7.6073    8.6216 C.ar      2 RES2    0.0000
    265 C44A      22.7544   -7.8012    7.2697 C.ar      2 RES2    0.0000
    266 O4A       23.7978   -8.6568    6.7890 O.3       2 RES2    0.0000
    267 C43A      24.0185   -8.8019    5.5332 C.3       2 RES2    0.0000
    268 C42A      25.0567  -10.0011    5.3272 C.3       2 RES2    0.0000
    269 C41A      24.9244  -11.0227    4.7876 C.3       2 RES2    0.0000
    270 C40A      25.9010  -12.1237    4.4246 C.3       2 RES2    0.0000
    271 C39A      26.1194  -12.9581    3.8066 C.3       2 RES2    0.0000
    272 C38A      26.9318  -14.0396    3.3258 C.3       2 RES2    0.0000
    273 C37A      26.9686  -14.2453    2.2663 C.3       2 RES2    0.0000
    274 C36A      28.4389  -15.2677    2.0210 C.3       2 RES2    0.0000
    275 C35A      28.3220  -15.1277    1.0007 C.3       2 RES2    0.0000
    276 C34A      29.4747  -15.4480    0.2453 C.3       2 RES2    0.0000
    277 H49A      30.2928  -15.8790   -0.0020 H         2 RES2    0.0000
    278 H50A      30.0692  -14.6754    0.9536 H         2 RES2    0.0000
    279 H51A      29.5856  -14.5961   -0.5180 H         2 RES2    0.0000
    280 H53A      27.9319  -15.1904    0.0903 H         2 RES2    0.0000
    281 H54A      29.2235  -14.9398    2.4939 H         2 RES2    0.0000
    282 H55A      28.3168  -16.1933    2.5979 H         2 RES2    0.0000
    283 H56A      26.4770  -14.9927    1.7139 H         2 RES2    0.0000
    284 H57A      27.3817  -13.7670    1.4216 H         2 RES2    0.0000
    285 H58A      27.9518  -13.7123    3.7232 H         2 RES2    0.0000
    286 H59A      26.9084  -14.8334    3.9724 H         2 RES2    0.0000
    287 H62A      26.9660  -11.7320    4.2608 H         2 RES2    0.0000
    288 H63A      26.3609  -12.7073    5.3046 H         2 RES2    0.0000
    289 H64A      24.3083  -11.4686    5.4626 H         2 RES2    0.0000
    290 H65A      24.4611  -10.8804    4.0351 H         2 RES2    0.0000
    291 H66A      25.9326   -9.7394    4.8171 H         2 RES2    0.0000
    292 H67A      25.4178  -10.2116    6.2013 H         2 RES2    0.0000
    293 H68A      24.3901   -7.8769    5.0044 H         2 RES2    0.0000
    294 H69A      23.2129   -8.8762    4.8583 H         2 RES2    0.0000
    295 C46A      21.9018   -7.0865    6.2847 C.ar      2 RES2    0.0000
    296 C48A      20.8702   -6.3254    6.8145 C.ar      2 RES2    0.0000
    297 H73A      20.2101   -5.8273    6.1749 H         2 RES2    0.0000
    298 H71A      22.1365   -7.0891    5.3145 H         2 RES2    0.0000
    299 H70A      23.3708   -7.9968    9.1769 H         2 RES2    0.0000
    300 H72A      21.6411   -6.7309   10.0844 H         2 RES2    0.0000
    301 C52A      18.3193   -5.3659    8.0153 C.ar      2 RES2    0.0000
    302 C54A      17.2084   -4.6533    8.5706 C.ar      2 RES2    0.0000
    303 H77A      16.3169   -4.6780    8.0438 H         2 RES2    0.0000
    304 H75A      18.3025   -5.7164    7.1177 H         2 RES2    0.0000
    305 H74A      20.3679   -4.8267   10.5593 H         2 RES2    0.0000
    306 H76A      18.5506   -3.6642   11.3804 H         2 RES2    0.0000
    307 C58A      14.3538   -4.9036    9.8853 C.3       2 RES2    0.0000
    308 C59A      13.4323   -5.0316    8.6354 C.3       2 RES2    0.0000
    309 C61A      12.9836   -6.4461    8.3214 C.3       2 RES2    0.0000
    310 N4A       12.4821   -7.1225    9.5772 N.3       2 RES2    0.0000
    311 O6A       11.7932   -8.1598    9.3937 O.2       2 RES2    0.0000
    312 C62A      13.0778   -6.9283   10.9723 C.3       2 RES2    0.0000
    313 C60A      13.5421   -5.4645   11.1008 C.3       2 RES2    0.0000
    314 H80A      15.1368   -5.5534    9.7263 H         2 RES2    0.0000
    315 H83A      12.7981   -4.8626   11.2597 H         2 RES2    0.0000
    316 H84A      14.1182   -5.3135   11.9367 H         2 RES2    0.0000
    317 C65A      12.0506   -7.2500   11.9887 C.3       2 RES2    0.0000
    318 H91A      11.2370   -6.7625   11.8474 H         2 RES2    0.0000
    319 H92A      12.3247   -7.0513   12.9148 H         2 RES2    0.0000
    320 H93A      11.7883   -8.2015   12.0220 H         2 RES2    0.0000
    321 C66A      14.2762   -7.9019   11.1253 C.3       2 RES2    0.0000
    322 H94A      14.0335   -8.8098   11.2911 H         2 RES2    0.0000
    323 H95A      14.8883   -7.6369   11.8386 H         2 RES2    0.0000
    324 H96A      14.8317   -7.9092   10.3120 H         2 RES2    0.0000
    325 C63A      11.8256   -6.3048    7.4287 C.3       2 RES2    0.0000
    326 H85A      11.1981   -5.6315    7.7406 H         2 RES2    0.0000
    327 H86A      11.2945   -7.1534    7.4610 H         2 RES2    0.0000
    328 H87A      11.9646   -6.1433    6.4927 H         2 RES2    0.0000
    329 C64A      14.1408   -7.2318    7.7554 C.3       2 RES2    0.0000
    330 H88A      13.9331   -8.1748    7.7249 H         2 RES2    0.0000
    331 H89A      14.9588   -7.1484    8.2743 H         2 RES2    0.0000
    332 H90A      14.4177   -7.0057    6.8273 H         2 RES2    0.0000
    333 H81A      13.9163   -4.5824    7.8662 H         2 RES2    0.0000
    334 H82A      12.6695   -4.4709    8.7835 H         2 RES2    0.0000
    335 H78A      14.0639   -2.0014   11.1607 H         2 RES2    0.0000
    336 H79A      12.9460   -2.9453   10.6427 H         2 RES2    0.0000
@<TRIPOS>BOND
     1    1   20 1
     2    2   33 1
     3    3    8 1
     4    4   53 1
     5    5   66 2
     6    6   10 1
     7    7   33 1
     8    8   38 1
     9    9   66 1
    10   10   71 1
    11   11   12 1
    12   12   14 1
    13   14   15 1
    14   15   16 1
    15   16   17 1
    16   17   18 1
    17   18   19 1
    18   19   20 1
    19   20   96 1
    20   21    1 1
    21   22   21 1
    22   23   21 1
    23   24   22 1
    24   25   23 1
    25   26   24 1
    26   27   26 1
    27   28   27 1
    28   29   27 1
    29   30   28 1
    30   31   29 1
    31   32   30 1
    32   33   32 1
    33   34    7 1
    34   35    7 1
    35   36   35 1
    36   37   35 1
    37   38   36 1
    38   39    8 1
    39   40   38 1
    40   41   38 1
    41   42   39 1
    42   43   39 1
    43   44   45 1
    44   45   46 1
    45   46   47 1
    46   47   48 1
    47   48   49 1
    48   49   50 1
    49   50   51 1
    50   51   52 1
    51   52   53 1
    52   53  144 1
    53   54    4 1
    54   55   54 ar
    55   56   54 ar
    56   57   55 ar
    57   58   56 ar
    58   59   57 ar
    59   60   59 1
    60   61   60 ar
    61   62   60 ar
    62   63   61 ar
    63   64   62 ar
    64   65   63 ar
    65   66   65 1
    66   67    9 1
    67   68    9 1
    68   69   68 1
    69   70   68 1
    70   71   69 1
    71   72   10 1
    72   73   71 1
    73   74   71 1
    74   75   72 1
    75   76   72 1
    76   77   11 1
    77   78   11 1
    78   79   11 1
    79   84   14 1
    80   85   14 1
    81   86   15 1
    82   87   15 1
    83   88   16 1
    84   89   16 1
    85   90   17 1
    86   91   17 1
    87   92   18 1
    88   93   18 1
    89   94   19 1
    90   95   19 1
    91   97   20 1
    92   98   22 1
    93   99   23 1
    94  100   24 1
    95  101   25 1
    96  102   28 1
    97  103   29 1
    98  104   30 1
    99  105   31 1
   100  106   34 1
   101  107   34 1
   102  108   35 1
   103  109   36 1
   104  110   36 1
   105  111   37 1
   106  112   37 1
   107  113   40 1
   108  114   40 1
   109  115   40 1
   110  116   41 1
   111  117   41 1
   112  118   41 1
   113  119   42 1
   114  120   42 1
   115  121   42 1
   116  122   43 1
   117  123   43 1
   118  124   43 1
   119  125   44 1
   120  126   44 1
   121  127   44 1
   122  129   45 1
   123  130   46 1
   124  131   46 1
   125  132   47 1
   126  133   47 1
   127  134   48 1
   128  135   48 1
   129  138   50 1
   130  139   50 1
   131  140   51 1
   132  141   51 1
   133  142   52 1
   134  143   52 1
   135  145   53 1
   136  146   55 1
   137  147   56 1
   138  148   57 1
   139  149   58 1
   140  150   61 1
   141  151   62 1
   142  152   63 1
   143  153   64 1
   144  154   67 1
   145  155   67 1
   146  156   68 1
   147  157   69 1
   148  158   69 1
   149  159   70 1
   150  160   70 1
   151  161   73 1
   152  162   73 1
   153  163   73 1
   154  164   74 1
   155  165   74 1
   156  166   74 1
   157  167   75 1
   158  168   75 1
   159  169   75 1
   160  170   76 1
   161  171   76 1
   162  172   76 1
   163  173   34 1
   164  174  173 1
   165  175  174 1
   166  176  175 1
   167  177  175 1
   168  178  177 1
   169  179  178 1
   170  180  179 1
   171  181  180 1
   172  182  181 1
   173  183  182 1
   174  184  183 1
   175  185  184 1
   176  186  185 1
   177  187  186 1
   178  188  187 1
   179  189  188 1
   180  190  189 1
   181  191  190 1
   182  192  191 1
   183  193  192 1
   184  194  193 1
   185  195  194 1
   186  196  194 1
   187  197  194 1
   188  198  192 1
   189  199  192 1
   190  200  191 1
   191  201  191 1
   192  202  190 1
   193  203  190 1
   194  204  189 1
   195  205  189 1
   196  206  188 1
   197  207  188 1
   198  208  187 1
   199  209  187 1
   200  210  186 1
   201  211  186 1
   202  212  184 1
   203  213  181 1
   204  214  213 1
   205  215  212 1
   206  216  183 1
   207  217  182 1
   208  218  180 1
   209  219  177 1
   210  220  219 1
   211  221  218 1
   212  222  179 1
   213  223  178 1
   214  224  174 1
   215  225  224 1
   216  226  225 1
   217  227  226 1
   218  228  227 1
   219  229  227 1
   220  230  224 1
   221  231  224 1
   222  232  230 1
   223  233  230 1
   224  234  229 1
   225  235  234 1
   226  236  234 1
   227  237  234 1
   228  238  229 1
   229  239  238 1
   230  240  238 1
   231  241  238 1
   232  242  226 1
   233  243  242 1
   234  244  242 1
   235  245  242 1
   236  246  226 1
   237  247  246 1
   238  248  246 1
   239  249  246 1
   240  250  225 1
   241  251  225 1
   242  252  173 1
   243  253  173 1
   244  254   67 1
   245  255  254 1
   246  256  255 1
   247  257  256 2
   248  258  256 1
   249  259  258 ar
   250  260  259 ar
   251  261  260 ar
   252  262  261 1
   253  263  262 ar
   254  264  263 ar
   255  265  264 ar
   256  266  265 1
   257  267  266 1
   258  268  267 1
   259  269  268 1
   260  270  269 1
   261  271  270 1
   262  272  271 1
   263  273  272 1
   264  274  273 1
   265  275  274 1
   266  276  275 1
   267  277  276 1
   268  278  276 1
   269  279  276 1
   270  280  275 1
   271  281  274 1
   272  282  274 1
   273  283  273 1
   274  284  273 1
   275  285  272 1
   276  286  272 1
   277  287  270 1
   278  288  270 1
   279  289  269 1
   280  290  269 1
   281  291  268 1
   282  292  268 1
   283  293  267 1
   284  294  267 1
   285  295  265 ar
   286  296  262 ar
   287  297  296 1
   288  298  295 1
   289  299  264 1
   290  300  263 1
   291  301  261 ar
   292  302  258 ar
   293  303  302 1
   294  304  301 1
   295  305  260 1
   296  306  259 1
   297  307  255 1
   298  308  307 1
   299  309  308 1
   300  310  309 1
   301  311  310 1
   302  312  310 1
   303  313  307 1
   304  314  307 1
   305  315  313 1
   306  316  313 1
   307  317  312 1
   308  318  317 1
   309  319  317 1
   310  320  317 1
   311  321  312 1
   312  322  321 1
   313  323  321 1
   314  324  321 1
   315  325  309 1
   316  326  325 1
   317  327  325 1
   318  328  325 1
   319  329  309 1
   320  330  329 1
   321  331  329 1
   322  332  329 1
   323  333  308 1
   324  334  308 1
   325  335  254 1
   326  336  254 1
   327   25   26 1
   328   31   32 1
   329   37   39 1
   330   58   59 ar
   331   64   65 ar
   332   70   72 1
   333  212  213 1
   334  218  219 1
   335  229  230 1
   336  295  296 ar
   337  301  302 ar
   338  312  313 1
@<TRIPOS>SUBSTRUCTURE
     1 RES1 1
     2 RES2 4
     3 SUP3 13

@<TRIPOS>CRYSIN
  14.4650   23.1900   10.0380 100.6000  94.0200 100.2700   2 1

