# MOL2 file generated by ConQuest
# Please check atom types

@<TRIPOS>MOLECULE
XODWOC
   154   158     2
SMALL
NO_CHARGES
****
Generated from CSD

@<TRIPOS>ATOM
      1 O1         8.7348   -3.2542    8.4303 O.2       1 RES1    0.0000
      2 O2        11.2266    2.8822   12.5123 O.2       1 RES1    0.0000
      3 O3         9.5372    8.7418   14.5679 O.2       2 RES2    0.0000
      4 O4        15.1497    5.7375   13.4801 O.2       2 RES2    0.0000
      5 N1         9.8782   -1.5610    9.4240 N.am      1 RES1    0.0000
      6 N2        10.9399    1.8647   11.8141 N.3       1 RES1    0.0000
      7 N3         9.6594    6.4816   14.1799 N.am      2 RES2    0.0000
      8 N4        13.8688    5.8843   13.5353 N.3       2 RES2    0.0000
      9 C1        -7.3973    2.3533   10.5022 C.3       1 RES1    0.0000
     10 C2        -6.4505    1.9611   10.3268 C.3       1 RES1    0.0000
     11 C3        -5.2679    2.5023   10.1579 C.3       1 RES1    0.0000
     12 C4        -3.8500    1.7649   10.1644 C.3       1 RES1    0.0000
     13 C5        -2.6938    2.4765   10.0167 C.3       1 RES1    0.0000
     14 C6        -1.4055    1.6316   10.0897 C.3       1 RES1    0.0000
     15 C7        -0.2993    2.3421   10.1839 C.3       1 RES1    0.0000
     16 C8         0.9276    1.4344   10.0865 C.ar      1 RES1    0.0000
     17 C9         1.2612    0.2353   10.4372 C.ar      1 RES1    0.0000
     18 C10        1.9180    2.1291    9.8300 C.ar      1 RES1    0.0000
     19 C11        2.4588   -0.3608   10.2359 C.ar      1 RES1    0.0000
     20 C12        3.2348    1.7134    9.6156 C.ar      1 RES1    0.0000
     21 C13        3.4860    0.4124    9.6660 C.ar      1 RES1    0.0000
     22 C14        4.9156   -0.1860    9.5215 C.ar      1 RES1    0.0000
     23 C15        5.1319   -1.3750   10.0199 C.ar      1 RES1    0.0000
     24 C16        5.9590    0.3620    8.8216 C.ar      1 RES1    0.0000
     25 C17        6.3866   -2.0563    9.9647 C.ar      1 RES1    0.0000
     26 C18        7.1859   -0.2039    8.7242 C.ar      1 RES1    0.0000
     27 C19        7.4587   -1.4355    9.1366 C.ar      1 RES1    0.0000
     28 C20        8.7821   -2.1560    8.9986 C.2       1 RES1    0.0000
     29 C21       11.0706   -2.2221    9.0895 C.3       1 RES1    0.0000
     30 C22        9.9272   -0.3720   10.2505 C.3       1 RES1    0.0000
     31 C23       10.5595   -0.6634   11.5527 C.3       1 RES1    0.0000
     32 C24       10.7018    0.7362    9.6010 C.3       1 RES1    0.0000
     33 C25       10.5305    0.6533   12.6000 C.3       1 RES1    0.0000
     34 C26       10.6320    2.0675   10.3950 C.3       1 RES1    0.0000
     35 C27       11.5017    0.3978   13.6635 C.3       1 RES1    0.0000
     36 C28        9.1768    0.8080   13.1764 C.3       1 RES1    0.0000
     37 C29       11.6060    3.0749    9.8852 C.3       1 RES1    0.0000
     38 C30        9.2592    2.7309   10.3284 C.3       1 RES1    0.0000
     39 C31       -8.0491    5.1436   13.3680 C.3       2 RES2    0.0000
     40 C32       -6.7109    5.1155   13.3599 C.3       2 RES2    0.0000
     41 C33       -5.7658    6.0815   13.9266 C.3       2 RES2    0.0000
     42 C34       -4.2769    6.0815   13.9802 C.3       2 RES2    0.0000
     43 C35       -3.4560    6.9197   14.1442 C.3       2 RES2    0.0000
     44 C36       -1.9473    6.7998   14.1019 C.3       2 RES2    0.0000
     45 C37       -1.1959    7.9428   14.1198 C.3       2 RES2    0.0000
     46 C38        0.3319    7.7187   14.3130 C.ar      2 RES2    0.0000
     47 C39        1.0407    8.8572   14.0776 C.ar      2 RES2    0.0000
     48 C40        1.0002    6.5533   14.5192 C.ar      2 RES2    0.0000
     49 C41        2.4815    8.8875   14.2692 C.ar      2 RES2    0.0000
     50 C42        2.3969    6.5174   14.6378 C.ar      2 RES2    0.0000
     51 C43        3.1683    7.6683   14.2935 C.ar      2 RES2    0.0000
     52 C44        4.6546    7.5988   14.3569 C.ar      2 RES2    0.0000
     53 C45        5.3927    8.5603   13.6635 C.ar      2 RES2    0.0000
     54 C46        5.3045    6.6608   15.0486 C.ar      2 RES2    0.0000
     55 C47        6.7931    8.5244   13.7756 C.ar      2 RES2    0.0000
     56 C48        6.6741    6.5891   15.0599 C.ar      2 RES2    0.0000
     57 C49        7.4672    7.5170   14.3390 C.ar      2 RES2    0.0000
     58 C50        9.0044    7.7265   14.3877 C.2       2 RES2    0.0000
     59 C51        9.0903    5.1873   13.6895 C.3       2 RES2    0.0000
     60 C52       11.1538    6.6048   14.1231 C.3       2 RES2    0.0000
     61 C53       11.6816    6.6093   12.7575 C.3       2 RES2    0.0000
     62 C54       11.7866    5.4147   14.8424 C.3       2 RES2    0.0000
     63 C55       13.2370    6.8368   12.6114 C.3       2 RES2    0.0000
     64 C56       13.3373    5.5683   14.9008 C.3       2 RES2    0.0000
     65 C57       13.6855    6.4154   11.1695 C.3       2 RES2    0.0000
     66 C58       13.6399    8.3092   12.9751 C.3       2 RES2    0.0000
     67 C59       13.9153    4.1227   15.2840 C.3       2 RES2    0.0000
     68 C60       13.8168    6.5757   15.9514 C.3       2 RES2    0.0000
     69 H1        -7.7862    2.6278   11.4244 H         1 RES1    0.0000
     70 H2        -7.3598    3.3125   10.0995 H         1 RES1    0.0000
     71 H3        -8.1843    1.9980   10.0621 H         1 RES1    0.0000
     72 H4        -6.1907    1.3727   11.3871 H         1 RES1    0.0000
     73 H5        -6.3976    1.0489    9.8852 H         1 RES1    0.0000
     74 H6        -5.4434    3.0772    9.3737 H         1 RES1    0.0000
     75 H7        -5.1187    3.2632   10.8805 H         1 RES1    0.0000
     76 H8        -3.9815    1.0097   10.7360 H         1 RES1    0.0000
     77 H9        -4.0053    1.2170    9.2000 H         1 RES1    0.0000
     78 H10       -2.8366    3.2251    9.4516 H         1 RES1    0.0000
     79 H11       -2.8129    3.0200   10.9893 H         1 RES1    0.0000
     80 H12       -1.5676    0.8595   10.6548 H         1 RES1    0.0000
     81 H13       -1.5239    1.1397    9.1301 H         1 RES1    0.0000
     82 H14       -0.4273    3.1254    9.5085 H         1 RES1    0.0000
     83 H15       -0.5026    2.8844   11.0396 H         1 RES1    0.0000
     84 H16        0.5159   -0.3631   10.9016 H         1 RES1    0.0000
     85 H17        2.0631    3.2957   10.0443 H         1 RES1    0.0000
     86 H18        2.5816   -1.6103   10.3366 H         1 RES1    0.0000
     87 H19        4.0677    2.2076    9.2243 H         1 RES1    0.0000
     88 H20        4.3445   -1.8837   10.4665 H         1 RES1    0.0000
     89 H21        5.8137    1.2371    8.3702 H         1 RES1    0.0000
     90 H22        6.4567   -2.9494   10.4242 H         1 RES1    0.0000
     91 H23        7.9072    0.3855    8.2485 H         1 RES1    0.0000
     92 H24       11.6110   -2.5516    9.9014 H         1 RES1    0.0000
     93 H25       10.9940   -3.0088    8.5537 H         1 RES1    0.0000
     94 H26       11.7650   -1.6652    8.6382 H         1 RES1    0.0000
     95 H27        9.0214   -0.0448   10.4031 H         1 RES1    0.0000
     96 H28       10.1446   -1.4590   11.9619 H         1 RES1    0.0000
     97 H29       11.5011   -0.9536   11.3968 H         1 RES1    0.0000
     98 H30       11.6295    0.4090    9.4224 H         1 RES1    0.0000
     99 H31       10.3667    0.8158    8.6203 H         1 RES1    0.0000
    100 H32       11.1242    0.4370   14.5679 H         1 RES1    0.0000
    101 H33       11.9256   -0.4919   13.6213 H         1 RES1    0.0000
    102 H34       12.2331    1.0287   13.6668 H         1 RES1    0.0000
    103 H35        9.1138    0.8427   14.1003 H         1 RES1    0.0000
    104 H36        8.7892    1.6753   12.8322 H         1 RES1    0.0000
    105 H37        8.5461    0.1434   12.8387 H         1 RES1    0.0000
    106 H38       12.0462    3.5635   10.5460 H         1 RES1    0.0000
    107 H39       12.2901    2.6368    9.3266 H         1 RES1    0.0000
    108 H40       11.1876    3.7226    9.2649 H         1 RES1    0.0000
    109 H41        8.8386    2.9259   11.1549 H         1 RES1    0.0000
    110 H42        9.2713    3.6016    9.8283 H         1 RES1    0.0000
    111 H43        8.5952    2.2065    9.8024 H         1 RES1    0.0000
    112 H44       -8.3270    6.0019   13.1017 H         2 RES2    0.0000
    113 H45       -8.5413    4.4667   13.0579 H         2 RES2    0.0000
    114 H46       -8.3547    5.1850   14.4202 H         2 RES2    0.0000
    115 H47       -6.3883    4.2045   13.9315 H         2 RES2    0.0000
    116 H48       -6.3955    4.8085   12.5026 H         2 RES2    0.0000
    117 H49       -6.0042    6.8245   13.3112 H         2 RES2    0.0000
    118 H50       -6.1046    6.2899   14.7644 H         2 RES2    0.0000
    119 H51       -4.0835    5.4181   14.6946 H         2 RES2    0.0000
    120 H52       -4.0134    5.5346   13.1504 H         2 RES2    0.0000
    121 H53       -3.6744    7.6593   13.3518 H         2 RES2    0.0000
    122 H54       -3.6822    7.4946   14.8943 H         2 RES2    0.0000
    123 H55       -1.6659    6.1409   14.8050 H         2 RES2    0.0000
    124 H56       -1.7010    6.1274   13.2544 H         2 RES2    0.0000
    125 H57       -1.4265    8.3978   13.1634 H         2 RES2    0.0000
    126 H58       -1.6264    8.5255   14.6962 H         2 RES2    0.0000
    127 H59        0.6318    9.6909   13.6554 H         2 RES2    0.0000
    128 H60        0.4095    5.7991   14.4348 H         2 RES2    0.0000
    129 H61        3.0098    9.7268   14.1961 H         2 RES2    0.0000
    130 H62        2.7986    5.6568   15.0729 H         2 RES2    0.0000
    131 H63        4.9860    9.1676   12.9410 H         2 RES2    0.0000
    132 H64        4.7802    5.9246   15.5113 H         2 RES2    0.0000
    133 H65        7.2883    9.3021   13.4151 H         2 RES2    0.0000
    134 H66        7.1710    5.9381   15.6461 H         2 RES2    0.0000
    135 H67        8.4597    4.8040   14.2724 H         2 RES2    0.0000
    136 H68        8.5530    5.3677   12.8306 H         2 RES2    0.0000
    137 H69        9.7386    4.5552   13.4249 H         2 RES2    0.0000
    138 H70       11.4261    7.4408   14.5257 H         2 RES2    0.0000
    139 H71       11.4451    5.8058   12.3581 H         2 RES2    0.0000
    140 H72       11.2273    7.3388   12.2785 H         2 RES2    0.0000
    141 H73       11.4098    5.3408   15.6964 H         2 RES2    0.0000
    142 H74       11.5776    4.6113   14.3374 H         2 RES2    0.0000
    143 H75       13.2620    5.5201   10.9113 H         2 RES2    0.0000
    144 H76       13.4584    6.9925   10.4648 H         2 RES2    0.0000
    145 H77       14.6416    6.2081   11.0900 H         2 RES2    0.0000
    146 H78       14.5784    8.4280   13.0254 H         2 RES2    0.0000
    147 H79       13.2887    8.9334   12.3305 H         2 RES2    0.0000
    148 H80       13.2647    8.5782   13.8405 H         2 RES2    0.0000
    149 H81       13.5888    3.7529   16.0764 H         2 RES2    0.0000
    150 H82       13.6509    3.4571   14.5550 H         2 RES2    0.0000
    151 H83       14.8704    4.0823   15.2743 H         2 RES2    0.0000
    152 H84       14.7620    6.5040   16.1089 H         2 RES2    0.0000
    153 H85       13.6727    7.4991   15.6364 H         2 RES2    0.0000
    154 H86       13.3661    6.4984   16.7811 H         2 RES2    0.0000
@<TRIPOS>BOND
     1    1   28 2
     2    2    6 1
     3    3   58 2
     4    4    8 1
     5    5   28 1
     6    6   33 1
     7    7   58 1
     8    8   63 1
     9    9   10 1
    10   10   11 1
    11   11   12 1
    12   12   13 1
    13   13   14 1
    14   14   15 1
    15   15   16 1
    16   16   17 ar
    17   17   19 ar
    18   18   16 ar
    19   19   21 ar
    20   20   18 ar
    21   21   20 ar
    22   22   21 1
    23   23   22 ar
    24   24   22 ar
    25   25   23 ar
    26   26   24 ar
    27   27   25 ar
    28   28   27 1
    29   29    5 1
    30   30    5 1
    31   31   30 1
    32   32   30 1
    33   33   31 1
    34   34    6 1
    35   35   33 1
    36   36   33 1
    37   37   34 1
    38   38   34 1
    39   39   40 1
    40   40   41 1
    41   41   42 1
    42   42   43 1
    43   43   44 1
    44   44   45 1
    45   45   46 1
    46   46   47 ar
    47   47   49 ar
    48   48   46 ar
    49   49   51 ar
    50   50   48 ar
    51   51   50 ar
    52   52   51 1
    53   53   52 ar
    54   54   52 ar
    55   55   53 ar
    56   56   54 ar
    57   57   55 ar
    58   58   57 1
    59   59    7 1
    60   60    7 1
    61   61   60 1
    62   62   60 1
    63   63   61 1
    64   64    8 1
    65   65   63 1
    66   66   63 1
    67   67   64 1
    68   68   64 1
    69   69    9 1
    70   70    9 1
    71   71    9 1
    72   72   10 1
    73   73   10 1
    74   74   11 1
    75   75   11 1
    76   76   12 1
    77   77   12 1
    78   78   13 1
    79   79   13 1
    80   80   14 1
    81   81   14 1
    82   82   15 1
    83   83   15 1
    84   84   17 1
    85   85   18 1
    86   86   19 1
    87   87   20 1
    88   88   23 1
    89   89   24 1
    90   90   25 1
    91   91   26 1
    92   92   29 1
    93   93   29 1
    94   94   29 1
    95   95   30 1
    96   96   31 1
    97   97   31 1
    98   98   32 1
    99   99   32 1
   100  100   35 1
   101  101   35 1
   102  102   35 1
   103  103   36 1
   104  104   36 1
   105  105   36 1
   106  106   37 1
   107  107   37 1
   108  108   37 1
   109  109   38 1
   110  110   38 1
   111  111   38 1
   112  112   39 1
   113  113   39 1
   114  114   39 1
   115  115   40 1
   116  116   40 1
   117  117   41 1
   118  118   41 1
   119  119   42 1
   120  120   42 1
   121  121   43 1
   122  122   43 1
   123  123   44 1
   124  124   44 1
   125  125   45 1
   126  126   45 1
   127  127   47 1
   128  128   48 1
   129  129   49 1
   130  130   50 1
   131  131   53 1
   132  132   54 1
   133  133   55 1
   134  134   56 1
   135  135   59 1
   136  136   59 1
   137  137   59 1
   138  138   60 1
   139  139   61 1
   140  140   61 1
   141  141   62 1
   142  142   62 1
   143  143   65 1
   144  144   65 1
   145  145   65 1
   146  146   66 1
   147  147   66 1
   148  148   66 1
   149  149   67 1
   150  150   67 1
   151  151   67 1
   152  152   68 1
   153  153   68 1
   154  154   68 1
   155   26   27 ar
   156   32   34 1
   157   56   57 ar
   158   62   64 1
@<TRIPOS>SUBSTRUCTURE
     1 RES1 1
     2 RES2 3

@<TRIPOS>CRYSIN
  62.2100   11.2060   16.2860  90.0000  94.4400  90.0000  15 1

