# MOL2 file generated by ConQuest
# Please check atom types

@<TRIPOS>MOLECULE
XOHCII
    31    31     1
SMALL
NO_CHARGES
****
Generated from CSD

@<TRIPOS>ATOM
      1 O1         0.5247    6.6179    7.3904 O.2       1 RES1    0.0000
      2 O2         2.1806    5.7762    6.2707 O.2       1 RES1    0.0000
      3 O3        -0.1885    7.1812    4.2419 O.2       1 RES1    0.0000
      4 N1         0.9607    5.8596    6.5446 N.pl3     1 RES1    0.0000
      5 C1         1.8363    5.3961    1.8297 C.ar      1 RES1    0.0000
      6 H1         1.9897    4.5938    2.3142 H         1 RES1    0.0000
      7 C2         2.4109    5.5714    0.5762 C.ar      1 RES1    0.0000
      8 H2         2.9565    4.8886    0.2044 H         1 RES1    0.0000
      9 C3         2.1869    6.7453   -0.1338 C.ar      1 RES1    0.0000
     10 H3         2.5791    6.8648   -0.9902 H         1 RES1    0.0000
     11 C4         1.3880    7.7439    0.4108 C.ar      1 RES1    0.0000
     12 H4         1.2349    8.5468   -0.0748 H         1 RES1    0.0000
     13 C5         0.8134    7.5692    1.6643 C.ar      1 RES1    0.0000
     14 H5         0.2678    8.2521    2.0362 H         1 RES1    0.0000
     15 C6         1.0377    6.3954    2.3732 C.ar      1 RES1    0.0000
     16 C7         0.3846    6.2306    3.7173 C.2       1 RES1    0.0000
     17 C8         0.3635    4.8722    4.3525 C.3       1 RES1    0.0000
     18 H6         1.2622    4.4474    4.2409 H         1 RES1    0.0000
     19 C9         0.0193    4.9234    5.8430 C.3       1 RES1    0.0000
     20 H7        -0.9139    5.2687    5.9463 H         1 RES1    0.0000
     21 C10        0.1210    3.5722    6.5383 C.3       1 RES1    0.0000
     22 H8        -0.4648    2.9275    6.0674 H         1 RES1    0.0000
     23 H9         1.0524    3.2440    6.4603 H         1 RES1    0.0000
     24 C11       -0.2663    3.6005    8.0109 C.3       1 RES1    0.0000
     25 H10        0.3310    4.2078    8.4954 H         1 RES1    0.0000
     26 H11       -0.1903    2.6984    8.3869 H         1 RES1    0.0000
     27 H12       -1.1910    3.9130    8.0993 H         1 RES1    0.0000
     28 C12       -0.6800    4.0298    3.6141 C.3       1 RES1    0.0000
     29 H13       -1.5780    4.3312    3.8627 H         1 RES1    0.0000
     30 H14       -0.5709    3.0871    3.8585 H         1 RES1    0.0000
     31 H15       -0.5564    4.1316    2.6471 H         1 RES1    0.0000
@<TRIPOS>BOND
     1    1    4 2
     2    2    4 2
     3    3   16 2
     4    4   19 1
     5    5    6 1
     6    7    5 ar
     7    8    7 1
     8    9    7 ar
     9   10    9 1
    10   11    9 ar
    11   12   11 1
    12   13   11 ar
    13   14   13 1
    14   15    5 ar
    15   16   15 1
    16   17   16 1
    17   18   17 1
    18   19   17 1
    19   20   19 1
    20   21   19 1
    21   22   21 1
    22   23   21 1
    23   24   21 1
    24   25   24 1
    25   26   24 1
    26   27   24 1
    27   28   17 1
    28   29   28 1
    29   30   28 1
    30   31   28 1
    31   13   15 ar
@<TRIPOS>SUBSTRUCTURE
     1 RES1 1

@<TRIPOS>CRYSIN
   8.4867    6.5654   11.1325  90.0000 108.8780  90.0000   4 1

