# MOL2 file generated by ConQuest
# Please check atom types

@<TRIPOS>MOLECULE
XOHDUT
    34    35     1
SMALL
NO_CHARGES
****
Generated from CSD

@<TRIPOS>ATOM
      1 O1         4.8790    2.9330    2.3044 O.3       1 RES1    0.0000
      2 C1         4.6475    2.5084    3.5463 C.2       1 RES1    0.0000
      3 C2         5.6699    3.0449    4.5163 C.3       1 RES1    0.0000
      4 C3         6.2982    4.1918    3.7069 C.3       1 RES1    0.0000
      5 C4         6.1164    3.7210    2.2487 C.3       1 RES1    0.0000
      6 O2         3.6941    1.8149    3.7895 O.2       1 RES1    0.0000
      7 C5         5.0431    3.3968    5.8731 C.3       1 RES1    0.0000
      8 C6         6.0509    3.9252    6.8584 C.ar      1 RES1    0.0000
      9 C7         7.1605    3.1649    7.2371 C.ar      1 RES1    0.0000
     10 C8         8.1174    3.6956    8.0698 C.ar      1 RES1    0.0000
     11 C9         7.9912    4.9694    8.5660 C.ar      1 RES1    0.0000
     12 C10        6.8751    5.7205    8.2322 C.ar      1 RES1    0.0000
     13 C11        5.9145    5.1956    7.3824 C.ar      1 RES1    0.0000
     14 C12        7.7176    4.5021    4.1215 C.3       1 RES1    0.0000
     15 N1         8.3742    5.5509    3.2771 N.pl3     1 RES1    0.0000
     16 O3         7.7181    6.1659    2.4515 O.2       1 RES1    0.0000
     17 O4         9.5591    5.7390    3.4664 O.2       1 RES1    0.0000
     18 C13        7.1900    2.8395    1.6619 C.3       1 RES1    0.0000
     19 O5         7.3985    1.6972    2.4551 O.3       1 RES1    0.0000
     20 H1         6.2651    2.3561    4.5980 H         1 RES1    0.0000
     21 H2         5.7102    5.0202    3.9689 H         1 RES1    0.0000
     22 H3         5.9754    4.4237    1.6691 H         1 RES1    0.0000
     23 H4         4.3165    4.0441    5.7170 H         1 RES1    0.0000
     24 H5         4.6163    2.6214    6.3415 H         1 RES1    0.0000
     25 H6         7.2509    2.2811    6.8521 H         1 RES1    0.0000
     26 H7         8.9734    3.2687    8.2582 H         1 RES1    0.0000
     27 H8         8.7402    5.2302    9.1915 H         1 RES1    0.0000
     28 H9         6.8490    6.7209    8.4556 H         1 RES1    0.0000
     29 H10        5.1639    5.7240    7.0701 H         1 RES1    0.0000
     30 H11        8.2716    3.7175    3.9680 H         1 RES1    0.0000
     31 H12        7.8085    4.9094    4.9659 H         1 RES1    0.0000
     32 H13        8.0211    3.4049    1.5623 H         1 RES1    0.0000
     33 H14        6.8885    2.5130    0.7313 H         1 RES1    0.0000
     34 H15        8.2401    1.6395    2.8150 H         1 RES1    0.0000
@<TRIPOS>BOND
     1    1    2 1
     2    2    3 1
     3    3    4 1
     4    4    5 1
     5    5    1 1
     6    6    2 2
     7    7    3 1
     8    8    7 1
     9    9    8 ar
    10   10    9 ar
    11   11   10 ar
    12   12   11 ar
    13   13    8 ar
    14   14    4 1
    15   15   14 1
    16   16   15 2
    17   17   15 2
    18   18    5 1
    19   19   18 1
    20   20    3 1
    21   21    4 1
    22   22    5 1
    23   23    7 1
    24   24    7 1
    25   25    9 1
    26   26   10 1
    27   27   11 1
    28   28   12 1
    29   29   13 1
    30   30   14 1
    31   31   14 1
    32   32   18 1
    33   33   18 1
    34   34   19 1
    35   12   13 ar
@<TRIPOS>SUBSTRUCTURE
     1 RES1 1

@<TRIPOS>CRYSIN
   6.2410   11.5380    9.1280  90.0000 100.5600  90.0000   4 1

