# MOL2 file generated by ConQuest
# Please check atom types

@<TRIPOS>MOLECULE
XOHFAB
    48    48     2
SMALL
NO_CHARGES
****
Generated from CSD

@<TRIPOS>ATOM
      1 O1        -0.2972    0.7654    8.9394 O.3       1 RES1    0.0000
      2 C1         0.0479   -0.3249    9.6390 C.2       1 RES1    0.0000
      3 C2         0.0135   -0.0369   11.1216 C.3       1 RES1    0.0000
      4 C3         0.0918    1.5034   11.1681 C.3       1 RES1    0.0000
      5 C4        -0.6617    1.8423    9.8737 C.3       1 RES1    0.0000
      6 O2         0.3209   -1.3620    9.0931 O.2       1 RES1    0.0000
      7 C5        -0.3901    3.1687    9.2244 C.3       1 RES1    0.0000
      8 O3        -1.2872    3.3101    8.1430 O.3       1 RES1    0.0000
      9 C6         1.5003    2.0742   11.1495 C.3       1 RES1    0.0000
     10 N1         2.2398    1.8666   12.4378 N.pl3     1 RES1    0.0000
     11 O4         3.4481    1.7239   12.3850 O.2       1 RES1    0.0000
     12 O5         1.6115    1.8844   13.4820 O.2       1 RES1    0.0000
     13 C7         1.0127   -0.8766   11.9032 C.3       1 RES1    0.0000
     14 H1        -0.9166   -0.1707   11.3987 H         1 RES1    0.0000
     15 H2        -0.3962    1.8653   11.8867 H         1 RES1    0.0000
     16 H3        -1.5406    1.7595    9.9926 H         1 RES1    0.0000
     17 H4         0.5098    3.1942    8.8874 H         1 RES1    0.0000
     18 H5        -0.5067    3.8376    9.8427 H         1 RES1    0.0000
     19 H6        -1.0922    3.9510    7.8173 H         1 RES1    0.0000
     20 H7         1.5330    3.0285   11.0213 H         1 RES1    0.0000
     21 H8         2.0685    1.5888   10.4599 H         1 RES1    0.0000
     22 H9         0.7927   -1.8143   11.7957 H         1 RES1    0.0000
     23 H10        1.9399   -0.7071   11.6561 H         1 RES1    0.0000
     24 H11        0.9354   -0.7008   12.8317 H         1 RES1    0.0000
     25 O6         2.4224   -1.5512   18.1707 O.3       2 RES2    0.0000
     26 C8         1.8092   -0.3861   18.4250 C.2       2 RES2    0.0000
     27 C9         1.2854    0.2140   17.1347 C.3       2 RES2    0.0000
     28 C10        2.2177   -0.4357   16.0853 C.3       2 RES2    0.0000
     29 C11        2.4276   -1.8118   16.7294 C.3       2 RES2    0.0000
     30 O7         1.7232    0.0382   19.5489 O.2       2 RES2    0.0000
     31 C12        3.6533   -2.6425   16.4420 C.3       2 RES2    0.0000
     32 O8         4.8707   -1.9761   16.6974 O.3       2 RES2    0.0000
     33 C13        3.4471    0.4192   15.8703 C.3       2 RES2    0.0000
     34 N2         4.3253   -0.0854   14.7640 N.pl3     2 RES2    0.0000
     35 O9         3.8332   -0.8536   13.9431 O.2       2 RES2    0.0000
     36 O10        5.4668    0.3325   14.7092 O.2       2 RES2    0.0000
     37 C14        1.1243    1.7086   17.1533 C.3       2 RES2    0.0000
     38 H12        0.4286   -0.1210   16.9703 H         2 RES2    0.0000
     39 H13        1.7618   -0.5147   15.2479 H         2 RES2    0.0000
     40 H14        1.6552   -2.2755   16.5733 H         2 RES2    0.0000
     41 H15        3.5865   -2.8986   15.5084 H         2 RES2    0.0000
     42 H16        3.6878   -3.4656   16.9859 H         2 RES2    0.0000
     43 H17        4.9522   -1.8959   17.4914 H         2 RES2    0.0000
     44 H18        3.2108    1.2907   15.5736 H         2 RES2    0.0000
     45 H19        4.0036    0.5033   16.6033 H         2 RES2    0.0000
     46 H20        0.4447    1.8678   17.7003 H         2 RES2    0.0000
     47 H21        1.9618    2.1430   17.3911 H         2 RES2    0.0000
     48 H22        0.8800    2.0042   16.2435 H         2 RES2    0.0000
@<TRIPOS>BOND
     1    1    2 1
     2    2    3 1
     3    3    4 1
     4    4    5 1
     5    5    1 1
     6    6    2 2
     7    7    5 1
     8    8    7 1
     9    9    4 1
    10   10    9 1
    11   11   10 2
    12   12   10 2
    13   13    3 1
    14   14    3 1
    15   15    4 1
    16   16    5 1
    17   17    7 1
    18   18    7 1
    19   19    8 1
    20   20    9 1
    21   21    9 1
    22   22   13 1
    23   23   13 1
    24   24   13 1
    25   25   26 1
    26   26   27 1
    27   27   28 1
    28   28   29 1
    29   29   25 1
    30   30   26 2
    31   31   29 1
    32   32   31 1
    33   33   28 1
    34   34   33 1
    35   35   34 2
    36   36   34 2
    37   37   27 1
    38   38   27 1
    39   39   28 1
    40   40   29 1
    41   41   31 1
    42   42   31 1
    43   43   32 1
    44   44   33 1
    45   45   33 1
    46   46   37 1
    47   47   37 1
    48   48   37 1
@<TRIPOS>SUBSTRUCTURE
     1 RES1 1
     2 RES2 25

@<TRIPOS>CRYSIN
   6.5240   12.7410   10.4370  90.0000  97.8600  90.0000   4 1

