# MOL2 file generated by ConQuest
# Please check atom types

@<TRIPOS>MOLECULE
XOHPIT
    68    72     2
SMALL
NO_CHARGES
****
Generated from CSD

@<TRIPOS>ATOM
      1 O1         0.8085    2.9479    0.9011 O.3       1 RES1    0.0000
      2 O2         4.0657    1.1321    1.4943 O.3       1 RES1    0.0000
      3 H1         3.9847    1.3871    2.2727 H         1 RES1    0.0000
      4 N1         1.9654    2.7125    0.0192 N.3       1 RES1    0.0000
      5 N2        -1.2435    4.1963   -3.2087 N.1       1 RES1    0.0000
      6 C1        -0.3123    3.4719    0.1263 C.3       1 RES1    0.0000
      7 H2        -1.1657    3.0922    0.4259 H         1 RES1    0.0000
      8 C2        -0.3100    4.9753    0.2214 C.3       1 RES1    0.0000
      9 H3        -0.5992    5.2457    1.1069 H         1 RES1    0.0000
     10 H4        -0.9344    5.3424   -0.4235 H         1 RES1    0.0000
     11 C3         1.0766    5.5231   -0.0481 C.3       1 RES1    0.0000
     12 H5         1.6208    5.4110    0.7471 H         1 RES1    0.0000
     13 H6         1.0118    6.4731   -0.2322 H         1 RES1    0.0000
     14 C4         1.7612    4.8352   -1.2200 C.3       1 RES1    0.0000
     15 H7         2.7137    5.0131   -1.1718 H         1 RES1    0.0000
     16 H8         1.4316    5.2247   -2.0453 H         1 RES1    0.0000
     17 C5         1.5465    3.3122   -1.2753 C.3       1 RES1    0.0000
     18 C6         2.3221    2.7321   -2.4700 C.3       1 RES1    0.0000
     19 H9         1.8691    2.9871   -3.2881 H         1 RES1    0.0000
     20 H10        3.2078    3.1287   -2.4881 H         1 RES1    0.0000
     21 C7         2.4663    1.2148   -2.4423 C.3       1 RES1    0.0000
     22 H11        1.5988    0.8000   -2.5711 H         1 RES1    0.0000
     23 H12        3.0507    0.9275   -3.1606 H         1 RES1    0.0000
     24 C8         3.0405    0.7958   -1.1201 C.3       1 RES1    0.0000
     25 H13        3.9195    1.1895   -1.0094 H         1 RES1    0.0000
     26 H14        3.1379   -0.1695   -1.1009 H         1 RES1    0.0000
     27 C9         2.1317    1.2400    0.0265 C.3       1 RES1    0.0000
     28 H15        1.2513    0.8281   -0.0962 H         1 RES1    0.0000
     29 C10        0.0400    3.0166   -1.2873 C.3       1 RES1    0.0000
     30 H16       -0.1005    2.0498   -1.3631 H         1 RES1    0.0000
     31 C11        2.6792    0.8126    1.3643 C.3       1 RES1    0.0000
     32 H17        2.1817    1.2540    2.0706 H         1 RES1    0.0000
     33 H18        2.5601   -0.1443    1.4678 H         1 RES1    0.0000
     34 C12       -0.6956    3.6975   -2.3533 C.1       1 RES1    0.0000
     35 O3         2.9092    1.9167    4.6116 O.3       2 RES2    0.0000
     36 O4         3.8382    4.1795    1.7963 O.3       2 RES2    0.0000
     37 H19        3.1667    3.8390    1.4678 H         2 RES2    0.0000
     38 N3         4.2348    2.3468    4.1411 N.3       2 RES2    0.0000
     39 N4         5.3756    0.4203    8.3858 N.1       2 RES2    0.0000
     40 C13        3.0390    1.2442    5.8941 C.3       2 RES2    0.0000
     41 H20        2.3069    1.4922    6.4969 H         2 RES2    0.0000
     42 C14        3.0765   -0.2312    5.6751 C.3       2 RES2    0.0000
     43 H21        2.2018   -0.5422    5.3948 H         2 RES2    0.0000
     44 H22        3.3064   -0.6781    6.5041 H         2 RES2    0.0000
     45 C15        4.1031   -0.5674    4.6104 C.3       2 RES2    0.0000
     46 H23        4.3268   -1.5090    4.6777 H         2 RES2    0.0000
     47 H24        3.7098   -0.4189    3.7369 H         2 RES2    0.0000
     48 C16        5.3637    0.2410    4.7198 C.3       2 RES2    0.0000
     49 H25        5.8253    0.2018    3.8668 H         2 RES2    0.0000
     50 H26        5.9378   -0.1779    5.3804 H         2 RES2    0.0000
     51 C17        5.1825    1.7149    5.1036 C.3       2 RES2    0.0000
     52 C18        6.5368    2.4197    5.1265 C.3       2 RES2    0.0000
     53 H27        7.0290    2.1745    4.3276 H         2 RES2    0.0000
     54 H28        7.0411    2.1031    5.8917 H         2 RES2    0.0000
     55 C19        6.4399    3.9469    5.1975 C.3       2 RES2    0.0000
     56 H29        6.0511    4.2159    6.0433 H         2 RES2    0.0000
     57 H30        7.3241    4.3392    5.1277 H         2 RES2    0.0000
     58 C20        5.5697    4.4205    4.0521 C.3       2 RES2    0.0000
     59 H31        5.9654    4.1487    3.2087 H         2 RES2    0.0000
     60 H32        5.5162    5.3886    4.0629 H         2 RES2    0.0000
     61 C21        4.1715    3.8292    4.1748 C.3       2 RES2    0.0000
     62 H33        3.7975    4.1024    5.0387 H         2 RES2    0.0000
     63 C22        4.3826    1.7794    6.4090 C.3       2 RES2    0.0000
     64 H34        4.2804    2.7153    6.6857 H         2 RES2    0.0000
     65 C23        3.2407    4.3182    3.0752 C.3       2 RES2    0.0000
     66 H35        2.4156    3.8096    3.1016 H         2 RES2    0.0000
     67 H36        3.0226    5.2513    3.2280 H         2 RES2    0.0000
     68 C24        4.9407    1.0018    7.5111 C.1       2 RES2    0.0000
@<TRIPOS>BOND
     1    1    4 1
     2    2    3 1
     3    4   17 1
     4    5   34 3
     5    6    1 1
     6    7    6 1
     7    8    6 1
     8    9    8 1
     9   10    8 1
    10   11    8 1
    11   12   11 1
    12   13   11 1
    13   14   11 1
    14   15   14 1
    15   16   14 1
    16   17   14 1
    17   18   17 1
    18   19   18 1
    19   20   18 1
    20   21   18 1
    21   22   21 1
    22   23   21 1
    23   24   21 1
    24   25   24 1
    25   26   24 1
    26   27    4 1
    27   28   27 1
    28   29    6 1
    29   30   29 1
    30   31    2 1
    31   32   31 1
    32   33   31 1
    33   34   29 1
    34   35   38 1
    35   36   37 1
    36   38   51 1
    37   39   68 3
    38   40   35 1
    39   41   40 1
    40   42   40 1
    41   43   42 1
    42   44   42 1
    43   45   42 1
    44   46   45 1
    45   47   45 1
    46   48   45 1
    47   49   48 1
    48   50   48 1
    49   51   48 1
    50   52   51 1
    51   53   52 1
    52   54   52 1
    53   55   52 1
    54   56   55 1
    55   57   55 1
    56   58   55 1
    57   59   58 1
    58   60   58 1
    59   61   38 1
    60   62   61 1
    61   63   40 1
    62   64   63 1
    63   65   36 1
    64   66   65 1
    65   67   65 1
    66   68   63 1
    67   17   29 1
    68   24   27 1
    69   27   31 1
    70   51   63 1
    71   58   61 1
    72   61   65 1
@<TRIPOS>SUBSTRUCTURE
     1 RES1 1
     2 RES2 35

@<TRIPOS>CRYSIN
   6.9490   14.0110   12.0550  90.0000  93.6000  90.0000   4 1

