# MOL2 file generated by ConQuest
# Please check atom types

@<TRIPOS>MOLECULE
XOJCOO
    45    49     1
SMALL
NO_CHARGES
****
Generated from CSD

@<TRIPOS>ATOM
      1 O1        -0.2627   -0.0740    9.2007 O.3       1 RES1    0.0000
      2 O2         0.0923   -2.2211    9.7939 O.2       1 RES1    0.0000
      3 O3        -5.8297   -2.0763   13.2879 O.2       1 RES1    0.0000
      4 O4        -6.1714   -0.0740   12.6665 O.2       1 RES1    0.0000
      5 N1        -5.4970   -1.0772   12.6947 N.pl3     1 RES1    0.0000
      6 C1         1.4162    1.0147    5.4671 C.3       1 RES1    0.0000
      7 C2         0.5762    1.4992    6.6023 C.3       1 RES1    0.0000
      8 C3         1.1899    1.4064    7.9720 C.3       1 RES1    0.0000
      9 C4         1.3506    2.4889    8.9816 C.3       1 RES1    0.0000
     10 C5         2.5700    1.8669    8.3640 C.3       1 RES1    0.0000
     11 C6         3.2967    0.7647    9.1200 C.3       1 RES1    0.0000
     12 C7         2.1880   -0.2573    9.4608 C.3       1 RES1    0.0000
     13 C8         1.0349   -0.0104    8.4934 C.3       1 RES1    0.0000
     14 C9         0.9321   -0.8522    7.2032 C.3       1 RES1    0.0000
     15 C10        0.4354    0.0917    6.1039 C.3       1 RES1    0.0000
     16 C11        4.3584    0.1396    8.2064 C.3       1 RES1    0.0000
     17 C12        3.9849    1.2814   10.3820 C.3       1 RES1    0.0000
     18 C13       -0.5728   -1.2179    9.8234 C.2       1 RES1    0.0000
     19 C14       -1.8657   -1.1199   10.5742 C.ar      1 RES1    0.0000
     20 C15       -2.2993   -2.2659   11.2405 C.ar      1 RES1    0.0000
     21 C16       -3.4991   -2.2545   11.9323 C.ar      1 RES1    0.0000
     22 C17       -4.2219   -1.0928   11.9516 C.ar      1 RES1    0.0000
     23 C18       -3.8193    0.0604   11.3148 C.ar      1 RES1    0.0000
     24 C19       -2.6225    0.0354   10.6139 C.ar      1 RES1    0.0000
     25 H1         2.3962    0.8689    5.5991 H         1 RES1    0.0000
     26 H2         1.2517    1.3575    4.5421 H         1 RES1    0.0000
     27 H3         0.0289    2.3295    6.7112 H         1 RES1    0.0000
     28 H4         1.1325    2.3118    9.9413 H         1 RES1    0.0000
     29 H5         1.0989    3.4286    8.7497 H         1 RES1    0.0000
     30 H6         3.3776    2.2742    7.9399 H         1 RES1    0.0000
     31 H7         1.8804   -0.1292   10.4025 H         1 RES1    0.0000
     32 H8         2.5359   -1.1897    9.3480 H         1 RES1    0.0000
     33 H9         0.2848   -1.6033    7.3326 H         1 RES1    0.0000
     34 H10        1.8289   -1.2231    6.9611 H         1 RES1    0.0000
     35 H11       -0.2581   -0.5001    5.6926 H         1 RES1    0.0000
     36 H12        4.8382   -0.5865    8.7010 H         1 RES1    0.0000
     37 H13        5.0142    0.8407    7.9271 H         1 RES1    0.0000
     38 H14        3.9163   -0.2469    7.3967 H         1 RES1    0.0000
     39 H15        4.4467    0.5240   10.8433 H         1 RES1    0.0000
     40 H16        3.3023    1.6783   10.9957 H         1 RES1    0.0000
     41 H17        4.6557    1.9794   10.1322 H         1 RES1    0.0000
     42 H18       -1.7429   -3.0962   11.2200 H         1 RES1    0.0000
     43 H19       -3.8288   -3.0733   12.4026 H         1 RES1    0.0000
     44 H20       -4.3736    0.8918   11.3558 H         1 RES1    0.0000
     45 H21       -2.3067    0.8553   10.1386 H         1 RES1    0.0000
@<TRIPOS>BOND
     1    1   13 1
     2    2   18 2
     3    3    5 2
     4    4    5 2
     5    5   22 1
     6    6    7 1
     7    7    8 1
     8    8    9 1
     9    9   10 1
    10   10    8 1
    11   11   10 1
    12   12   11 1
    13   13    8 1
    14   14   13 1
    15   15    6 1
    16   16   11 1
    17   17   11 1
    18   18    1 1
    19   19   18 1
    20   20   19 ar
    21   21   20 ar
    22   22   21 ar
    23   23   22 ar
    24   24   19 ar
    25   25    6 1
    26   26    6 1
    27   27    7 1
    28   28    9 1
    29   29    9 1
    30   30   10 1
    31   31   12 1
    32   32   12 1
    33   33   14 1
    34   34   14 1
    35   35   15 1
    36   36   16 1
    37   37   16 1
    38   38   16 1
    39   39   17 1
    40   40   17 1
    41   41   17 1
    42   42   20 1
    43   43   21 1
    44   44   23 1
    45   45   24 1
    46    7   15 1
    47   12   13 1
    48   14   15 1
    49   23   24 ar
@<TRIPOS>SUBSTRUCTURE
     1 RES1 1

@<TRIPOS>CRYSIN
  12.4350   10.4180   13.0830  90.0000 101.6700  90.0000  14 2

