# MOL2 file generated by ConQuest
# Please check atom types

@<TRIPOS>MOLECULE
XOJMIT
    54    56     2
SMALL
NO_CHARGES
****
Generated from CSD

@<TRIPOS>ATOM
      1 C1        -0.2895    4.7639   -6.0326 C.ar      1 RES1    0.0000
      2 C2        -1.4968    4.1588   -6.3825 C.ar      1 RES1    0.0000
      3 H1        -2.0065    4.4961   -7.0824 H         1 RES1    0.0000
      4 C3        -1.9219    3.0625   -5.6809 C.ar      1 RES1    0.0000
      5 H2        -2.7222    2.6489   -5.9125 H         1 RES1    0.0000
      6 C4        -1.1598    2.5584   -4.6171 C.ar      1 RES1    0.0000
      7 C5         0.0460    3.1845   -4.2864 C.ar      1 RES1    0.0000
      8 H3         0.5575    2.8572   -3.5813 H         1 RES1    0.0000
      9 C6         0.4734    4.2709   -4.9880 C.ar      1 RES1    0.0000
     10 H4         1.2778    4.6810   -4.7651 H         1 RES1    0.0000
     11 C7        -1.3423   -0.1529   -2.3921 C.2       1 RES1    0.0000
     12 H5        -2.1914   -0.4388   -2.6428 H         1 RES1    0.0000
     13 C8        -0.6234   -0.8781   -1.4050 C.2       1 RES1    0.0000
     14 C9         0.6062   -0.5012   -0.9349 C.2       1 RES1    0.0000
     15 H6         1.0643    0.2672   -1.1874 H         1 RES1    0.0000
     16 C10        1.0519   -1.4190   -0.0453 C.2       1 RES1    0.0000
     17 H7         1.8634   -1.3839    0.4074 H         1 RES1    0.0000
     18 C11        0.1329   -2.3857    0.0749 C.2       1 RES1    0.0000
     19 H8         0.1904   -3.1355    0.6215 H         1 RES1    0.0000
     20 C12        5.4100    4.5474   -5.6478 C.ar      2 RES2    0.0000
     21 C13        4.8369    3.3163   -5.3048 C.ar      2 RES2    0.0000
     22 H9         5.1601    2.8256   -4.5841 H         2 RES2    0.0000
     23 C14        3.7936    2.8554   -6.0500 C.ar      2 RES2    0.0000
     24 H10        3.4054    2.0380   -5.8341 H         2 RES2    0.0000
     25 C15        3.2952    3.5888   -7.1329 C.ar      2 RES2    0.0000
     26 C16        3.8979    4.8140   -7.4846 C.ar      2 RES2    0.0000
     27 H11        3.5817    5.3041   -8.2088 H         2 RES2    0.0000
     28 C17        4.9663    5.2767   -6.7360 C.ar      2 RES2    0.0000
     29 H12        5.3844    6.0755   -6.9640 H         2 RES2    0.0000
     30 C18        0.5194    3.3595   -9.2743 C.2       2 RES2    0.0000
     31 H13        0.2279    2.5252   -8.9853 H         2 RES2    0.0000
     32 C19       -0.2503    4.0666  -10.2493 C.2       2 RES2    0.0000
     33 C20        0.1291    5.2884  -10.7455 C.2       2 RES2    0.0000
     34 H14        0.9121    5.7406  -10.5296 H         2 RES2    0.0000
     35 C21       -0.8267    5.7301  -11.6056 C.2       2 RES2    0.0000
     36 H15       -0.8099    6.5387  -12.0652 H         2 RES2    0.0000
     37 C22       -1.8090    4.7983  -11.6822 C.2       2 RES2    0.0000
     38 H16       -2.5759    4.8491  -12.2062 H         2 RES2    0.0000
     39 N1         0.1628    5.9133   -6.7516 N.pl3     1 RES1    0.0000
     40 N2        -1.6081    1.4738   -3.9382 N.pl3     1 RES1    0.0000
     41 H17       -2.3795    1.1430   -4.1262 H         1 RES1    0.0000
     42 N3        -0.8382    0.8933   -2.9423 N.2       1 RES1    0.0000
     43 N4        -0.9216   -2.0607   -0.7695 N.pl3     1 RES1    0.0000
     44 H18       -1.6390   -2.5223   -0.8775 H         1 RES1    0.0000
     45 N5         6.4511    5.0737   -4.8243 N.pl3     2 RES2    0.0000
     46 N6         2.2153    3.0993   -7.8206 N.pl3     2 RES2    0.0000
     47 H19        1.9169    2.3128   -7.6413 H         2 RES2    0.0000
     48 N7         1.6091    3.8473   -8.7851 N.2       2 RES2    0.0000
     49 N8        -1.4548    3.7440  -10.8291 N.pl3     2 RES2    0.0000
     50 H20       -1.9090    3.0258  -10.6933 H         2 RES2    0.0000
     51 O1         1.2048    6.4576   -6.4069 O.2       1 RES1    0.0000
     52 O2        -0.5351    6.3520   -7.6935 O.2       1 RES1    0.0000
     53 O3         6.9906    6.1496   -5.1516 O.2       2 RES2    0.0000
     54 O4         6.7642    4.4902   -3.7780 O.2       2 RES2    0.0000
@<TRIPOS>BOND
     1    1    2 ar
     2    2    3 1
     3    4    2 ar
     4    5    4 1
     5    6    4 ar
     6    7    6 ar
     7    8    7 1
     8    9    1 ar
     9   10    9 1
    10   11   12 1
    11   13   11 1
    12   14   13 2
    13   15   14 1
    14   16   14 1
    15   17   16 1
    16   18   16 2
    17   19   18 1
    18   20   21 ar
    19   21   22 1
    20   23   21 ar
    21   24   23 1
    22   25   23 ar
    23   26   25 ar
    24   27   26 1
    25   28   20 ar
    26   29   28 1
    27   30   31 1
    28   32   30 1
    29   33   32 2
    30   34   33 1
    31   35   33 1
    32   36   35 1
    33   37   35 2
    34   38   37 1
    35   39    1 1
    36   40    6 1
    37   41   40 1
    38   42   11 2
    39   43   13 1
    40   44   43 1
    41   45   20 1
    42   46   25 1
    43   47   46 1
    44   48   30 2
    45   49   32 1
    46   50   49 1
    47   51   39 2
    48   52   39 2
    49   53   45 2
    50   54   45 2
    51    7    9 ar
    52   18   43 1
    53   26   28 ar
    54   37   49 1
    55   40   42 1
    56   46   48 1
@<TRIPOS>SUBSTRUCTURE
     1 RES1 1
     2 RES2 20

