# MOL2 file generated by ConQuest
# Please check atom types

@<TRIPOS>MOLECULE
XOJMIT01
    27    28     1
SMALL
NO_CHARGES
****
Generated from CSD

@<TRIPOS>ATOM
      1 C1         1.3469    5.0615    7.8427 C.ar      1 RES1    0.0000
      2 C2         0.1138    4.4229    7.7401 C.ar      1 RES1    0.0000
      3 H1        -0.3739    4.2210    8.5052 H         1 RES1    0.0000
      4 C3        -0.3721    4.0947    6.5129 C.ar      1 RES1    0.0000
      5 H2        -1.1951    3.6674    6.4411 H         1 RES1    0.0000
      6 C4         0.3661    4.3981    5.3436 C.ar      1 RES1    0.0000
      7 C5         1.6274    5.0036    5.4753 C.ar      1 RES1    0.0000
      8 H3         2.1368    5.1819    4.7178 H         1 RES1    0.0000
      9 C6         2.1103    5.3294    6.7161 C.ar      1 RES1    0.0000
     10 H4         2.9454    5.7296    6.8023 H         1 RES1    0.0000
     11 C7        -1.8394    3.5234    2.7664 C.2       1 RES1    0.0000
     12 H5        -1.4101    3.9507    2.0610 H         1 RES1    0.0000
     13 C8        -3.0761    2.8081    2.5513 C.2       1 RES1    0.0000
     14 C9        -3.6234    2.0279    3.5297 C.2       1 RES1    0.0000
     15 H6        -3.2675    1.9146    4.3816 H         1 RES1    0.0000
     16 C10       -4.7571    1.4460    3.0822 C.2       1 RES1    0.0000
     17 H7        -5.3074    0.8747    3.5669 H         1 RES1    0.0000
     18 C11       -4.9528    1.8449    1.7936 C.2       1 RES1    0.0000
     19 H8        -5.6512    1.5864    1.2369 H         1 RES1    0.0000
     20 N1         1.8370    5.4522    9.1371 N.pl3     1 RES1    0.0000
     21 N2        -0.1331    4.1680    4.1017 N.pl3     1 RES1    0.0000
     22 H9         0.3137    4.4075    3.4074 H         1 RES1    0.0000
     23 N3        -1.3421    3.5566    3.9580 N.2       1 RES1    0.0000
     24 N4        -3.9124    2.7149    1.4626 N.pl3     1 RES1    0.0000
     25 H10       -3.8124    3.1209    0.7115 H         1 RES1    0.0000
     26 O1         2.9791    5.8936    9.2322 O.2       1 RES1    0.0000
     27 O2         1.1072    5.3672   10.1137 O.2       1 RES1    0.0000
@<TRIPOS>BOND
     1    1    2 ar
     2    2    3 1
     3    4    2 ar
     4    5    4 1
     5    6    4 ar
     6    7    6 ar
     7    8    7 1
     8    9    1 ar
     9   10    9 1
    10   11   12 1
    11   13   11 1
    12   14   13 2
    13   15   14 1
    14   16   14 1
    15   17   16 1
    16   18   16 2
    17   19   18 1
    18   20    1 1
    19   21    6 1
    20   22   21 1
    21   23   11 2
    22   24   13 1
    23   25   24 1
    24   26   20 2
    25   27   20 2
    26    7    9 ar
    27   18   24 1
    28   21   23 1
@<TRIPOS>SUBSTRUCTURE
     1 RES1 1

@<TRIPOS>CRYSIN
   6.0209   11.8038   15.6375  90.0000  90.0000  90.0000  19 1

