# MOL2 file generated by ConQuest
# Please check atom types

@<TRIPOS>MOLECULE
XONVOL
    43    44     1
SMALL
NO_CHARGES
****
Generated from CSD

@<TRIPOS>ATOM
      1 O1        -5.6089   -0.1094    9.3794 O.3       1 RES1    0.0000
      2 O2        -1.5298   -0.6840    9.6152 O.3       1 RES1    0.0000
      3 O3        -1.2808   -1.0435   11.8300 O.2       1 RES1    0.0000
      4 O4         4.6665   -3.3333    8.3894 O.2       1 RES1    0.0000
      5 O5         5.0845   -3.3712   10.5098 O.2       1 RES1    0.0000
      6 N1         4.3536   -3.1312    9.5591 N.pl3     1 RES1    0.0000
      7 C1        -4.8375    0.8909    8.6735 C.3       1 RES1    0.0000
      8 C2        -5.3420    0.9669    7.2049 C.3       1 RES1    0.0000
      9 C3        -4.8719   -0.3979    6.6453 C.3       1 RES1    0.0000
     10 C4        -3.5493   -0.7266    7.3708 C.3       1 RES1    0.0000
     11 C5        -3.4240    0.2939    8.5266 C.3       1 RES1    0.0000
     12 C6        -2.9204   -0.2843    9.8329 C.3       1 RES1    0.0000
     13 C7        -0.8503   -1.0657   10.6963 C.2       1 RES1    0.0000
     14 C8         0.5221   -1.5596   10.3569 C.ar      1 RES1    0.0000
     15 C9         0.9813   -1.6171    9.0410 C.ar      1 RES1    0.0000
     16 C10        2.2411   -2.1351    8.7679 C.ar      1 RES1    0.0000
     17 C11        3.0193   -2.5695    9.8339 C.ar      1 RES1    0.0000
     18 C12        2.5930   -2.5118   11.1469 C.ar      1 RES1    0.0000
     19 C13        1.3240   -2.0038   11.4088 C.ar      1 RES1    0.0000
     20 C14       -4.8715    2.2040    9.4374 C.3       1 RES1    0.0000
     21 H1        -5.7587    2.5686    9.4069 H         1 RES1    0.0000
     22 H2        -4.2570    2.8239    9.0371 H         1 RES1    0.0000
     23 H3        -4.6199    2.0488   10.3508 H         1 RES1    0.0000
     24 C15       -6.8595    1.1463    7.1205 C.3       1 RES1    0.0000
     25 H4        -7.1055    1.9834    7.5214 H         1 RES1    0.0000
     26 H5        -7.2930    0.4281    7.5876 H         1 RES1    0.0000
     27 H6        -7.1319    1.1403    6.1998 H         1 RES1    0.0000
     28 C16       -4.6543    2.0983    6.4309 C.3       1 RES1    0.0000
     29 H7        -4.9672    2.1012    5.5229 H         1 RES1    0.0000
     30 H8        -3.7042    1.9611    6.4417 H         1 RES1    0.0000
     31 H9        -4.8606    2.9404    6.8435 H         1 RES1    0.0000
     32 H10       -6.2622    0.3194    9.8132 H         1 RES1    0.0000
     33 H11       -5.5563   -1.1337    6.8515 H         1 RES1    0.0000
     34 H12       -4.7499   -0.3653    5.6405 H         1 RES1    0.0000
     35 H13       -2.7888   -0.6834    6.7647 H         1 RES1    0.0000
     36 H14       -3.5822   -1.6705    7.7337 H         1 RES1    0.0000
     37 H15       -2.7939    1.0421    8.2496 H         1 RES1    0.0000
     38 H16       -2.9328    0.3666   10.5654 H         1 RES1    0.0000
     39 H17       -3.4093   -1.0918   10.0974 H         1 RES1    0.0000
     40 H18        0.4386   -1.3183    8.3284 H         1 RES1    0.0000
     41 H19        2.5868   -2.1863    7.8673 H         1 RES1    0.0000
     42 H20        3.1591   -2.8173   11.8620 H         1 RES1    0.0000
     43 H21        0.9648   -1.9794   12.3253 H         1 RES1    0.0000
@<TRIPOS>BOND
     1    1    7 1
     2    2   12 1
     3    3   13 2
     4    4    6 2
     5    5    6 2
     6    6   17 1
     7    7    8 1
     8    8    9 1
     9    9   10 1
    10   10   11 1
    11   11    7 1
    12   12   11 1
    13   13    2 1
    14   14   13 1
    15   15   14 ar
    16   16   15 ar
    17   17   16 ar
    18   18   17 ar
    19   19   14 ar
    20   20    7 1
    21   21   20 1
    22   22   20 1
    23   23   20 1
    24   24    8 1
    25   25   24 1
    26   26   24 1
    27   27   24 1
    28   28    8 1
    29   29   28 1
    30   30   28 1
    31   31   28 1
    32   32    1 1
    33   33    9 1
    34   34    9 1
    35   35   10 1
    36   36   10 1
    37   37   11 1
    38   38   12 1
    39   39   12 1
    40   40   15 1
    41   41   16 1
    42   42   18 1
    43   43   19 1
    44   18   19 ar
@<TRIPOS>SUBSTRUCTURE
     1 RES1 1

@<TRIPOS>CRYSIN
  10.4932   13.0916   12.2594  90.0000 111.4100  90.0000  14 1

