# MOL2 file generated by ConQuest
# Please check atom types

@<TRIPOS>MOLECULE
XOPCUB
    60    65     1
SMALL
NO_CHARGES
****
Generated from CSD

@<TRIPOS>ATOM
      1 C1         4.7826   -1.4288    4.2074 C.ar      1 RES1    0.0000
      2 C2         6.1139   -1.7578    4.4552 C.ar      1 RES1    0.0000
      3 H1         6.3273   -2.3787    5.1418 H         1 RES1    0.0000
      4 C3         7.1210   -1.1867    3.7097 C.ar      1 RES1    0.0000
      5 H2         8.0235   -1.4233    3.8852 H         1 RES1    0.0000
      6 C4         6.8410   -0.2763    2.7124 C.ar      1 RES1    0.0000
      7 H3         7.5457    0.1005    2.1984 H         1 RES1    0.0000
      8 C5         5.5201    0.0861    2.4639 C.ar      1 RES1    0.0000
      9 C6         4.4756   -0.4957    3.2056 C.ar      1 RES1    0.0000
     10 C7         3.9954   -2.7920    5.9956 C.3       1 RES1    0.0000
     11 H4         4.5340   -2.2963    6.6467 H         1 RES1    0.0000
     12 H5         4.4894   -3.5846    5.7000 H         1 RES1    0.0000
     13 H6         3.1526   -3.0692    6.4119 H         1 RES1    0.0000
     14 C8         3.1252   -0.1042    2.7872 C.2       1 RES1    0.0000
     15 C9         5.2460    1.0496    1.3338 C.2       1 RES1    0.0000
     16 C10        2.9765    1.0593    1.9977 C.2       1 RES1    0.0000
     17 C11        4.0528    1.9915    1.5552 C.3       1 RES1    0.0000
     18 C12        3.5402    2.6682    0.2640 C.3       1 RES1    0.0000
     19 H7         4.1172    3.4439    0.0529 H         1 RES1    0.0000
     20 H8         3.6073    2.0271   -0.4869 H         1 RES1    0.0000
     21 C13        2.0840    3.1434    0.3902 C.3       1 RES1    0.0000
     22 H9         2.0298    3.7558    1.1779 H         1 RES1    0.0000
     23 C14        1.0925    1.9830    0.6240 C.3       1 RES1    0.0000
     24 H10        0.2376    2.3325    0.9787 H         1 RES1    0.0000
     25 H11        0.9098    1.5146   -0.2287 H         1 RES1    0.0000
     26 C15        1.7007    1.0499    1.5939 C.2       1 RES1    0.0000
     27 C16        1.6747    3.9386   -0.8500 C.3       1 RES1    0.0000
     28 H12        1.7788    3.3772   -1.6463 H         1 RES1    0.0000
     29 H13        2.2443    4.7314   -0.9320 H         1 RES1    0.0000
     30 H14        0.7389    4.2155   -0.7660 H         1 RES1    0.0000
     31 C17        4.4122    3.0073    2.6613 C.ar      1 RES1    0.0000
     32 C18        5.5500    3.7976    2.5570 C.ar      1 RES1    0.0000
     33 C19        5.8891    4.7600    3.5645 C.ar      1 RES1    0.0000
     34 C20        5.0356    4.8736    4.6943 C.ar      1 RES1    0.0000
     35 C21        3.8807    4.0732    4.7774 C.ar      1 RES1    0.0000
     36 H15        3.3037    4.1544    5.5279 H         1 RES1    0.0000
     37 C22        3.5832    3.1774    3.7838 C.ar      1 RES1    0.0000
     38 H16        2.7929    2.6557    3.8557 H         1 RES1    0.0000
     39 C23        7.0300    5.6285    3.4891 C.ar      1 RES1    0.0000
     40 C24        7.2807    6.5361    4.4737 C.ar      1 RES1    0.0000
     41 H17        8.0229    7.1232    4.3918 H         1 RES1    0.0000
     42 C25        6.4532    6.6155    5.6121 C.ar      1 RES1    0.0000
     43 H18        6.6561    7.2387    6.3000 H         1 RES1    0.0000
     44 C26        5.3654    5.8052    5.7333 C.ar      1 RES1    0.0000
     45 C27        4.8095    6.6201    7.8969 C.3       1 RES1    0.0000
     46 H19        4.7514    7.5616    7.6315 H         1 RES1    0.0000
     47 H20        5.7206    6.4211    8.1996 H         1 RES1    0.0000
     48 H21        4.1782    6.4465    8.6262 H         1 RES1    0.0000
     49 C28        8.9284    6.3782    2.1885 C.3       1 RES1    0.0000
     50 H22        9.6059    6.2005    2.8734 H         1 RES1    0.0000
     51 H23        8.6133    7.3026    2.2709 H         1 RES1    0.0000
     52 H24        9.3193    6.2446    1.2996 H         1 RES1    0.0000
     53 N1         1.9979   -0.7645    2.9109 N.2       1 RES1    0.0000
     54 O1         3.7177   -1.9558    4.8695 O.3       1 RES1    0.0000
     55 O2         5.9063    1.0215    0.3274 O.2       1 RES1    0.0000
     56 O3         1.0631   -0.0185    2.1299 O.3       1 RES1    0.0000
     57 O4         6.3296    3.6233    1.4570 O.3       1 RES1    0.0000
     58 H25        6.9787    4.1556    1.4865 H         1 RES1    0.0000
     59 O5         7.8281    5.4830    2.3634 O.3       1 RES1    0.0000
     60 O6         4.4886    5.7921    6.7834 O.3       1 RES1    0.0000
@<TRIPOS>BOND
     1    1    2 ar
     2    2    3 1
     3    4    2 ar
     4    5    4 1
     5    6    4 ar
     6    7    6 1
     7    8    6 ar
     8    9    1 ar
     9   10   11 1
    10   12   10 1
    11   13   10 1
    12   14    9 1
    13   15    8 1
    14   16   14 1
    15   17   15 1
    16   18   17 1
    17   19   18 1
    18   20   18 1
    19   21   18 1
    20   22   21 1
    21   23   21 1
    22   24   23 1
    23   25   23 1
    24   26   16 2
    25   27   21 1
    26   28   27 1
    27   29   27 1
    28   30   27 1
    29   31   17 1
    30   32   31 ar
    31   33   32 ar
    32   34   33 ar
    33   35   34 ar
    34   36   35 1
    35   37   31 ar
    36   38   37 1
    37   39   33 ar
    38   40   39 ar
    39   41   40 1
    40   42   40 ar
    41   43   42 1
    42   44   34 ar
    43   45   46 1
    44   47   45 1
    45   48   45 1
    46   49   50 1
    47   51   49 1
    48   52   49 1
    49   53   14 2
    50   54    1 1
    51   55   15 2
    52   56   26 1
    53   57   32 1
    54   58   57 1
    55   59   39 1
    56   60   44 1
    57    8    9 ar
    58   10   54 1
    59   16   17 1
    60   23   26 1
    61   35   37 ar
    62   42   44 ar
    63   45   60 1
    64   49   59 1
    65   53   56 1
@<TRIPOS>SUBSTRUCTURE
     1 RES1 1

@<TRIPOS>CRYSIN
   8.8450   10.8780   12.5750  96.0150  98.8170 103.1100   2 1

