# MOL2 file generated by ConQuest
# Please check atom types

@<TRIPOS>MOLECULE
XOPCIP
    49    53     1
SMALL
NO_CHARGES
****
Generated from CSD

@<TRIPOS>ATOM
      1 O1        -0.1635   -1.5988    0.9694 O.3       1 RES1    0.0000
      2 O2         3.2814    0.0660    3.0768 O.3       1 RES1    0.0000
      3 O3         3.3501    2.6636    1.2833 O.2       1 RES1    0.0000
      4 O4        -1.9673    1.2566    3.5307 O.3       1 RES1    0.0000
      5 N1        -0.7800   -0.5354    1.7248 N.2       1 RES1    0.0000
      6 C1         1.1646   -1.3805    0.9339 C.2       1 RES1    0.0000
      7 C2         2.1285   -2.1603    0.1203 C.3       1 RES1    0.0000
      8 H1         1.9643   -2.0046   -0.8439 H         1 RES1    0.0000
      9 H2         2.0252   -3.1272    0.3027 H         1 RES1    0.0000
     10 C3         3.5521   -1.6975    0.4981 C.3       1 RES1    0.0000
     11 H3         3.7764   -2.0903    1.3892 H         1 RES1    0.0000
     12 C4         3.6564   -0.1592    0.6168 C.3       1 RES1    0.0000
     13 H4         4.5982    0.0942    0.7878 H         1 RES1    0.0000
     14 H5         3.3774    0.2561   -0.2365 H         1 RES1    0.0000
     15 C5         2.7761    0.3655    1.7480 C.3       1 RES1    0.0000
     16 C6         2.5402    1.8868    1.7616 C.2       1 RES1    0.0000
     17 C7         1.3286    2.3743    2.5077 C.ar      1 RES1    0.0000
     18 C8         1.3490    3.6881    2.9919 C.ar      1 RES1    0.0000
     19 H6         2.1107    4.2382    2.8485 H         1 RES1    0.0000
     20 C9         0.2613    4.1784    3.6768 C.ar      1 RES1    0.0000
     21 H7         0.2808    5.0696    4.0052 H         1 RES1    0.0000
     22 C10       -0.8620    3.3981    3.8953 C.ar      1 RES1    0.0000
     23 H8        -1.5979    3.7485    4.3840 H         1 RES1    0.0000
     24 C11       -0.9113    2.0894    3.3940 C.ar      1 RES1    0.0000
     25 C12        0.1910    1.5665    2.7010 C.ar      1 RES1    0.0000
     26 C13        0.2242    0.2336    2.0844 C.2       1 RES1    0.0000
     27 C14        1.4598   -0.2811    1.6434 C.2       1 RES1    0.0000
     28 C15        4.5540   -2.2312   -0.5142 C.3       1 RES1    0.0000
     29 H9         4.8800   -3.1070   -0.2205 H         1 RES1    0.0000
     30 H10        5.3083   -1.6092   -0.5873 H         1 RES1    0.0000
     31 H11        4.1189   -2.3215   -1.3872 H         1 RES1    0.0000
     32 C16        4.5893    0.5765    3.3968 C.3       1 RES1    0.0000
     33 H12        4.7776    1.3865    2.8585 H         1 RES1    0.0000
     34 H13        5.2787   -0.1035    3.1893 H         1 RES1    0.0000
     35 C17        4.6209    0.9133    4.8667 C.ar      1 RES1    0.0000
     36 C18        3.6525    1.7374    5.4266 C.ar      1 RES1    0.0000
     37 H14        2.9655    2.0949    4.8752 H         1 RES1    0.0000
     38 C19        3.6758    2.0454    6.7841 C.ar      1 RES1    0.0000
     39 H15        3.0042    2.6041    7.1584 H         1 RES1    0.0000
     40 C20        4.6833    1.5338    7.5890 C.ar      1 RES1    0.0000
     41 H16        4.7036    1.7454    8.5155 H         1 RES1    0.0000
     42 C21        5.6590    0.7144    7.0449 C.ar      1 RES1    0.0000
     43 H17        6.3513    0.3682    7.5974 H         1 RES1    0.0000
     44 C22        5.6246    0.3983    5.6870 C.ar      1 RES1    0.0000
     45 H18        6.2888   -0.1713    5.3182 H         1 RES1    0.0000
     46 C23       -3.1252    1.7703    4.1896 C.3       1 RES1    0.0000
     47 H19       -3.0576    1.5959    5.1518 H         1 RES1    0.0000
     48 H20       -3.9251    1.3305    3.8328 H         1 RES1    0.0000
     49 H21       -3.1874    2.7356    4.0352 H         1 RES1    0.0000
@<TRIPOS>BOND
     1    1    5 1
     2    2   15 1
     3    3   16 2
     4    4   24 1
     5    5   26 2
     6    6    1 1
     7    7    6 1
     8    8    7 1
     9    9    7 1
    10   10    7 1
    11   11   10 1
    12   12   10 1
    13   13   12 1
    14   14   12 1
    15   15   12 1
    16   16   15 1
    17   17   16 1
    18   18   17 ar
    19   19   18 1
    20   20   18 ar
    21   21   20 1
    22   22   20 ar
    23   23   22 1
    24   24   22 ar
    25   25   17 ar
    26   26   25 1
    27   27    6 2
    28   28   10 1
    29   29   28 1
    30   30   28 1
    31   31   28 1
    32   32    2 1
    33   33   32 1
    34   34   32 1
    35   35   32 1
    36   36   35 ar
    37   37   36 1
    38   38   36 ar
    39   39   38 1
    40   40   38 ar
    41   41   40 1
    42   42   40 ar
    43   43   42 1
    44   44   35 ar
    45   45   44 1
    46   46    4 1
    47   47   46 1
    48   48   46 1
    49   49   46 1
    50   15   27 1
    51   24   25 ar
    52   26   27 1
    53   42   44 ar
@<TRIPOS>SUBSTRUCTURE
     1 RES1 1

@<TRIPOS>CRYSIN
  11.8690    7.7850   20.0460  90.0000  90.1600  90.0000  14 1

