# MOL2 file generated by ConQuest
# Please check atom types

@<TRIPOS>MOLECULE
XOPCEL
    42    45     1
SMALL
NO_CHARGES
****
Generated from CSD

@<TRIPOS>ATOM
      1 O1         9.6294    1.1178   -0.4618 O.3       1 RES1    0.0000
      2 O2         5.9789    0.6003    3.6183 O.2       1 RES1    0.0000
      3 O3         6.4297    3.8035   -1.3183 O.3       1 RES1    0.0000
      4 N1         8.4670    1.9071   -0.7492 N.2       1 RES1    0.0000
      5 C1         9.6411    0.8385    0.8660 C.2       1 RES1    0.0000
      6 C2        10.5953   -0.0985    1.5140 C.3       1 RES1    0.0000
      7 H1        11.5247    0.2029    1.3537 H         1 RES1    0.0000
      8 H2        10.4912   -1.0050    1.1292 H         1 RES1    0.0000
      9 C3        10.3079   -0.1348    3.0353 C.3       1 RES1    0.0000
     10 H3        10.7622    0.6537    3.4481 H         1 RES1    0.0000
     11 C4         8.8073   -0.0435    3.3836 C.3       1 RES1    0.0000
     12 H4         8.3306   -0.8098    2.9759 H         1 RES1    0.0000
     13 H5         8.6962   -0.1034    4.3652 H         1 RES1    0.0000
     14 C5         8.1812    1.2694    2.8799 C.3       1 RES1    0.0000
     15 C6         6.6551    1.2922    2.8907 C.2       1 RES1    0.0000
     16 C7         5.9971    2.2915    1.9647 C.ar      1 RES1    0.0000
     17 C8         4.7757    2.8348    2.3731 C.ar      1 RES1    0.0000
     18 H6         4.4013    2.5954    3.2130 H         1 RES1    0.0000
     19 C9         4.1191    3.7227    1.5449 C.ar      1 RES1    0.0000
     20 H7         3.2932    4.0999    1.8259 H         1 RES1    0.0000
     21 C10        4.6445    4.0718    0.3113 C.ar      1 RES1    0.0000
     22 H8         4.1773    4.6834   -0.2465 H         1 RES1    0.0000
     23 C11        5.8574    3.5275   -0.1153 C.ar      1 RES1    0.0000
     24 C12        6.5649    2.6529    0.7253 C.ar      1 RES1    0.0000
     25 C13        7.8721    2.0449    0.4196 C.2       1 RES1    0.0000
     26 C14        8.5893    1.4212    1.4580 C.2       1 RES1    0.0000
     27 C15       10.9170   -1.3935    3.6507 C.3       1 RES1    0.0000
     28 H9        10.2620   -2.1212    3.6204 H         1 RES1    0.0000
     29 H10       11.1648   -1.2157    4.5814 H         1 RES1    0.0000
     30 H11       11.7154   -1.6509    3.1441 H         1 RES1    0.0000
     31 C16        8.6218    2.5195    3.7175 C.3       1 RES1    0.0000
     32 H12        9.6109    2.5583    3.7384 H         1 RES1    0.0000
     33 H13        8.2977    3.3388    3.2653 H         1 RES1    0.0000
     34 C17        8.1059    2.5048    5.1260 C.2       1 RES1    0.0000
     35 H14        8.3934    1.7972    5.6907 H         1 RES1    0.0000
     36 C18        7.2925    3.3892    5.6343 C.2       1 RES1    0.0000
     37 H15        6.9827    4.1116    5.1005 H         1 RES1    0.0000
     38 H16        7.0102    3.3115    6.5378 H         1 RES1    0.0000
     39 C19        5.7761    4.7817   -2.1419 C.3       1 RES1    0.0000
     40 H17        5.1257    4.3360   -2.7242 H         1 RES1    0.0000
     41 H18        6.4421    5.2454   -2.6908 H         1 RES1    0.0000
     42 H19        5.3131    5.4307   -1.5721 H         1 RES1    0.0000
@<TRIPOS>BOND
     1    1    4 1
     2    2   15 2
     3    3   23 1
     4    4   25 2
     5    5    1 1
     6    6    5 1
     7    7    6 1
     8    8    6 1
     9    9    6 1
    10   10    9 1
    11   11    9 1
    12   12   11 1
    13   13   11 1
    14   14   11 1
    15   15   14 1
    16   16   15 1
    17   17   16 ar
    18   18   17 1
    19   19   17 ar
    20   20   19 1
    21   21   19 ar
    22   22   21 1
    23   23   21 ar
    24   24   16 ar
    25   25   24 1
    26   26    5 2
    27   27    9 1
    28   28   27 1
    29   29   27 1
    30   30   27 1
    31   31   14 1
    32   32   31 1
    33   33   31 1
    34   34   31 1
    35   35   34 1
    36   36   34 2
    37   37   36 1
    38   38   36 1
    39   39    3 1
    40   40   39 1
    41   41   39 1
    42   42   39 1
    43   14   26 1
    44   23   24 ar
    45   25   26 1
@<TRIPOS>SUBSTRUCTURE
     1 RES1 1

@<TRIPOS>CRYSIN
   7.8210   19.5140   10.4870  90.0000  95.0980  90.0000  14 2

