# MOL2 file generated by ConQuest
# Please check atom types

@<TRIPOS>MOLECULE
XOPROJ
    23    24     1
SMALL
NO_CHARGES
****
Generated from CSD

@<TRIPOS>ATOM
      1 C1         7.0052    0.9380    1.7842 C.2       1 RES1    0.0000
      2 C2         8.0693    1.5122    2.6234 C.3       1 RES1    0.0000
      3 C3         8.1178    2.9854    2.2394 C.3       1 RES1    0.0000
      4 C4         6.6996    3.2083    1.7036 C.3       1 RES1    0.0000
      5 C5         8.6104    3.9457    3.2888 C.3       1 RES1    0.0000
      6 C6        10.0821    3.7679    3.6159 C.3       1 RES1    0.0000
      7 C7         5.6400    3.7269    2.6550 C.3       1 RES1    0.0000
      8 C8         4.2519    3.7429    2.0845 C.3       1 RES1    0.0000
      9 C9         4.0932    4.6302    0.8708 C.3       1 RES1    0.0000
     10 C10        5.3860    3.3756    4.9940 C.2       1 RES1    0.0000
     11 C11        5.4378    2.3870    6.1018 C.ar      1 RES1    0.0000
     12 C12        5.6017    1.0400    5.8932 C.ar      1 RES1    0.0000
     13 C13        5.6642    0.1715    6.9536 C.ar      1 RES1    0.0000
     14 C14        5.5613    0.6658    8.2132 C.ar      1 RES1    0.0000
     15 C15        5.3941    2.0065    8.4645 C.ar      1 RES1    0.0000
     16 C16        5.3257    2.8598    7.4040 C.ar      1 RES1    0.0000
     17 N1         5.6173   -0.2437    9.3700 N.pl3     1 RES1    0.0000
     18 O1         6.2846    1.9197    1.1916 O.3       1 RES1    0.0000
     19 O2         6.7286   -0.2131    1.5946 O.2       1 RES1    0.0000
     20 O3         5.6556    2.8334    3.8150 O.3       1 RES1    0.0000
     21 O4         5.1327    4.5386    5.1631 O.2       1 RES1    0.0000
     22 O5         5.8082   -1.4205    9.1425 O.2       1 RES1    0.0000
     23 O6         5.5168    0.1861   10.4716 O.2       1 RES1    0.0000
@<TRIPOS>BOND
     1    1    2 1
     2    2    3 1
     3    3    4 1
     4    4    7 1
     5    5    3 1
     6    6    5 1
     7    7    8 1
     8    8    9 1
     9   10   11 1
    10   11   12 ar
    11   12   13 ar
    12   13   14 ar
    13   14   15 ar
    14   15   16 ar
    15   16   11 ar
    16   17   14 1
    17   18    1 1
    18   19    1 2
    19   20    7 1
    20   21   10 2
    21   22   17 2
    22   23   17 2
    23    4   18 1
    24   10   20 1
@<TRIPOS>SUBSTRUCTURE
     1 RES1 1

@<TRIPOS>CRYSIN
  14.9300    6.9429   15.8040  90.0000  90.3340  90.0000   5 1

