# MOL2 file generated by ConQuest
# Please check atom types

@<TRIPOS>MOLECULE
XOQMAT
    90    95     1
SMALL
NO_CHARGES
****
Generated from CSD

@<TRIPOS>ATOM
      1 N1         3.1815   10.7087    2.9230 N.3       1 RES1    0.0000
      2 O1         3.6838   13.8310   10.7417 O.3       1 RES1    0.0000
      3 O2         3.6686    6.5400   10.7391 O.3       1 RES1    0.0000
      4 O3         3.3818   11.9047    2.5388 O.2       1 RES1    0.0000
      5 C1         3.7402   10.1787   11.4082 C.ar      1 RES1    0.0000
      6 C2         3.6781   11.4117   10.7037 C.ar      1 RES1    0.0000
      7 C3         3.5449   11.3926    9.3141 C.ar      1 RES1    0.0000
      8 C4         3.5121   10.1922    8.5985 C.ar      1 RES1    0.0000
      9 C5         3.5466    8.9760    9.2996 C.ar      1 RES1    0.0000
     10 C6         3.6509    8.9625   10.6983 C.ar      1 RES1    0.0000
     11 C7         3.7207    7.7272   11.4440 C.ar      1 RES1    0.0000
     12 C8         3.7622   12.6459   11.4478 C.ar      1 RES1    0.0000
     13 C9         3.4603   10.2461    7.1208 C.ar      1 RES1    0.0000
     14 C10        4.1008   11.2758    6.4267 C.ar      1 RES1    0.0000
     15 C11        4.0277   11.3803    5.0573 C.ar      1 RES1    0.0000
     16 C12        3.3018   10.4572    4.3173 C.ar      1 RES1    0.0000
     17 C13        2.7148    9.3668    4.9690 C.ar      1 RES1    0.0000
     18 C14        2.7864    9.2837    6.3633 C.ar      1 RES1    0.0000
     19 C15        2.8452    9.6857    1.8629 C.3       1 RES1    0.0000
     20 C16        3.2102   10.3090    0.5164 C.3       1 RES1    0.0000
     21 C17        1.3574    9.3926    1.8864 C.3       1 RES1    0.0000
     22 C18        3.7160    8.4482    2.0784 C.3       1 RES1    0.0000
     23 C19        4.9740   14.4045   10.4776 C.3       1 RES1    0.0000
     24 C20        2.4480    5.8182   10.9107 C.3       1 RES1    0.0000
     25 H1         3.4993   12.2158    8.8372 H         1 RES1    0.0000
     26 H2         3.5026    8.1607    8.8129 H         1 RES1    0.0000
     27 H3         4.6145   11.9216    6.9204 H         1 RES1    0.0000
     28 H4         4.5043   12.0765    4.6012 H         1 RES1    0.0000
     29 H5         2.2911    8.6773    4.4703 H         1 RES1    0.0000
     30 H6         2.3629    8.5560    6.8154 H         1 RES1    0.0000
     31 H7         3.0385    9.7160   -0.1794 H         1 RES1    0.0000
     32 H8         2.6911   11.1175    0.3879 H         1 RES1    0.0000
     33 H9         4.1362   10.5684    0.5091 H         1 RES1    0.0000
     34 H10        1.1337    8.7368    1.2331 H         1 RES1    0.0000
     35 H11        0.8797   10.1899    1.7147 H         1 RES1    0.0000
     36 H12        1.1144    9.0591    2.7507 H         1 RES1    0.0000
     37 H13        3.5322    7.7867    1.4093 H         1 RES1    0.0000
     38 H14        4.6451    8.6739    2.0250 H         1 RES1    0.0000
     39 H15        3.5474    8.0641    2.9349 H         1 RES1    0.0000
     40 H16        4.8597   15.2096    9.9782 H         1 RES1    0.0000
     41 H17        5.4227   14.5942   11.2857 H         1 RES1    0.0000
     42 H18        5.4875   13.7913    9.9604 H         1 RES1    0.0000
     43 H19        2.4842    5.0085   10.4226 H         1 RES1    0.0000
     44 H20        2.3152    5.6306   11.8335 H         1 RES1    0.0000
     45 H21        1.7271    6.3516   10.5923 H         1 RES1    0.0000
     46 N1B        4.4451   10.7087   21.3194 N.3       1 RES1    0.0000
     47 O1B        3.9427   13.8310   13.5008 O.3       1 RES1    0.0000
     48 O2B        3.9579    6.5400   13.5033 O.3       1 RES1    0.0000
     49 O3B        4.2447   11.9047   21.7036 O.2       1 RES1    0.0000
     50 C1B        3.8863   10.1787   12.8343 C.ar      1 RES1    0.0000
     51 C2B        3.9484   11.4117   13.5387 C.ar      1 RES1    0.0000
     52 C3B        4.0817   11.3926   14.9283 C.ar      1 RES1    0.0000
     53 C4B        4.1145   10.1922   15.6440 C.ar      1 RES1    0.0000
     54 C5B        4.0799    8.9760   14.9429 C.ar      1 RES1    0.0000
     55 C6B        3.9757    8.9625   13.5441 C.ar      1 RES1    0.0000
     56 C7B        3.9059    7.7272   12.7984 C.ar      1 RES1    0.0000
     57 C8B        3.8643   12.6459   12.7947 C.ar      1 RES1    0.0000
     58 C9B        4.1663   10.2461   17.1216 C.ar      1 RES1    0.0000
     59 C10B       3.5257   11.2758   17.8158 C.ar      1 RES1    0.0000
     60 C11B       3.5989   11.3803   19.1851 C.ar      1 RES1    0.0000
     61 C12B       4.3247   10.4572   19.9252 C.ar      1 RES1    0.0000
     62 C13B       4.9117    9.3668   19.2734 C.ar      1 RES1    0.0000
     63 C14B       4.8401    9.2837   17.8791 C.ar      1 RES1    0.0000
     64 C15B       4.7813    9.6857   22.3795 C.3       1 RES1    0.0000
     65 C16B       4.4164   10.3090   23.7261 C.3       1 RES1    0.0000
     66 C17B       6.2691    9.3926   22.3560 C.3       1 RES1    0.0000
     67 C18B       3.9105    8.4482   22.1640 C.3       1 RES1    0.0000
     68 C19B       2.6526   14.4045   13.7648 C.3       1 RES1    0.0000
     69 C20B       5.1785    5.8182   13.3317 C.3       1 RES1    0.0000
     70 H1B        4.1272   12.2158   15.4052 H         1 RES1    0.0000
     71 H2B        4.1240    8.1607   15.4295 H         1 RES1    0.0000
     72 H3B        3.0121   11.9216   17.3220 H         1 RES1    0.0000
     73 H4B        3.1222   12.0765   19.6412 H         1 RES1    0.0000
     74 H5B        5.3354    8.6773   19.7721 H         1 RES1    0.0000
     75 H6B        5.2637    8.5560   17.4271 H         1 RES1    0.0000
     76 H7B        4.5881    9.7160   24.4218 H         1 RES1    0.0000
     77 H8B        4.9354   11.1175   23.8545 H         1 RES1    0.0000
     78 H9B        3.4904   10.5684   23.7333 H         1 RES1    0.0000
     79 H10B       6.4928    8.7368   23.0093 H         1 RES1    0.0000
     80 H11B       6.7469   10.1899   22.5277 H         1 RES1    0.0000
     81 H12B       6.5122    9.0591   21.4917 H         1 RES1    0.0000
     82 H13B       4.0943    7.7867   22.8331 H         1 RES1    0.0000
     83 H14B       2.9814    8.6739   22.2174 H         1 RES1    0.0000
     84 H15B       4.0791    8.0641   21.3075 H         1 RES1    0.0000
     85 H16B       2.7669   15.2096   14.2642 H         1 RES1    0.0000
     86 H17B       2.2039   14.5942   12.9568 H         1 RES1    0.0000
     87 H18B       2.1391   13.7913   14.2820 H         1 RES1    0.0000
     88 H19B       5.1424    5.0085   13.8198 H         1 RES1    0.0000
     89 H20B       5.3113    5.6306   12.4089 H         1 RES1    0.0000
     90 H21B       5.8994    6.3516   13.6501 H         1 RES1    0.0000
@<TRIPOS>BOND
     1    1    4 1
     2    2   12 1
     3    3   11 1
     4    5    6 ar
     5    6    7 ar
     6    7    8 ar
     7    8    9 ar
     8    9   10 ar
     9   10    5 ar
    10   11   10 ar
    11   12    6 ar
    12   13    8 1
    13   14   13 ar
    14   15   14 ar
    15   16    1 1
    16   17   16 ar
    17   18   13 ar
    18   19    1 1
    19   20   19 1
    20   21   19 1
    21   22   19 1
    22   23    2 1
    23   24    3 1
    24   25    7 1
    25   26    9 1
    26   27   14 1
    27   28   15 1
    28   29   17 1
    29   30   18 1
    30   31   20 1
    31   32   20 1
    32   33   20 1
    33   34   21 1
    34   35   21 1
    35   36   21 1
    36   37   22 1
    37   38   22 1
    38   39   22 1
    39   40   23 1
    40   41   23 1
    41   42   23 1
    42   43   24 1
    43   44   24 1
    44   45   24 1
    45   46   49 1
    46   47   57 1
    47   48   56 1
    48   50    5 ar
    49   51   50 ar
    50   52   51 ar
    51   53   52 ar
    52   54   53 ar
    53   55   50 ar
    54   56   11 ar
    55   57   12 ar
    56   58   53 1
    57   59   58 ar
    58   60   59 ar
    59   61   46 1
    60   62   61 ar
    61   63   58 ar
    62   64   46 1
    63   65   64 1
    64   66   64 1
    65   67   64 1
    66   68   47 1
    67   69   48 1
    68   70   52 1
    69   71   54 1
    70   72   59 1
    71   73   60 1
    72   74   62 1
    73   75   63 1
    74   76   65 1
    75   77   65 1
    76   78   65 1
    77   79   66 1
    78   80   66 1
    79   81   66 1
    80   82   67 1
    81   83   67 1
    82   84   67 1
    83   85   68 1
    84   86   68 1
    85   87   68 1
    86   88   69 1
    87   89   69 1
    88   90   69 1
    89   15   16 ar
    90   17   18 ar
    91   51   57 ar
    92   54   55 ar
    93   55   56 ar
    94   60   61 ar
    95   62   63 ar
@<TRIPOS>SUBSTRUCTURE
     1 RES1 1

@<TRIPOS>CRYSIN
  18.1306   11.2298   17.6135  90.0000 113.4267  90.0000  15 1

