# MOL2 file generated by ConQuest
# Please check atom types

@<TRIPOS>MOLECULE
XORDUD
    40    42     1
SMALL
NO_CHARGES
****
Generated from CSD

@<TRIPOS>ATOM
      1 O1         3.6468    8.7860    0.2045 O.2       1 RES1    0.0000
      2 O2         4.1107    9.2136   -1.8686 O.2       1 RES1    0.0000
      3 O3         7.1963   -0.1078   -4.9722 O.2       1 RES1    0.0000
      4 O4         7.6316    2.0936   -4.9715 O.3       1 RES1    0.0000
      5 N1         3.9538    8.4326   -0.9326 N.pl3     1 RES1    0.0000
      6 C1         4.1643    7.0031   -1.1822 C.ar      1 RES1    0.0000
      7 C2         4.0815    6.5230   -2.4723 C.ar      1 RES1    0.0000
      8 C3         4.3344    5.1802   -2.6659 C.ar      1 RES1    0.0000
      9 C4         4.6923    4.3290   -1.6129 C.ar      1 RES1    0.0000
     10 C5         4.7717    4.8447   -0.3016 C.ar      1 RES1    0.0000
     11 C6         4.4887    6.1972   -0.1050 C.ar      1 RES1    0.0000
     12 C7         5.2023    4.0620    0.8951 C.ar      1 RES1    0.0000
     13 C8         6.3384    3.2557    0.8816 C.ar      1 RES1    0.0000
     14 C9         6.7753    2.6334    2.0377 C.ar      1 RES1    0.0000
     15 C10        6.0771    2.7901    3.2238 C.ar      1 RES1    0.0000
     16 C11        4.9382    3.5756    3.2459 C.ar      1 RES1    0.0000
     17 C12        4.5071    4.2098    2.0936 C.ar      1 RES1    0.0000
     18 C13        4.9677    2.9048   -1.9597 C.ar      1 RES1    0.0000
     19 C14        4.3344    1.8491   -1.3103 C.ar      1 RES1    0.0000
     20 C15        4.5402    0.5416   -1.7333 C.ar      1 RES1    0.0000
     21 C16        5.3830    0.2757   -2.7931 C.ar      1 RES1    0.0000
     22 C17        6.0477    1.3161   -3.4319 C.ar      1 RES1    0.0000
     23 C18        5.8321    2.6253   -3.0118 C.ar      1 RES1    0.0000
     24 C19        6.9994    1.0017   -4.5322 C.2       1 RES1    0.0000
     25 C20        8.5663    1.9155   -6.0554 C.3       1 RES1    0.0000
     26 H1         3.8165    7.1075   -3.2084 H         1 RES1    0.0000
     27 H2         4.2634    4.7970   -3.5263 H         1 RES1    0.0000
     28 H3         4.5697    6.6131    0.7900 H         1 RES1    0.0000
     29 H4         6.8468    3.1600    0.0867 H         1 RES1    0.0000
     30 H5         7.6075    2.0705    2.0040 H         1 RES1    0.0000
     31 H6         6.3645    2.3108    4.0177 H         1 RES1    0.0000
     32 H7         4.4614    3.6976    4.0370 H         1 RES1    0.0000
     33 H8         3.7177    4.7286    2.0811 H         1 RES1    0.0000
     34 H9         3.7179    2.0455   -0.5781 H         1 RES1    0.0000
     35 H10        4.0474   -0.1518   -1.2911 H         1 RES1    0.0000
     36 H11        5.5021   -0.6333   -3.1313 H         1 RES1    0.0000
     37 H12        6.3096    3.3711   -3.4396 H         1 RES1    0.0000
     38 H13        9.1288    1.1401   -5.9157 H         1 RES1    0.0000
     39 H14        8.0547    1.8251   -6.9081 H         1 RES1    0.0000
     40 H15        9.0547    2.7586   -6.1277 H         1 RES1    0.0000
@<TRIPOS>BOND
     1    1    5 2
     2    2    5 2
     3    3   24 2
     4    4   24 1
     5    5    6 1
     6    6    7 ar
     7    7    8 ar
     8    8    9 ar
     9    9   10 ar
    10   10   11 ar
    11   11    6 ar
    12   12   10 1
    13   13   12 ar
    14   14   13 ar
    15   15   14 ar
    16   16   15 ar
    17   17   12 ar
    18   18    9 1
    19   19   18 ar
    20   20   19 ar
    21   21   20 ar
    22   22   21 ar
    23   23   18 ar
    24   24   22 1
    25   25    4 1
    26   26    7 1
    27   27    8 1
    28   28   11 1
    29   29   13 1
    30   30   14 1
    31   31   15 1
    32   32   16 1
    33   33   17 1
    34   34   19 1
    35   35   20 1
    36   36   21 1
    37   37   23 1
    38   38   25 1
    39   39   25 1
    40   40   25 1
    41   16   17 ar
    42   22   23 ar
@<TRIPOS>SUBSTRUCTURE
     1 RES1 1

@<TRIPOS>CRYSIN
   9.5537    9.7090   10.0313 103.2550  92.2830 116.3270   2 1

