# MOL2 file generated by ConQuest
# Please check atom types

@<TRIPOS>MOLECULE
XORHIW
    29    29     1
SMALL
NO_CHARGES
****
Generated from CSD

@<TRIPOS>ATOM
      1 O1         0.7154    0.2495    5.5041 O.3       1 RES1    0.0000
      2 H1         1.0175   -0.0671    4.8102 H         1 RES1    0.0000
      3 O2        -1.5746   -1.0568    4.8259 O.2       1 RES1    0.0000
      4 N1        -2.9943   -3.7646    7.8508 N.3       1 RES1    0.0000
      5 N2         0.1440   -0.7590    6.2621 N.am      1 RES1    0.0000
      6 H2         0.5459   -1.0450    6.9661 H         1 RES1    0.0000
      7 C1        -1.6400   -2.1865    6.9217 C.2       1 RES1    0.0000
      8 O3        -3.8666   -4.6860    8.0005 O.2       1 RES1    0.0000
      9 C2        -1.0268   -1.2886    5.9038 C.2       1 RES1    0.0000
     10 C3        -2.5855   -3.2903    6.5028 C.3       1 RES1    0.0000
     11 C4        -2.3962   -3.0326    8.9823 C.3       1 RES1    0.0000
     12 C5        -1.5262   -2.0806    8.2209 C.2       1 RES1    0.0000
     13 H3        -0.9582   -1.4698    8.6336 H         1 RES1    0.0000
     14 C6        -3.4566   -2.2995    9.7864 C.3       1 RES1    0.0000
     15 H4        -3.9793   -1.7487    9.1993 H         1 RES1    0.0000
     16 H5        -3.0315   -1.7487   10.4475 H         1 RES1    0.0000
     17 H6        -4.0281   -2.9373   10.2189 H         1 RES1    0.0000
     18 C7        -1.8689   -4.4142    5.7689 C.3       1 RES1    0.0000
     19 H7        -1.1371   -4.7307    6.3034 H         1 RES1    0.0000
     20 H8        -1.5332   -4.0858    4.9302 H         1 RES1    0.0000
     21 H9        -2.4833   -5.1344    5.6077 H         1 RES1    0.0000
     22 C8        -3.8237   -2.8467    5.7574 C.3       1 RES1    0.0000
     23 H10       -4.4393   -3.5810    5.6933 H         1 RES1    0.0000
     24 H11       -3.5797   -2.5560    4.8759 H         1 RES1    0.0000
     25 H12       -4.2395   -2.1218    6.2294 H         1 RES1    0.0000
     26 C9        -1.6319   -3.9976    9.8752 C.3       1 RES1    0.0000
     27 H13       -0.9908   -4.4824    9.3506 H         1 RES1    0.0000
     28 H14       -2.2463   -4.6154   10.2798 H         1 RES1    0.0000
     29 H15       -1.1754   -3.5057   10.5626 H         1 RES1    0.0000
@<TRIPOS>BOND
     1    1    2 1
     2    3    9 2
     3    4    8 1
     4    5    1 1
     5    6    5 1
     6    7    9 1
     7    9    5 1
     8   10    4 1
     9   11    4 1
    10   12    7 2
    11   13   12 1
    12   14   11 1
    13   15   14 1
    14   16   14 1
    15   17   14 1
    16   18   10 1
    17   19   18 1
    18   20   18 1
    19   21   18 1
    20   22   10 1
    21   23   22 1
    22   24   22 1
    23   25   22 1
    24   26   11 1
    25   27   26 1
    26   28   26 1
    27   29   26 1
    28    7   10 1
    29   11   12 1
@<TRIPOS>SUBSTRUCTURE
     1 RES1 1

@<TRIPOS>CRYSIN
  11.6150   11.7680   16.4450  90.0000  90.0000  90.0000  60 1

