# MOL2 file generated by ConQuest
# Please check atom types

@<TRIPOS>MOLECULE
XOSREC
    41    44     1
SMALL
NO_CHARGES
****
Generated from CSD

@<TRIPOS>ATOM
      1 O1        12.5061    3.4336    0.4863 O.3       1 RES1    0.0000
      2 N1        11.7603    3.7233    1.7248 N.3       1 RES1    0.0000
      3 C1        12.7663    4.2043    2.6623 C.3       1 RES1    0.0000
      4 H1        13.4152    3.4920    2.8392 H         1 RES1    0.0000
      5 H2        12.3325    4.4670    3.5007 H         1 RES1    0.0000
      6 H3        13.2287    4.9780    2.2769 H         1 RES1    0.0000
      7 C2        10.8541    4.7862    1.2291 C.3       1 RES1    0.0000
      8 H4        11.3840    5.5877    0.9496 H         1 RES1    0.0000
      9 C3         9.8110    5.1814    2.2444 C.ar      1 RES1    0.0000
     10 C4        10.0863    6.1059    3.2556 C.ar      1 RES1    0.0000
     11 H5        10.9549    6.4853    3.3140 H         1 RES1    0.0000
     12 C5         9.1200    6.4807    4.1741 C.ar      1 RES1    0.0000
     13 H6         9.3322    7.1006    4.8622 H         1 RES1    0.0000
     14 C6         7.8396    5.9473    4.0846 C.ar      1 RES1    0.0000
     15 H7         7.1784    6.1917    4.7213 H         1 RES1    0.0000
     16 C7         7.5285    5.0617    3.0691 C.ar      1 RES1    0.0000
     17 H8         6.6486    4.7124    2.9950 H         1 RES1    0.0000
     18 C8         8.5078    4.6832    2.1567 C.ar      1 RES1    0.0000
     19 O2         8.1072    3.8285    1.1583 O.3       1 RES1    0.0000
     20 C9         9.1722    3.1370    0.4943 C.3       1 RES1    0.0000
     21 H9         8.8023    2.6325   -0.2731 H         1 RES1    0.0000
     22 H10        9.5755    2.4845    1.1203 H         1 RES1    0.0000
     23 C10       10.2580    4.0888   -0.0064 C.3       1 RES1    0.0000
     24 C11       11.4702    3.2371   -0.4826 C.3       1 RES1    0.0000
     25 H11       11.2218    2.2806   -0.5346 H         1 RES1    0.0000
     26 H12       11.7726    3.5346   -1.3775 H         1 RES1    0.0000
     27 C12        9.7124    5.0179   -1.0774 C.ar      1 RES1    0.0000
     28 C13        9.5367    6.3819   -0.9011 C.ar      1 RES1    0.0000
     29 H13        9.7371    6.7688   -0.0565 H         1 RES1    0.0000
     30 C14        9.0741    7.1997   -1.9313 C.ar      1 RES1    0.0000
     31 H14        8.9555    8.1305   -1.7850 H         1 RES1    0.0000
     32 C15        8.7893    6.6467   -3.1697 C.ar      1 RES1    0.0000
     33 C16        8.9104    5.2702   -3.3584 C.ar      1 RES1    0.0000
     34 H15        8.6871    4.8794   -4.1953 H         1 RES1    0.0000
     35 C17        9.3582    4.4801   -2.3185 C.ar      1 RES1    0.0000
     36 H16        9.4283    3.5413   -2.4508 H         1 RES1    0.0000
     37 O3         8.3789    7.3699   -4.2639 O.3       1 RES1    0.0000
     38 C18        8.4295    8.7939   -4.1463 C.3       1 RES1    0.0000
     39 H17        7.7679    9.0909   -3.4879 H         1 RES1    0.0000
     40 H18        8.2316    9.2007   -5.0158 H         1 RES1    0.0000
     41 H19        9.3242    9.0662   -3.8550 H         1 RES1    0.0000
@<TRIPOS>BOND
     1    1    2 1
     2    2    3 1
     3    3    4 1
     4    5    3 1
     5    6    3 1
     6    7    2 1
     7    8    7 1
     8    9    7 1
     9   10    9 ar
    10   11   10 1
    11   12   10 ar
    12   13   12 1
    13   14   12 ar
    14   15   14 1
    15   16   14 ar
    16   17   16 1
    17   18    9 ar
    18   19   18 1
    19   20   19 1
    20   21   20 1
    21   22   20 1
    22   23    7 1
    23   24    1 1
    24   25   24 1
    25   26   24 1
    26   27   23 1
    27   28   27 ar
    28   29   28 1
    29   30   28 ar
    30   31   30 1
    31   32   30 ar
    32   33   32 ar
    33   34   33 1
    34   35   27 ar
    35   36   35 1
    36   37   32 1
    37   38   37 1
    38   39   38 1
    39   40   38 1
    40   41   38 1
    41   16   18 ar
    42   20   23 1
    43   23   24 1
    44   33   35 ar
@<TRIPOS>SUBSTRUCTURE
     1 RES1 1

@<TRIPOS>CRYSIN
  12.6825   11.2067   11.1528  90.0000 106.9260  90.0000  14 1

