# MOL2 file generated by ConQuest
# Please check atom types

@<TRIPOS>MOLECULE
XOTCIU
    70    73     1
SMALL
NO_CHARGES
****
Generated from CSD

@<TRIPOS>ATOM
      1 N1         2.4888    2.3466    6.2684 N.3       1 RES1    0.0000
      2 O1         0.1983    5.9244    3.5644 O.3       1 RES1    0.0000
      3 O2         0.1598   -1.3686    3.5918 O.3       1 RES1    0.0000
      4 O3         2.9029    3.5166    6.6145 O.2       1 RES1    0.0000
      5 C1        -0.3062    4.7417    3.0639 C.ar      1 RES1    0.0000
      6 C2         0.1946    3.5083    3.6242 C.ar      1 RES1    0.0000
      7 C3         1.1232    3.4990    4.6587 C.ar      1 RES1    0.0000
      8 C4         1.5768    2.2804    5.2016 C.ar      1 RES1    0.0000
      9 C5         1.1095    1.0612    4.6740 C.ar      1 RES1    0.0000
     10 C6         0.1769    1.0549    3.6345 C.ar      1 RES1    0.0000
     11 C7        -0.3086    2.2814    3.1000 C.ar      1 RES1    0.0000
     12 C8        -0.3308   -0.1785    3.0906 C.ar      1 RES1    0.0000
     13 C9         1.1556    6.5218    2.6754 C.3       1 RES1    0.0000
     14 C10       -0.6527   -1.8975    4.6562 C.3       1 RES1    0.0000
     15 C11        2.9712    1.1704    7.0917 C.3       1 RES1    0.0000
     16 C12        3.8724    1.7169    8.2003 C.3       1 RES1    0.0000
     17 C13        3.8053    0.2150    6.2292 C.3       1 RES1    0.0000
     18 C14        1.7704    0.4737    7.7345 C.3       1 RES1    0.0000
     19 H1         1.4566    4.3185    5.0046 H         1 RES1    0.0000
     20 H2         1.4315    0.2399    5.0263 H         1 RES1    0.0000
     21 H3         1.4783    7.3293    3.0588 H         1 RES1    0.0000
     22 H4         0.7386    6.7105    1.8425 H         1 RES1    0.0000
     23 H5         1.8819    5.9242    2.5390 H         1 RES1    0.0000
     24 H6        -0.2740   -2.7118    4.9674 H         1 RES1    0.0000
     25 H7        -0.6831   -1.2705    5.3684 H         1 RES1    0.0000
     26 H8        -1.5323   -2.0580    4.3371 H         1 RES1    0.0000
     27 H9         4.1948    1.0000    8.7341 H         1 RES1    0.0000
     28 H10        3.3797    2.3197    8.7444 H         1 RES1    0.0000
     29 H11        4.6069    2.1730    7.8071 H         1 RES1    0.0000
     30 H12        4.1001   -0.5148    6.7603 H         1 RES1    0.0000
     31 H13        4.5568    0.6812    5.8840 H         1 RES1    0.0000
     32 H14        3.2782   -0.1106    5.5099 H         1 RES1    0.0000
     33 H15        2.0702   -0.2650    8.2515 H         1 RES1    0.0000
     34 H16        1.3138    1.0887    8.2969 H         1 RES1    0.0000
     35 H17        1.1808    0.1665    7.0559 H         1 RES1    0.0000
     36 N1B       -4.0636    2.3466   -1.1016 N.3       1 RES1    0.0000
     37 O1B       -1.7730    5.9244    1.6024 O.3       1 RES1    0.0000
     38 O2B       -1.7346   -1.3686    1.5751 O.3       1 RES1    0.0000
     39 O3B       -4.4777    3.5166   -1.4476 O.2       1 RES1    0.0000
     40 C1B       -1.2685    4.7417    2.1029 C.ar      1 RES1    0.0000
     41 C2B       -1.7693    3.5083    1.5426 C.ar      1 RES1    0.0000
     42 C3B       -2.6979    3.4990    0.5081 C.ar      1 RES1    0.0000
     43 C4B       -3.1515    2.2804   -0.0347 C.ar      1 RES1    0.0000
     44 C5B       -2.6842    1.0612    0.4928 C.ar      1 RES1    0.0000
     45 C6B       -1.7516    1.0549    1.5324 C.ar      1 RES1    0.0000
     46 C7B       -1.2661    2.2814    2.0668 C.ar      1 RES1    0.0000
     47 C8B       -1.2440   -0.1785    2.0762 C.ar      1 RES1    0.0000
     48 C9B       -2.7303    6.5218    2.4915 C.3       1 RES1    0.0000
     49 C10B      -0.9221   -1.8975    0.5107 C.3       1 RES1    0.0000
     50 C11B      -4.5460    1.1704   -1.9249 C.3       1 RES1    0.0000
     51 C12B      -5.4471    1.7169   -3.0335 C.3       1 RES1    0.0000
     52 C13B      -5.3800    0.2150   -1.0623 C.3       1 RES1    0.0000
     53 C14B      -3.3452    0.4737   -2.5676 C.3       1 RES1    0.0000
     54 H1B       -3.0314    4.3185    0.1622 H         1 RES1    0.0000
     55 H2B       -3.0062    0.2399    0.1405 H         1 RES1    0.0000
     56 H3B       -3.0530    7.3293    2.1081 H         1 RES1    0.0000
     57 H4B       -2.3133    6.7105    3.3244 H         1 RES1    0.0000
     58 H5B       -3.4566    5.9242    2.6279 H         1 RES1    0.0000
     59 H6B       -1.3007   -2.7118    0.1994 H         1 RES1    0.0000
     60 H7B       -0.8917   -1.2705   -0.2015 H         1 RES1    0.0000
     61 H8B       -0.0424   -2.0580    0.8298 H         1 RES1    0.0000
     62 H9B       -5.7696    1.0000   -3.5672 H         1 RES1    0.0000
     63 H10B      -4.9544    2.3197   -3.5775 H         1 RES1    0.0000
     64 H11B      -6.1816    2.1730   -2.6403 H         1 RES1    0.0000
     65 H12B      -5.6748   -0.5148   -1.5935 H         1 RES1    0.0000
     66 H13B      -6.1316    0.6812   -0.7172 H         1 RES1    0.0000
     67 H14B      -4.8529   -0.1106   -0.3431 H         1 RES1    0.0000
     68 H15B      -3.6449   -0.2650   -3.0846 H         1 RES1    0.0000
     69 H16B      -2.8885    1.0887   -3.1301 H         1 RES1    0.0000
     70 H17B      -2.7555    0.1665   -1.8890 H         1 RES1    0.0000
@<TRIPOS>BOND
     1    1    4 1
     2    2    5 1
     3    3   12 1
     4    5    6 ar
     5    6    7 ar
     6    7    8 ar
     7    8    1 1
     8    9    8 ar
     9   10    9 ar
    10   11    6 ar
    11   12   10 ar
    12   13    2 1
    13   14    3 1
    14   15    1 1
    15   16   15 1
    16   17   15 1
    17   18   15 1
    18   19    7 1
    19   20    9 1
    20   21   13 1
    21   22   13 1
    22   23   13 1
    23   24   14 1
    24   25   14 1
    25   26   14 1
    26   27   16 1
    27   28   16 1
    28   29   16 1
    29   30   17 1
    30   31   17 1
    31   32   17 1
    32   33   18 1
    33   34   18 1
    34   35   18 1
    35   36   39 1
    36   37   40 1
    37   38   47 1
    38   40    5 ar
    39   41   40 ar
    40   42   41 ar
    41   43   36 1
    42   44   43 ar
    43   45   44 ar
    44   46   11 ar
    45   47   12 ar
    46   48   37 1
    47   49   38 1
    48   50   36 1
    49   51   50 1
    50   52   50 1
    51   53   50 1
    52   54   42 1
    53   55   44 1
    54   56   48 1
    55   57   48 1
    56   58   48 1
    57   59   49 1
    58   60   49 1
    59   61   49 1
    60   62   51 1
    61   63   51 1
    62   64   51 1
    63   65   52 1
    64   66   52 1
    65   67   52 1
    66   68   53 1
    67   69   53 1
    68   70   53 1
    69   10   11 ar
    70   41   46 ar
    71   42   43 ar
    72   45   46 ar
    73   45   47 ar
@<TRIPOS>SUBSTRUCTURE
     1 RES1 1

@<TRIPOS>CRYSIN
  23.1335   10.9524   10.8030  90.0000 106.9500  90.0000  15 1

