# MOL2 file generated by ConQuest
# Please check atom types

@<TRIPOS>MOLECULE
XOTDEQ
    35    36     2
SMALL
NO_CHARGES
****
Generated from CSD

@<TRIPOS>ATOM
      1 C1         3.6617    2.7346    3.6948 C.3       1 RES1    0.0000
      2 H1         3.9910    3.3398    2.9983 H         1 RES1    0.0000
      3 N1         4.8812    2.2690    5.6268 N.am      1 RES1    0.0000
      4 O1         5.3598    2.3852    6.9483 O.3       1 RES1    0.0000
      5 H2         5.5187    1.5501    7.2443 H         1 RES1    0.0000
      6 C2         5.0911    1.1644    4.8347 C.2       1 RES1    0.0000
      7 O2         5.7793    0.2284    5.1697 O.2       1 RES1    0.0000
      8 C3         4.0503    3.2252    5.0613 C.2       1 RES1    0.0000
      9 O3         3.7320    4.2516    5.6066 O.2       1 RES1    0.0000
     10 C4         2.1303    2.4360    3.5013 C.3       1 RES1    0.0000
     11 C5         1.7101    1.6428    4.7333 C.2       1 RES1    0.0000
     12 C6         2.2871    0.4494    4.6775 C.2       1 RES1    0.0000
     13 C7         3.0891    0.3865    3.3751 C.3       1 RES1    0.0000
     14 C8         4.3141    1.3435    3.5692 C.3       1 RES1    0.0000
     15 H3         4.9082    1.3088    2.7897 H         1 RES1    0.0000
     16 C9         2.2430    1.2918    2.4895 C.3       1 RES1    0.0000
     17 H4         1.3827    0.9013    2.2716 H         1 RES1    0.0000
     18 H5         2.7045    1.5565    1.6785 H         1 RES1    0.0000
     19 C10        1.3069    3.6359    3.1088 C.3       1 RES1    0.0000
     20 H6         0.3993    3.3640    2.9533 H         1 RES1    0.0000
     21 H7         1.6668    4.0216    2.3070 H         1 RES1    0.0000
     22 H8         1.3306    4.2846    3.8151 H         1 RES1    0.0000
     23 C11        0.8692    2.2246    5.8251 C.3       1 RES1    0.0000
     24 H9         0.7750    1.5823    6.5325 H         1 RES1    0.0000
     25 H10        0.0021    2.4465    5.4772 H         1 RES1    0.0000
     26 H11        1.2904    3.0170    6.1657 H         1 RES1    0.0000
     27 C12        2.3048   -0.6302    5.7035 C.3       1 RES1    0.0000
     28 H12        1.6563   -0.4349    6.3853 H         1 RES1    0.0000
     29 H13        3.1787   -0.6826    6.0989 H         1 RES1    0.0000
     30 H14        2.0904   -1.4694    5.2890 H         1 RES1    0.0000
     31 C13        3.4449   -0.9893    2.8456 C.3       1 RES1    0.0000
     32 H15        2.6401   -1.4790    2.6602 H         1 RES1    0.0000
     33 H16        3.9629   -1.4605    3.5015 H         1 RES1    0.0000
     34 H17        3.9572   -0.8989    2.0384 H         1 RES1    0.0000
     35 H18        6.1334    2.8403    6.8843 Du        2 SUP2    0.0000
@<TRIPOS>BOND
     1    1    2 1
     2    3    4 1
     3    4    5 1
     4    6    3 1
     5    7    6 2
     6    8    1 1
     7    9    8 2
     8   10    1 1
     9   11   10 1
    10   12   11 2
    11   13   12 1
    12   14    1 1
    13   15   14 1
    14   16   10 1
    15   17   16 1
    16   18   16 1
    17   19   10 1
    18   20   19 1
    19   21   19 1
    20   22   19 1
    21   23   11 1
    22   24   23 1
    23   25   23 1
    24   26   23 1
    25   27   12 1
    26   28   27 1
    27   29   27 1
    28   30   27 1
    29   31   13 1
    30   32   31 1
    31   33   31 1
    32   34   31 1
    33    3    8 1
    34    6   14 1
    35   13   14 1
    36   13   16 1
@<TRIPOS>SUBSTRUCTURE
     1 RES1 1
     2 SUP2 35

@<TRIPOS>CRYSIN
  11.5490    8.0690   13.6350  90.0000  90.0500  90.0000  14 1

