# MOL2 file generated by ConQuest
# Please check atom types

@<TRIPOS>MOLECULE
XOTHIZ
    66    68     2
SMALL
NO_CHARGES
****
Generated from CSD

@<TRIPOS>ATOM
      1 O1         7.6791    9.2135    9.5692 O.2       1 RES1    0.0000
      2 O2         8.5397    9.3832   11.5468 O.2       1 RES1    0.0000
      3 O3         6.3627   13.1333   13.8805 O.2       1 RES1    0.0000
      4 O4         6.8272   15.0750   13.0516 O.2       1 RES1    0.0000
      5 O5        10.9988   10.3896    2.3159 O.3       1 RES1    0.0000
      6 N1         8.0415    9.8600   10.5394 N.pl3     1 RES1    0.0000
      7 N2         6.7617   13.8509   12.9797 N.pl3     1 RES1    0.0000
      8 N3         8.8156   12.2117    7.1090 N.2       1 RES1    0.0000
      9 C1         8.0759   12.0564    9.3565 C.ar      1 RES1    0.0000
     10 C2         7.8420   11.3128   10.5174 C.ar      1 RES1    0.0000
     11 C3         7.4117   11.8654   11.7099 C.ar      1 RES1    0.0000
     12 H1         7.2729   11.3309   12.4831 H         1 RES1    0.0000
     13 C4         7.1932   13.2259   11.7249 C.ar      1 RES1    0.0000
     14 C5         7.3735   14.0187   10.6038 C.ar      1 RES1    0.0000
     15 H2         7.1995   14.9516   10.6404 H         1 RES1    0.0000
     16 C6         7.8088   13.4323    9.4360 C.ar      1 RES1    0.0000
     17 H3         7.9313   13.9733    8.6651 H         1 RES1    0.0000
     18 C7         8.6415   11.4913    8.1257 C.2       1 RES1    0.0000
     19 H4         8.8790   10.5720    8.0966 H         1 RES1    0.0000
     20 C8         9.3674   11.6902    5.9140 C.ar      1 RES1    0.0000
     21 C9         9.4332   12.5638    4.8338 C.ar      1 RES1    0.0000
     22 H5         9.1051   13.4489    4.9365 H         1 RES1    0.0000
     23 C10        9.9644   12.1794    3.6093 C.ar      1 RES1    0.0000
     24 H6        10.0080   12.7957    2.8873 H         1 RES1    0.0000
     25 C11       10.4311   10.8793    3.4559 C.ar      1 RES1    0.0000
     26 C12       10.3489    9.9804    4.5232 C.ar      1 RES1    0.0000
     27 H7        10.6493    9.0860    4.4096 H         1 RES1    0.0000
     28 C13        9.8360   10.3788    5.7374 C.ar      1 RES1    0.0000
     29 H8         9.7992    9.7627    6.4603 H         1 RES1    0.0000
     30 C14       11.1188   11.2794    1.2029 C.3       1 RES1    0.0000
     31 H9        10.2257   11.5423    0.8967 H         1 RES1    0.0000
     32 H10       11.5945   10.8286    0.4745 H         1 RES1    0.0000
     33 H11       11.6187   12.0771    1.4745 H         1 RES1    0.0000
     34 O6        10.2440    8.9572   13.9836 O.2       2 RES2    0.0000
     35 O7         8.3054    9.0653   14.9376 O.2       2 RES2    0.0000
     36 O8         8.1375    5.4518   18.3494 O.2       2 RES2    0.0000
     37 O9         8.8694    3.4947   17.8046 O.2       2 RES2    0.0000
     38 O10       11.9490    7.4463    6.3933 O.3       2 RES2    0.0000
     39 N4         9.2786    8.4477   14.5366 N.pl3     2 RES2    0.0000
     40 N5         8.6432    4.6729   17.5589 N.pl3     2 RES2    0.0000
     41 N6        10.5519    5.7969   11.5269 N.2       2 RES2    0.0000
     42 C15        9.6793    6.1317   13.7075 C.ar      2 RES2    0.0000
     43 C16        9.2942    6.9892   14.7423 C.ar      2 RES2    0.0000
     44 C17        8.9258    6.5429   16.0017 C.ar      2 RES2    0.0000
     45 H12        8.6479    7.1456   16.6816 H         2 RES2    0.0000
     46 C18        8.9818    5.1776   16.2221 C.ar      2 RES2    0.0000
     47 C19        9.3394    4.2777   15.2381 C.ar      2 RES2    0.0000
     48 H13        9.3614    3.3451   15.4197 H         2 RES2    0.0000
     49 C20        9.6641    4.7569   13.9850 C.ar      2 RES2    0.0000
     50 H14        9.8825    4.1411   13.2950 H         2 RES2    0.0000
     51 C21       10.0353    6.5965   12.3581 C.2       2 RES2    0.0000
     52 H15        9.8766    7.4996   12.1102 H         2 RES2    0.0000
     53 C22       10.9008    6.2574   10.2379 C.ar      2 RES2    0.0000
     54 C23       11.1294    7.6001    9.9091 C.ar      2 RES2    0.0000
     55 H16       11.0394    8.2698   10.5772 H         2 RES2    0.0000
     56 C24       11.4833    7.9596    8.6248 C.ar      2 RES2    0.0000
     57 H17       11.6384    8.8730    8.4155 H         2 RES2    0.0000
     58 C25       11.6141    6.9873    7.6325 C.ar      2 RES2    0.0000
     59 C26       11.4049    5.6478    7.9444 C.ar      2 RES2    0.0000
     60 H18       11.4991    4.9780    7.2769 H         2 RES2    0.0000
     61 C27       11.0559    5.3031    9.2438 C.ar      2 RES2    0.0000
     62 H19       10.9194    4.3871    9.4571 H         2 RES2    0.0000
     63 C28       12.1658    6.4683    5.3739 C.3       2 RES2    0.0000
     64 H20       12.8912    5.8680    5.6453 H         2 RES2    0.0000
     65 H21       12.4090    6.9173    4.5375 H         2 RES2    0.0000
     66 H22       11.3453    5.9483    5.2401 H         2 RES2    0.0000
@<TRIPOS>BOND
     1    1    6 2
     2    2    6 2
     3    3    7 2
     4    4    7 2
     5    5   25 1
     6    6   10 1
     7    7   13 1
     8    8   18 2
     9    9   10 ar
    10   10   11 ar
    11   11   12 1
    12   13   11 ar
    13   14   13 ar
    14   15   14 1
    15   16    9 ar
    16   17   16 1
    17   18    9 1
    18   19   18 1
    19   20    8 1
    20   21   20 ar
    21   22   21 1
    22   23   21 ar
    23   24   23 1
    24   25   23 ar
    25   26   25 ar
    26   27   26 1
    27   28   20 ar
    28   29   28 1
    29   30    5 1
    30   31   30 1
    31   32   30 1
    32   33   30 1
    33   34   39 2
    34   35   39 2
    35   36   40 2
    36   37   40 2
    37   38   58 1
    38   39   43 1
    39   40   46 1
    40   41   51 2
    41   42   43 ar
    42   43   44 ar
    43   44   45 1
    44   46   44 ar
    45   47   46 ar
    46   48   47 1
    47   49   42 ar
    48   50   49 1
    49   51   42 1
    50   52   51 1
    51   53   41 1
    52   54   53 ar
    53   55   54 1
    54   56   54 ar
    55   57   56 1
    56   58   56 ar
    57   59   58 ar
    58   60   59 1
    59   61   53 ar
    60   62   61 1
    61   63   38 1
    62   64   63 1
    63   65   63 1
    64   66   63 1
    65   14   16 ar
    66   26   28 ar
    67   47   49 ar
    68   59   61 ar
@<TRIPOS>SUBSTRUCTURE
     1 RES1 1
     2 RES2 34

@<TRIPOS>CRYSIN
   7.4230   11.8287   15.6458  86.8250  80.1290  81.1000   2 1

