# MOL2 file generated by ConQuest
# Please check atom types

@<TRIPOS>MOLECULE
XOVCES
    34    36     1
SMALL
NO_CHARGES
****
Generated from CSD

@<TRIPOS>ATOM
      1 O1         8.5176    5.2381    0.7588 O.3       1 RES1    0.0000
      2 O2         9.5595    3.8958    2.2674 O.3       1 RES1    0.0000
      3 O3         6.7985    7.3790    0.9422 O.3       1 RES1    0.0000
      4 H1         7.3812    7.9543    0.9154 H         1 RES1    0.0000
      5 O4         9.3835    3.9018    5.1422 O.3       1 RES1    0.0000
      6 H2         8.7047    3.7275    5.5681 H         1 RES1    0.0000
      7 O5         5.8020    2.3301    3.1820 O.3       1 RES1    0.0000
      8 C1         8.3580    5.8568    2.0250 C.3       1 RES1    0.0000
      9 H3         9.0692    6.5170    2.1577 H         1 RES1    0.0000
     10 N1         7.1689    2.6645    2.9968 N.2       1 RES1    0.0000
     11 C2         8.5869    4.6570    2.9692 C.3       1 RES1    0.0000
     12 C3         7.2992    3.9113    3.1404 C.2       1 RES1    0.0000
     13 C4         6.9998    6.5526    2.0817 C.3       1 RES1    0.0000
     14 H4         6.9801    7.1208    2.8792 H         1 RES1    0.0000
     15 C5         9.5908    4.3177    0.8998 C.3       1 RES1    0.0000
     16 C6         6.0345    4.6691    3.3662 C.3       1 RES1    0.0000
     17 H5         6.0862    5.1918    4.1939 H         1 RES1    0.0000
     18 C7         9.1498    5.0370    4.3264 C.3       1 RES1    0.0000
     19 H6         9.9833    5.5185    4.2033 H         1 RES1    0.0000
     20 H7         8.5270    5.6296    4.7754 H         1 RES1    0.0000
     21 C8         5.8399    5.5793    2.1656 C.3       1 RES1    0.0000
     22 H8         5.7958    5.0495    1.3544 H         1 RES1    0.0000
     23 H9         5.0063    6.0674    2.2546 H         1 RES1    0.0000
     24 C9         5.0631    3.5103    3.5214 C.3       1 RES1    0.0000
     25 H10        4.7389    3.4580    4.4344 H         1 RES1    0.0000
     26 H11        4.3047    3.6197    2.9271 H         1 RES1    0.0000
     27 C10        9.3202    3.1474    0.0097 C.3       1 RES1    0.0000
     28 H12       10.0264    2.5037    0.1027 H         1 RES1    0.0000
     29 H13        9.2753    3.4429   -0.9025 H         1 RES1    0.0000
     30 H14        8.4849    2.7431    0.2569 H         1 RES1    0.0000
     31 C11       10.9139    4.9945    0.6317 C.3       1 RES1    0.0000
     32 H15       10.9844    5.7849    1.1722 H         1 RES1    0.0000
     33 H16       10.9688    5.2360   -0.2966 H         1 RES1    0.0000
     34 H17       11.6310    4.3939    0.8488 H         1 RES1    0.0000
@<TRIPOS>BOND
     1    1    8 1
     2    2   11 1
     3    3    4 1
     4    5    6 1
     5    7   10 1
     6    8    9 1
     7   10   12 2
     8   11    8 1
     9   12   11 1
    10   13    3 1
    11   14   13 1
    12   15    1 1
    13   16   12 1
    14   17   16 1
    15   18    5 1
    16   19   18 1
    17   20   18 1
    18   21   13 1
    19   22   21 1
    20   23   21 1
    21   24    7 1
    22   25   24 1
    23   26   24 1
    24   27   15 1
    25   28   27 1
    26   29   27 1
    27   30   27 1
    28   31   15 1
    29   32   31 1
    30   33   31 1
    31   34   31 1
    32    2   15 1
    33    8   13 1
    34   11   18 1
    35   16   21 1
    36   16   24 1
@<TRIPOS>SUBSTRUCTURE
     1 RES1 1

@<TRIPOS>CRYSIN
   9.1590   10.7826   11.6757  90.0000  90.0000  90.0000  19 1

