# MOL2 file generated by ConQuest
# Please check atom types

@<TRIPOS>MOLECULE
XOWDIW
    68    70     2
SMALL
USER_CHARGES
****
Generated from CSD

@<TRIPOS>ATOM
      1 N1         6.2045    3.1689    3.1976 N.pl3     1 RES1    1.0000
      2 N2         6.5515    4.3292    3.7120 N.pl3     1 RES1    1.0000
      3 O1         9.0586    4.1279    2.7373 O.3       1 RES1    0.0000
      4 O2         4.3256    4.2775    1.6739 O.3       1 RES1    0.0000
      5 O3         5.7501    2.2582    3.9403 O.2       1 RES1   -1.0000
      6 O4         6.4072    4.5383    4.9571 O.2       1 RES1   -1.0000
      7 C1         6.2543    2.9913    1.7601 C.ar      1 RES1    0.0000
      8 C2         7.2365    2.1818    1.2144 C.ar      1 RES1    0.0000
      9 C3         7.2174    1.9671   -0.1612 C.ar      1 RES1    0.0000
     10 C4         6.2272    2.5321   -0.9267 C.ar      1 RES1    0.0000
     11 C5         5.2305    3.3090   -0.3760 C.ar      1 RES1    0.0000
     12 C6         5.2315    3.5450    0.9986 C.ar      1 RES1    0.0000
     13 C7         3.3258    4.9654    0.9100 C.3       1 RES1    0.0000
     14 C8         7.0964    5.3759    2.8659 C.ar      1 RES1    0.0000
     15 C9         6.3275    6.5040    2.6334 C.ar      1 RES1    0.0000
     16 C10        6.8932    7.5702    1.9475 C.ar      1 RES1    0.0000
     17 C11        8.2050    7.4786    1.5249 C.ar      1 RES1    0.0000
     18 C12        8.9715    6.3585    1.7524 C.ar      1 RES1    0.0000
     19 C13        8.4172    5.2781    2.4373 C.ar      1 RES1    0.0000
     20 C14       10.3398    3.9108    2.1235 C.3       1 RES1    0.0000
     21 H1         7.9392    1.8449    1.7833 H         1 RES1    0.0000
     22 H2         7.8912    1.4461   -0.5148 H         1 RES1    0.0000
     23 H3         6.2394    2.4072   -1.9265 H         1 RES1    0.0000
     24 H4         4.5182    3.6737   -0.9640 H         1 RES1    0.0000
     25 H5         3.7909    5.5779    0.2149 H         1 RES1    0.0000
     26 H6         2.7356    4.2665    0.4208 H         1 RES1    0.0000
     27 H7         2.8225    5.5330    1.5728 H         1 RES1    0.0000
     28 H8         5.4244    6.5121    2.9696 H         1 RES1    0.0000
     29 H9         6.3277    8.4163    1.7892 H         1 RES1    0.0000
     30 H10        8.6310    8.2546    1.0267 H         1 RES1    0.0000
     31 H11        9.8446    6.3235    1.4863 H         1 RES1    0.0000
     32 H12       10.2807    4.0600    1.1162 H         1 RES1    0.0000
     33 H13       10.5545    2.9372    2.3473 H         1 RES1    0.0000
     34 H14       11.0672    4.5450    2.5010 H         1 RES1    0.0000
     35 N3         0.5616   -1.1477    4.4989 N.pl3     2 RES2    1.0000
     36 N4         0.9832   -0.1145    3.7956 N.pl3     2 RES2    1.0000
     37 O5        -0.2088   -1.4146    1.7089 O.3       2 RES2    0.0000
     38 O6         3.1263   -1.6654    5.1353 O.3       2 RES2    0.0000
     39 O7        -0.1999   -0.9570    5.4914 O.2       2 RES2   -1.0000
     40 O8         0.6937    1.0582    4.1764 O.2       2 RES2   -1.0000
     41 C15        1.1054   -2.4688    4.2479 C.ar      2 RES2    0.0000
     42 C16        0.2678   -3.4662    3.7947 C.ar      2 RES2    0.0000
     43 C17        0.7655   -4.7514    3.6775 C.ar      2 RES2    0.0000
     44 C18        2.0770   -5.0117    4.0306 C.ar      2 RES2    0.0000
     45 C19        2.9050   -4.0166    4.5207 C.ar      2 RES2    0.0000
     46 C20        2.4201   -2.7209    4.6430 C.ar      2 RES2    0.0000
     47 C21        4.1669   -1.9851    6.0545 C.3       2 RES2    0.0000
     48 C22        1.6825   -0.3111    2.5431 C.ar      2 RES2    0.0000
     49 C23        2.9310    0.2743    2.4009 C.ar      2 RES2    0.0000
     50 C24        3.5617    0.2290    1.1696 C.ar      2 RES2    0.0000
     51 C25        2.9390   -0.4078    0.1064 C.ar      2 RES2    0.0000
     52 C26        1.6960   -0.9962    0.2488 C.ar      2 RES2    0.0000
     53 C27        1.0399   -0.9395    1.4699 C.ar      2 RES2    0.0000
     54 C28       -0.7728   -2.3174    0.7418 C.3       2 RES2    0.0000
     55 H15       -0.6168   -3.2785    3.5710 H         2 RES2    0.0000
     56 H16        0.2040   -5.4702    3.3561 H         2 RES2    0.0000
     57 H17        2.4493   -5.9372    3.9426 H         2 RES2    0.0000
     58 H18        3.8042   -4.2180    4.7946 H         2 RES2    0.0000
     59 H19        4.4704   -1.1138    6.4063 H         2 RES2    0.0000
     60 H20        3.7961   -2.5420    6.7659 H         2 RES2    0.0000
     61 H21        4.8609   -2.4611    5.6243 H         2 RES2    0.0000
     62 H22        3.3268    0.7186    3.1531 H         2 RES2    0.0000
     63 H23        4.4288    0.6557    1.0894 H         2 RES2    0.0000
     64 H24        3.3451   -0.3952   -0.7834 H         2 RES2    0.0000
     65 H25        1.2828   -1.4461   -0.5208 H         2 RES2    0.0000
     66 H26       -0.1656   -3.0629    0.5521 H         2 RES2    0.0000
     67 H27       -0.9625   -1.8414   -0.0672 H         2 RES2    0.0000
     68 H28       -1.6050   -2.6587    1.1535 H         2 RES2    0.0000
@<TRIPOS>BOND
     1    1    2 2
     2    2    6 1
     3    3   19 1
     4    4   12 1
     5    5    1 1
     6    7    1 1
     7    8    7 ar
     8    9    8 ar
     9   10    9 ar
    10   11   10 ar
    11   12    7 ar
    12   13    4 1
    13   14    2 1
    14   15   14 ar
    15   16   15 ar
    16   17   16 ar
    17   18   17 ar
    18   19   14 ar
    19   20    3 1
    20   21    8 1
    21   22    9 1
    22   23   10 1
    23   24   11 1
    24   25   13 1
    25   26   13 1
    26   27   13 1
    27   28   15 1
    28   29   16 1
    29   30   17 1
    30   31   18 1
    31   32   20 1
    32   33   20 1
    33   34   20 1
    34   35   36 2
    35   36   40 1
    36   37   53 1
    37   38   46 1
    38   39   35 1
    39   41   35 1
    40   42   41 ar
    41   43   42 ar
    42   44   43 ar
    43   45   44 ar
    44   46   41 ar
    45   47   38 1
    46   48   36 1
    47   49   48 ar
    48   50   49 ar
    49   51   50 ar
    50   52   51 ar
    51   53   48 ar
    52   54   37 1
    53   55   42 1
    54   56   43 1
    55   57   44 1
    56   58   45 1
    57   59   47 1
    58   60   47 1
    59   61   47 1
    60   62   49 1
    61   63   50 1
    62   64   51 1
    63   65   52 1
    64   66   54 1
    65   67   54 1
    66   68   54 1
    67   11   12 ar
    68   18   19 ar
    69   45   46 ar
    70   52   53 ar
@<TRIPOS>SUBSTRUCTURE
     1 RES1 1
     2 RES2 35

@<TRIPOS>CRYSIN
  19.9465    8.9822   15.6262  90.0000 107.2590  90.0000  14 1

