# MOL2 file generated by ConQuest
# Please check atom types

@<TRIPOS>MOLECULE
XOWGIZ
   262   262     3
SMALL
NO_CHARGES
****
Generated from CSD

@<TRIPOS>ATOM
      1 O1        11.9936    2.0573    4.6513 O.3       1 RES1    0.0000
      2 O2         9.1862    1.4698    2.5935 O.3       1 RES1    0.0000
      3 O3         9.6663    1.0550    7.7232 O.3       1 RES1    0.0000
      4 O4         7.2442    0.7733    5.9237 O.3       1 RES1    0.0000
      5 O5         6.6950    0.2875    6.3217 Du        3 SUP3    0.0000
      6 O6        -2.5964   -6.2859   -2.4304 O.2       1 RES1    0.0000
      7 O7        -3.7226   -4.5184   -2.0367 O.2       1 RES1    0.0000
      8 N1         6.4404    0.2692    3.1778 N.pl3     1 RES1    0.0000
      9 N2         1.8802   -1.7832    0.5864 N.2       1 RES1    0.0000
     10 N3         2.0415   -2.8327    0.0318 N.2       1 RES1    0.0000
     11 N4        -2.6872   -5.1718   -2.0324 N.pl3     1 RES1    0.0000
     12 C1        13.3168    2.4417    4.6979 C.ar      1 RES1    0.0000
     13 C2        14.3013    1.4705    4.6132 C.ar      1 RES1    0.0000
     14 C3        15.6178    1.8774    4.7889 C.ar      1 RES1    0.0000
     15 C4        15.9304    3.1844    5.0408 C.ar      1 RES1    0.0000
     16 C5        14.9465    4.1143    5.1213 C.ar      1 RES1    0.0000
     17 C6        13.6034    3.7713    4.9667 C.ar      1 RES1    0.0000
     18 C7        12.5418   -0.6400    6.2455 C.ar      1 RES1    0.0000
     19 C8        11.4858   -1.3475    6.8001 C.ar      1 RES1    0.0000
     20 C9        10.7399   -2.1442    5.9258 C.ar      1 RES1    0.0000
     21 C10       11.0058   -2.2303    4.5920 C.ar      1 RES1    0.0000
     22 C11       12.0609   -1.5185    4.0775 C.ar      1 RES1    0.0000
     23 C12       12.8199   -0.6923    4.8842 C.ar      1 RES1    0.0000
     24 C13       10.5229    1.0284    8.7754 C.ar      1 RES1    0.0000
     25 C14       11.2799   -0.1095    9.0803 C.ar      1 RES1    0.0000
     26 C15       12.1253   -0.0820   10.1706 C.ar      1 RES1    0.0000
     27 C16       12.2808    1.0720   10.9031 C.ar      1 RES1    0.0000
     28 C17       11.6120    2.2086   10.5474 C.ar      1 RES1    0.0000
     29 C18       10.7402    2.2032    9.4804 C.ar      1 RES1    0.0000
     30 C19       11.1915    4.2092    7.0733 C.ar      1 RES1    0.0000
     31 C20        9.9906    3.9414    7.7190 C.ar      1 RES1    0.0000
     32 C21        8.8216    4.1897    7.0034 C.ar      1 RES1    0.0000
     33 C22        8.8451    4.5747    5.6865 C.ar      1 RES1    0.0000
     34 C23       10.0537    4.7659    5.0726 C.ar      1 RES1    0.0000
     35 C24       11.2477    4.5855    5.7352 C.ar      1 RES1    0.0000
     36 C25       14.0058    0.0251    4.2533 C.3       1 RES1    0.0000
     37 C26       11.2192   -1.3843    8.2737 C.3       1 RES1    0.0000
     38 C27        9.9400    3.4659    9.1586 C.3       1 RES1    0.0000
     39 C28       12.5293    4.8459    5.0239 C.3       1 RES1    0.0000
     40 C29       11.3837    2.0183    3.4128 C.3       1 RES1    0.0000
     41 C30        7.7414   -0.3855    3.2011 C.3       1 RES1    0.0000
     42 C31        8.7547    0.1730    2.2399 C.3       1 RES1    0.0000
     43 C32        9.9650    1.4928    3.7198 C.3       1 RES1    0.0000
     44 C33        8.5365    0.2018    7.7846 C.3       1 RES1    0.0000
     45 C34        7.1367    0.6014    7.2807 C.3       1 RES1    0.0000
     46 C35        7.5944    1.1348    7.0161 Du        3 SUP3    0.0000
     47 C36        5.9388    1.1980    5.4240 C.3       1 RES1    0.0000
     48 C37        6.3285    1.4621    3.9971 C.3       1 RES1    0.0000
     49 C38        5.3747   -0.2418    2.5067 C.ar      1 RES1    0.0000
     50 C39        4.1091    0.3682    2.5215 C.ar      1 RES1    0.0000
     51 C40        3.0535   -0.1805    1.8821 C.ar      1 RES1    0.0000
     52 C41        3.1376   -1.3468    1.1708 C.ar      1 RES1    0.0000
     53 C42        4.3875   -1.9383    1.0903 C.ar      1 RES1    0.0000
     54 C43        5.4607   -1.4082    1.7339 C.ar      1 RES1    0.0000
     55 C44        0.7576   -3.3436   -0.5441 C.ar      1 RES1    0.0000
     56 C45       -0.4515   -2.6311   -0.4573 C.ar      1 RES1    0.0000
     57 C46       -1.6096   -3.2455   -0.9802 C.ar      1 RES1    0.0000
     58 C47       -1.4858   -4.4954   -1.5328 C.ar      1 RES1    0.0000
     59 C48       -0.2975   -5.1294   -1.6069 C.ar      1 RES1    0.0000
     60 C49        0.8228   -4.5512   -1.1305 C.ar      1 RES1    0.0000
     61 O8        12.3899    3.9939    7.7486 O.3       1 RES1    0.0000
     62 C50       12.9814    5.1047    8.3456 C.3       1 RES1    0.0000
     63 C51       14.2605    4.7146    9.0125 C.3       1 RES1    0.0000
     64 C52       15.2868    5.3279    8.9236 C.3       1 RES1    0.0000
     65 O9        13.2830    0.1963    7.0542 O.3       1 RES1    0.0000
     66 C53       14.5151   -0.3088    7.5051 C.3       1 RES1    0.0000
     67 C54       15.2250    0.7882    8.2355 C.3       1 RES1    0.0000
     68 C55       16.5812    0.5051    8.5573 C.3       1 RES1    0.0000
     69 O10        5.6690   10.5244    4.1919 O.3       2 RES2    0.0000
     70 O11        2.9356   10.2456    3.0910 O.3       2 RES2    0.0000
     71 O12        4.7634    9.2331    7.7613 O.3       2 RES2    0.0000
     72 O13        1.6942    8.2137    6.2688 O.3       2 RES2    0.0000
     73 O14       -9.3596    3.8312   -1.7741 O.2       2 RES2    0.0000
     74 O15       -9.1510    2.3390   -0.2816 O.2       2 RES2    0.0000
     75 N5         0.0473    9.9405    3.4424 N.pl3     2 RES2    0.0000
     76 N6        -3.8996    7.0213    0.7876 N.2       2 RES2    0.0000
     77 N7        -4.4892    6.1412    1.4756 N.2       2 RES2    0.0000
     78 N8        -8.8049    3.3751   -0.8109 N.pl3     2 RES2    0.0000
     79 C56        6.9173   11.0344    4.4163 C.ar      2 RES2    0.0000
     80 C57        7.0579   12.3583    4.7931 C.ar      2 RES2    0.0000
     81 C58        8.3367   12.8843    4.9561 C.ar      2 RES2    0.0000
     82 C59        9.4361   12.0483    4.7720 C.ar      2 RES2    0.0000
     83 C60        9.2678   10.7391    4.4650 C.ar      2 RES2    0.0000
     84 C61        8.0209   10.1864    4.3062 C.ar      2 RES2    0.0000
     85 C62        7.1106    7.7844    6.1290 C.ar      2 RES2    0.0000
     86 C63        7.0154    7.8401    4.7741 C.ar      2 RES2    0.0000
     87 C64        6.1413    6.9727    4.1538 C.ar      2 RES2    0.0000
     88 C65        5.3552    6.1015    4.8461 C.ar      2 RES2    0.0000
     89 C66        5.4226    6.0976    6.2095 C.ar      2 RES2    0.0000
     90 C67        6.2905    6.9509    6.9018 C.ar      2 RES2    0.0000
     91 C68        5.4151    9.1941    8.9723 C.ar      2 RES2    0.0000
     92 C69        6.2376    8.1039    9.2729 C.ar      2 RES2    0.0000
     93 C70        6.9228    8.1327   10.4649 C.ar      2 RES2    0.0000
     94 C71        6.8198    9.1841   11.3244 C.ar      2 RES2    0.0000
     95 C72        6.0119   10.2734   11.0365 C.ar      2 RES2    0.0000
     96 C73        5.3113   10.2772    9.8191 C.ar      2 RES2    0.0000
     97 C74        5.0687   12.3959    7.2786 C.ar      2 RES2    0.0000
     98 C75        4.0988   11.9466    8.1572 C.ar      2 RES2    0.0000
     99 C76        2.7861   12.0183    7.7359 C.ar      2 RES2    0.0000
    100 C77        2.4754   12.4328    6.4720 C.ar      2 RES2    0.0000
    101 C78        3.4516   12.7861    5.5997 C.ar      2 RES2    0.0000
    102 C79        4.7882   12.7713    5.9618 C.ar      2 RES2    0.0000
    103 C80        7.8749    8.7309    3.9357 C.3       2 RES2    0.0000
    104 C81        6.3536    6.8752    8.4007 C.3       2 RES2    0.0000
    105 C82        4.4133   11.4963    9.5841 C.3       2 RES2    0.0000
    106 C83        5.8600   13.2557    5.0027 C.3       2 RES2    0.0000
    107 C84        5.3021   10.6102    2.8242 C.3       2 RES2    0.0000
    108 C85        4.1410    9.8037    2.5384 C.3       2 RES2    0.0000
    109 C86        2.0080   10.6154    2.1340 C.3       2 RES2    0.0000
    110 C87        0.7616   11.0187    2.8009 C.3       2 RES2    0.0000
    111 C88        3.4682    8.6635    7.7550 C.3       2 RES2    0.0000
    112 C89        3.0148    8.7495    6.3280 C.3       2 RES2    0.0000
    113 C90        1.1503    8.3332    4.9604 C.3       2 RES2    0.0000
    114 C91        0.4184    9.6543    4.8207 C.3       2 RES2    0.0000
    115 C92       -0.8819    9.1959    2.7776 C.ar      2 RES2    0.0000
    116 C93       -1.1033    9.3137    1.3994 C.ar      2 RES2    0.0000
    117 C94       -2.0798    8.5754    0.7854 C.ar      2 RES2    0.0000
    118 C95       -2.8936    7.7127    1.4883 C.ar      2 RES2    0.0000
    119 C96       -2.6639    7.5756    2.8327 C.ar      2 RES2    0.0000
    120 C97       -1.7027    8.2940    3.4784 C.ar      2 RES2    0.0000
    121 C98       -5.5673    5.4941    0.8299 C.ar      2 RES2    0.0000
    122 C99       -6.1860    5.9550   -0.3154 C.ar      2 RES2    0.0000
    123 C100      -7.2390    5.2520   -0.8447 C.ar      2 RES2    0.0000
    124 C101      -7.6704    4.1136   -0.2392 C.ar      2 RES2    0.0000
    125 C102      -7.0704    3.6381    0.8977 C.ar      2 RES2    0.0000
    126 C103      -6.0246    4.3368    1.4121 C.ar      2 RES2    0.0000
    127 O16        8.0074    8.5997    6.8171 O.3       2 RES2    0.0000
    128 C104       9.3027    8.0014    6.9166 C.3       2 RES2    0.0000
    129 C105      10.2708    8.8434    7.5306 C.3       2 RES2    0.0000
    130 C106      11.4926    8.2721    7.8354 C.3       2 RES2    0.0000
    131 C107      10.0989    8.8670    8.8855 Du        3 SUP3    0.0000
    132 O17        6.4267   12.3779    7.7274 O.3       2 RES2    0.0000
    133 C108       7.0564   13.3779    8.3986 C.3       2 RES2    0.0000
    134 C109       8.0785   12.3373    8.7394 C.3       2 RES2    0.0000
    135 C110       9.1195   12.9872    8.6907 C.3       2 RES2    0.0000
    136 H1        16.3215    1.2291    4.7339 H         1 RES1    0.0000
    137 H2        16.8464    3.4430    5.1594 H         1 RES1    0.0000
    138 H3        15.1801    5.0302    5.2907 H         1 RES1    0.0000
    139 H4        10.0064   -2.6529    6.2793 H         1 RES1    0.0000
    140 H5        10.4659   -2.7822    4.0225 H         1 RES1    0.0000
    141 H6        12.2720   -1.5945    3.1439 H         1 RES1    0.0000
    142 H7        12.6083   -0.8724   10.4204 H         1 RES1    0.0000
    143 H8        12.8620    1.0806   11.6674 H         1 RES1    0.0000
    144 H9        11.7488    3.0174   11.0449 H         1 RES1    0.0000
    145 H10        7.9743    4.0891    7.4437 H         1 RES1    0.0000
    146 H11        8.0258    4.7079    5.2038 H         1 RES1    0.0000
    147 H12       10.0682    5.0336    4.1495 H         1 RES1    0.0000
    148 H13       14.7919   -0.4870    4.4586 H         1 RES1    0.0000
    149 H14       13.8894   -0.0139    3.3006 H         1 RES1    0.0000
    150 H15       11.8469   -1.9996    8.6632 H         1 RES1    0.0000
    151 H16       10.3446   -1.7609    8.3986 H         1 RES1    0.0000
    152 H17        9.0212    3.3083    9.3894 H         1 RES1    0.0000
    153 H18       10.2593    4.1765    9.7196 H         1 RES1    0.0000
    154 H19       12.9244    5.6235    5.4240 H         1 RES1    0.0000
    155 H20       12.3102    5.0795    4.1178 H         1 RES1    0.0000
    156 H21       11.8492    1.4260    2.8179 H         1 RES1    0.0000
    157 H22       11.3478    2.8931    3.0169 H         1 RES1    0.0000
    158 H23        7.6159   -1.3166    3.0021 H         1 RES1    0.0000
    159 H24        8.0984   -0.3244    4.0903 H         1 RES1    0.0000
    160 H25        9.5145   -0.4134    2.2124 H         1 RES1    0.0000
    161 H26        8.3710    0.1997    1.3613 H         1 RES1    0.0000
    162 H27       10.0262    0.6047    4.0797 H         1 RES1    0.0000
    163 H28        9.5537    2.0536    4.3803 H         1 RES1    0.0000
    164 H29        8.4327   -0.0453    8.7055 H         1 RES1    0.0000
    165 H30        8.7758   -0.5990    7.3125 H         1 RES1    0.0000
    166 H31        8.2449    0.0415    8.6844 Du        3 SUP3    0.0000
    167 H32        8.6802   -0.6327    7.3315 Du        3 SUP3    0.0000
    168 H33        6.4988   -0.0864    7.4819 H         1 RES1    0.0000
    169 H34        6.8499    1.4166    7.6999 H         1 RES1    0.0000
    170 H35        7.1078    1.6987    7.6237 Du        3 SUP3    0.0000
    171 H36        8.0784    1.6806    6.4021 Du        3 SUP3    0.0000
    172 H37        5.6249    1.9913    5.8644 H         1 RES1    0.0000
    173 H38        5.2806    0.5038    5.4960 H         1 RES1    0.0000
    174 H39        5.9119    2.0524    5.8623 Du        3 SUP3    0.0000
    175 H40        5.0363    0.8734    5.4029 Du        3 SUP3    0.0000
    176 H41        5.6764    2.0458    3.6033 H         1 RES1    0.0000
    177 H42        7.1716    1.9204    3.9886 H         1 RES1    0.0000
    178 H43        3.9916    1.1925    2.9978 H         1 RES1    0.0000
    179 H44        2.2063    0.2670    1.9287 H         1 RES1    0.0000
    180 H45        4.4963   -2.7385    0.5695 H         1 RES1    0.0000
    181 H46        6.3104   -1.8487    1.6556 H         1 RES1    0.0000
    182 H47       -0.4886   -1.7599   -0.0593 H         1 RES1    0.0000
    183 H48       -2.4602   -2.8011   -0.9506 H         1 RES1    0.0000
    184 H49       -0.2494   -6.0022   -2.0049 H         1 RES1    0.0000
    185 H50        1.6673   -4.9999   -1.2089 H         1 RES1    0.0000
    186 H51       12.3807    5.4802    8.9935 H         1 RES1    0.0000
    187 H52       13.1575    5.7734    7.6787 H         1 RES1    0.0000
    188 H53       14.0652    4.6537    9.9504 H         1 RES1    0.0000
    189 H54       14.4539    3.8220    8.7161 H         1 RES1    0.0000
    190 H55       15.9709    4.8829    9.4275 H         1 RES1    0.0000
    191 H56       15.1608    6.2150    9.2687 H         1 RES1    0.0000
    192 H57       15.5500    5.3786    8.0005 H         1 RES1    0.0000
    193 H58       15.0418   -0.6037    6.7599 H         1 RES1    0.0000
    194 H59       14.3703   -1.0556    8.0916 H         1 RES1    0.0000
    195 H60       15.1985    1.5830    7.6978 H         1 RES1    0.0000
    196 H61       14.7494    0.9727    9.0485 H         1 RES1    0.0000
    197 H62       16.9592    1.2493    9.0295 H         1 RES1    0.0000
    198 H63       17.0759    0.3538    7.7486 H         1 RES1    0.0000
    199 H64       16.6214   -0.2789    9.1099 H         1 RES1    0.0000
    200 H65        8.4580   13.8079    5.1933 H         2 RES2    0.0000
    201 H66       10.3242   12.4037    4.8630 H         2 RES2    0.0000
    202 H67       10.0424   10.1825    4.3549 H         2 RES2    0.0000
    203 H68        6.0866    6.9847    3.1968 H         2 RES2    0.0000
    204 H69        4.7660    5.5014    4.3824 H         2 RES2    0.0000
    205 H70        4.8621    5.4956    6.7049 H         2 RES2    0.0000
    206 H71        7.4900    7.3937   10.6956 H         2 RES2    0.0000
    207 H72        7.3161    9.1694   12.1458 H         2 RES2    0.0000
    208 H73        5.9326   11.0057   11.6526 H         2 RES2    0.0000
    209 H74        2.0808   11.7734    8.3393 H         2 RES2    0.0000
    210 H75        1.5563   12.4740    6.1989 H         2 RES2    0.0000
    211 H76        3.2088   13.0517    4.7084 H         2 RES2    0.0000
    212 H77        7.5366    8.6957    3.0380 H         2 RES2    0.0000
    213 H78        8.7555    8.3488    3.9188 H         2 RES2    0.0000
    214 H79        7.1886    6.4569    8.6230 H         2 RES2    0.0000
    215 H80        5.6609    6.2713    8.6780 H         2 RES2    0.0000
    216 H81        3.5751   11.3237   10.0203 H         2 RES2    0.0000
    217 H82        4.8157   12.2401   10.0372 H         2 RES2    0.0000
    218 H83        5.4483   13.4037    4.1495 H         2 RES2    0.0000
    219 H84        6.1765   14.1049    5.3182 H         2 RES2    0.0000
    220 H85        6.0358   10.3173    2.2801 H         2 RES2    0.0000
    221 H86        5.1168   11.5256    2.6019 H         2 RES2    0.0000
    222 H87        4.0360    9.7566    1.5857 H         2 RES2    0.0000
    223 H88        4.3093    8.9122    2.8539 H         2 RES2    0.0000
    224 H89        1.8369    9.8782    1.5434 H         2 RES2    0.0000
    225 H90        2.3507   11.3454    1.6132 H         2 RES2    0.0000
    226 H91        0.9683   11.6832    3.4615 H         2 RES2    0.0000
    227 H92        0.1850   11.4266    2.1510 H         2 RES2    0.0000
    228 H93        2.8760    9.1563    8.3287 H         2 RES2    0.0000
    229 H94        3.4953    7.7502    8.0492 H         2 RES2    0.0000
    230 H95        3.0178    9.6624    6.0316 H         2 RES2    0.0000
    231 H96        3.6039    8.2437    5.7628 H         2 RES2    0.0000
    232 H97        0.5416    7.6077    4.7952 H         2 RES2    0.0000
    233 H98        1.8555    8.2845    4.3104 H         2 RES2    0.0000
    234 H99       -0.3742    9.6343    5.3626 H         2 RES2    0.0000
    235 H100       0.9803   10.3602    5.1488 H         2 RES2    0.0000
    236 H101      -0.5658    9.9166    0.8828 H         2 RES2    0.0000
    237 H102      -2.2021    8.6634   -0.1630 H         2 RES2    0.0000
    238 H103      -3.1962    6.9558    3.3366 H         2 RES2    0.0000
    239 H104      -1.5839    8.1828    4.4248 H         2 RES2    0.0000
    240 H105      -5.8829    6.7615   -0.7389 H         2 RES2    0.0000
    241 H106      -7.6707    5.5641   -1.6429 H         2 RES2    0.0000
    242 H107      -7.3820    2.8328    1.3190 H         2 RES2    0.0000
    243 H108      -5.5916    4.0121    2.2039 H         2 RES2    0.0000
    244 H109       9.2323    7.1877    7.4226 H         2 RES2    0.0000
    245 H110       9.6062    7.7702    6.0359 H         2 RES2    0.0000
    246 H111      10.4274    9.5894    6.9483 H         2 RES2    0.0000
    247 H112       9.8912    9.1878    8.3414 H         2 RES2    0.0000
    248 H113      11.1523    8.5232    7.3252 Du        3 SUP3    0.0000
    249 H114      10.1881    9.7334    7.1812 Du        3 SUP3    0.0000
    250 H115      12.0727    8.9398    8.2101 H         2 RES2    0.0000
    251 H116      11.8882    7.9171    7.0373 H         2 RES2    0.0000
    252 H117      11.3647    7.5655    8.4727 H         2 RES2    0.0000
    253 H118      10.7296    9.4762    9.2772 Du        3 SUP3    0.0000
    254 H119      10.2408    7.9862    9.2412 Du        3 SUP3    0.0000
    255 H120       9.2062    9.1548    9.0909 Du        3 SUP3    0.0000
    256 H121       6.5692   13.7181    9.1523 H         2 RES2    0.0000
    257 H122       7.3827   14.0862    7.8396 H         2 RES2    0.0000
    258 H123       7.9309   11.9750    9.6159 H         2 RES2    0.0000
    259 H124       8.0809   11.6230    8.0979 H         2 RES2    0.0000
    260 H125       9.8566   12.4319    8.9596 H         2 RES2    0.0000
    261 H126       9.0541   13.7394    9.2835 H         2 RES2    0.0000
    262 H127       9.2620   13.2969    7.7931 H         2 RES2    0.0000
@<TRIPOS>BOND
     1    1   12 1
     2    2   42 1
     3    3   24 1
     4    4   45 1
     5    6   11 2
     6    7   11 2
     7    8   41 1
     8    9   10 2
     9   10   55 1
    10   11   58 1
    11   12   13 ar
    12   13   14 ar
    13   14   15 ar
    14   15   16 ar
    15   16   17 ar
    16   17   12 ar
    17   18   19 ar
    18   19   20 ar
    19   20   21 ar
    20   21   22 ar
    21   22   23 ar
    22   23   18 ar
    23   24   25 ar
    24   25   26 ar
    25   26   27 ar
    26   27   28 ar
    27   28   29 ar
    28   29   24 ar
    29   30   31 ar
    30   31   32 ar
    31   32   33 ar
    32   33   34 ar
    33   34   35 ar
    34   35   30 ar
    35   36   13 1
    36   37   19 1
    37   38   29 1
    38   39   17 1
    39   40    1 1
    40   41   42 1
    41   42  160 1
    42   43    2 1
    43   44    3 1
    44   45   44 1
    45   47    4 1
    46   48    8 1
    47   49    8 1
    48   50   49 ar
    49   51   50 ar
    50   52    9 1
    51   53   52 ar
    52   54   49 ar
    53   55   56 ar
    54   56   57 ar
    55   57   58 ar
    56   58   59 ar
    57   59   60 ar
    58   60   55 ar
    59   61   30 1
    60   62   61 1
    61   63   62 1
    62   64   63 1
    63   65   18 1
    64   66   65 1
    65   67   66 1
    66   68   67 1
    67   69   79 1
    68   70  108 1
    69   71   91 1
    70   72  112 1
    71   73   78 2
    72   74   78 2
    73   75  110 1
    74   76   77 2
    75   77  121 1
    76   78  124 1
    77   79   80 ar
    78   80   81 ar
    79   81   82 ar
    80   82   83 ar
    81   83   84 ar
    82   84   79 ar
    83   85   86 ar
    84   86   87 ar
    85   87   88 ar
    86   88   89 ar
    87   89   90 ar
    88   90   85 ar
    89   91   92 ar
    90   92   93 ar
    91   93   94 ar
    92   94   95 ar
    93   95   96 ar
    94   96   91 ar
    95   97   98 ar
    96   98   99 ar
    97   99  100 ar
    98  100  101 ar
    99  101  102 ar
   100  102   97 ar
   101  103   84 1
   102  104   90 1
   103  105   96 1
   104  106   80 1
   105  107   69 1
   106  108  107 1
   107  109   70 1
   108  110  109 1
   109  111   71 1
   110  112  111 1
   111  113   72 1
   112  114   75 1
   113  115   75 1
   114  116  115 ar
   115  117  116 ar
   116  118   76 1
   117  119  118 ar
   118  120  115 ar
   119  121  122 ar
   120  122  123 ar
   121  123  124 ar
   122  124  125 ar
   123  125  126 ar
   124  126  121 ar
   125  127   85 1
   126  128  127 1
   127  129  128 1
   128  130  129 1
   129  132   97 1
   130  133  132 1
   131  134  133 1
   132  135  134 1
   133  136   14 1
   134  137   15 1
   135  138   16 1
   136  139   20 1
   137  140   21 1
   138  141   22 1
   139  142   26 1
   140  143   27 1
   141  144   28 1
   142  145   32 1
   143  146   33 1
   144  147   34 1
   145  148   36 1
   146  149   36 1
   147  150   37 1
   148  151   37 1
   149  152   38 1
   150  153   38 1
   151  154   39 1
   152  155   39 1
   153  156   40 1
   154  157   40 1
   155  158   41 1
   156  159   41 1
   157  161   42 1
   158  162   43 1
   159  163   43 1
   160  164   44 1
   161  165   44 1
   162  168   45 1
   163  169   45 1
   164  172   47 1
   165  173   47 1
   166  176   48 1
   167  177   48 1
   168  178   50 1
   169  179   51 1
   170  180   53 1
   171  181   54 1
   172  182   56 1
   173  183   57 1
   174  184   59 1
   175  185   60 1
   176  186   62 1
   177  187   62 1
   178  188   63 1
   179  189   63 1
   180  190   64 1
   181  191   64 1
   182  192   64 1
   183  193   66 1
   184  194   66 1
   185  195   67 1
   186  196   67 1
   187  197   68 1
   188  198   68 1
   189  199   68 1
   190  200   81 1
   191  201   82 1
   192  202   83 1
   193  203   87 1
   194  204   88 1
   195  205   89 1
   196  206   93 1
   197  207   94 1
   198  208   95 1
   199  209   99 1
   200  210  100 1
   201  211  101 1
   202  212  103 1
   203  213  103 1
   204  214  104 1
   205  215  104 1
   206  216  105 1
   207  217  105 1
   208  218  106 1
   209  219  106 1
   210  220  107 1
   211  221  107 1
   212  222  108 1
   213  223  108 1
   214  224  109 1
   215  225  109 1
   216  226  110 1
   217  227  110 1
   218  228  111 1
   219  229  111 1
   220  230  112 1
   221  231  112 1
   222  232  113 1
   223  233  113 1
   224  234  114 1
   225  235  114 1
   226  236  116 1
   227  237  117 1
   228  238  119 1
   229  239  120 1
   230  240  122 1
   231  241  123 1
   232  242  125 1
   233  243  126 1
   234  244  128 1
   235  245  128 1
   236  246  129 1
   237  247  129 1
   238  250  130 1
   239  251  130 1
   240  252  130 1
   241  256  133 1
   242  257  133 1
   243  258  134 1
   244  259  134 1
   245  260  135 1
   246  261  135 1
   247  262  135 1
   248   23   36 1
   249   25   37 1
   250   31   38 1
   251   35   39 1
   252   40   43 1
   253   47   48 1
   254   51   52 ar
   255   53   54 ar
   256   86  103 1
   257   92  104 1
   258   98  105 1
   259  102  106 1
   260  113  114 1
   261  117  118 ar
   262  119  120 ar
@<TRIPOS>SUBSTRUCTURE
     1 RES1 1
     2 RES2 69
     3 SUP3 5

@<TRIPOS>CRYSIN
  13.8871   16.3371   21.9391  78.2170  79.0350  82.3810   2 1

