# MOL2 file generated by ConQuest
# Please check atom types

@<TRIPOS>MOLECULE
XOWNEE
    23    24     1
SMALL
NO_CHARGES
****
Generated from CSD

@<TRIPOS>ATOM
      1 O1         0.1623    9.1503   -0.1561 O.3       1 RES1    0.0000
      2 O2         2.6374    8.3748   -0.6046 O.2       1 RES1    0.0000
      3 O3        -0.2558   10.9764    1.6829 O.2       1 RES1    0.0000
      4 N1         1.2303    9.7641    0.4873 N.am      1 RES1    0.0000
      5 C1         5.7837   11.0743    2.1594 C.ar      1 RES1    0.0000
      6 H1         6.5101   11.4570    2.5957 H         1 RES1    0.0000
      7 C2         4.5148   11.5603    2.3928 C.ar      1 RES1    0.0000
      8 H2         4.3919   12.2703    2.9811 H         1 RES1    0.0000
      9 C3         3.4124   10.9904    1.7498 C.ar      1 RES1    0.0000
     10 C4         3.6266    9.9349    0.8797 C.ar      1 RES1    0.0000
     11 C5         2.4990    9.2845    0.1750 C.2       1 RES1    0.0000
     12 C6        -0.2020    7.9307    0.5119 C.3       1 RES1    0.0000
     13 H3         0.4757    7.2678    0.3607 H         1 RES1    0.0000
     14 H4        -1.0405    7.6147    0.1676 H         1 RES1    0.0000
     15 H5        -0.2844    8.0948    1.4544 H         1 RES1    0.0000
     16 C7         5.9881   10.0277    1.2876 C.ar      1 RES1    0.0000
     17 H6         6.8483    9.7099    1.1348 H         1 RES1    0.0000
     18 C8         4.9129    9.4515    0.6409 C.ar      1 RES1    0.0000
     19 H7         5.0451    8.7461    0.0501 H         1 RES1    0.0000
     20 C9         2.0371   11.5365    1.9688 C.3       1 RES1    0.0000
     21 H8         2.0047   12.4288    1.5900 H         1 RES1    0.0000
     22 H9         1.8982   11.6247    2.9252 H         1 RES1    0.0000
     23 C10        0.8926   10.7517    1.4047 C.2       1 RES1    0.0000
@<TRIPOS>BOND
     1    1    4 1
     2    2   11 2
     3    3   23 2
     4    4   11 1
     5    5    6 1
     6    7    5 ar
     7    8    7 1
     8    9    7 ar
     9   10    9 ar
    10   11   10 1
    11   12    1 1
    12   13   12 1
    13   14   12 1
    14   15   12 1
    15   16    5 ar
    16   17   16 1
    17   18   10 ar
    18   19   18 1
    19   20    9 1
    20   21   20 1
    21   22   20 1
    22   23    4 1
    23   16   18 ar
    24   20   23 1
@<TRIPOS>SUBSTRUCTURE
     1 RES1 1

@<TRIPOS>CRYSIN
   9.3511   11.4869    8.4156  90.0000 102.4750  90.0000  14 1

