# MOL2 file generated by ConQuest
# Please check atom types

@<TRIPOS>MOLECULE
XOWTUY
    60    66     2
SMALL
NO_CHARGES
****
Generated from CSD

@<TRIPOS>ATOM
      1 C1        13.3175   -1.3490   -2.5988 C.3       1 RES1    0.0000
      2 C2        13.6986   -1.1463   -4.0453 C.3       1 RES1    0.0000
      3 C3        13.1698   -2.3046   -4.8877 C.3       1 RES1    0.0000
      4 C4        11.6731   -2.4281   -4.7386 C.3       1 RES1    0.0000
      5 C5        11.1944   -2.5018   -3.3075 C.2       1 RES1    0.0000
      6 C6        10.2717   -3.3751   -2.8583 C.2       1 RES1    0.0000
      7 N1         9.6716   -4.3286   -3.7878 N.pl3     1 RES1    0.0000
      8 O1         9.1644   -3.9656   -4.8238 O.2       1 RES1    0.0000
      9 O2         9.6649   -5.4933   -3.4682 O.2       1 RES1    0.0000
     10 C7         9.7511   -3.5257   -1.4795 C.3       1 RES1    0.0000
     11 C8        10.1243   -2.3631   -0.5693 C.3       1 RES1    0.0000
     12 C9        11.5840   -1.9384   -0.8675 C.3       1 RES1    0.0000
     13 C10       11.7953   -1.4844   -2.3277 C.3       1 RES1    0.0000
     14 C11       11.1027   -0.1430   -2.6356 C.3       1 RES1    0.0000
     15 C12       12.0848   -0.9351    0.1820 C.3       1 RES1    0.0000
     16 C13       11.8280   -1.3284    1.6325 C.3       1 RES1    0.0000
     17 C14       10.3616   -1.6437    1.8978 C.3       1 RES1    0.0000
     18 C15        9.4921   -0.3803    1.7641 C.3       1 RES1    0.0000
     19 C16        9.9713   -2.7445    0.8908 C.3       1 RES1    0.0000
     20 C17        8.6223   -3.2538    1.3710 C.3       1 RES1    0.0000
     21 C18        8.7010   -3.1172    2.9047 C.3       1 RES1    0.0000
     22 C19       10.0300   -2.3815    3.2243 C.3       1 RES1    0.0000
     23 C20        9.9826   -1.5797    4.5507 C.3       1 RES1    0.0000
     24 C21       11.3114   -0.8863    4.8528 C.3       1 RES1    0.0000
     25 C22        9.5957   -2.5126    5.7223 C.3       1 RES1    0.0000
     26 C23        9.4341   -1.8365    7.0546 C.3       1 RES1    0.0000
     27 C24        8.9581   -2.7358    8.1371 C.3       1 RES1    0.0000
     28 C25        8.6684   -2.0370    9.4849 C.3       1 RES1    0.0000
     29 C26        9.7701   -1.2644   10.0310 C.3       1 RES1    0.0000
     30 C27        8.1191   -3.0533   10.4667 C.3       1 RES1    0.0000
     31 C28        3.3392    3.9331   11.5085 C.3       2 RES2    0.0000
     32 C29        3.0426    4.1433   12.9764 C.3       2 RES2    0.0000
     33 C30        4.0778    2.9937   13.7820 C.3       2 RES2    0.0000
     34 C31        5.1385    2.8897   13.5477 C.3       2 RES2    0.0000
     35 C32        5.4955    2.8041   12.0817 C.2       2 RES2    0.0000
     36 C33        6.3751    1.9319   11.5686 C.2       2 RES2    0.0000
     37 N2         7.0222    0.9686   12.4574 N.pl3     2 RES2    0.0000
     38 O3         7.6705    1.2666   13.3463 O.2       2 RES2    0.0000
     39 O4         6.9678   -0.1625   12.1766 O.2       2 RES2    0.0000
     40 C34        6.7987    1.7769   10.1588 C.3       2 RES2    0.0000
     41 C35        6.3849    2.9547    9.2816 C.3       2 RES2    0.0000
     42 C36        4.9592    3.4076    9.6650 C.3       2 RES2    0.0000
     43 C37        4.8324    3.8367   11.1638 C.3       2 RES2    0.0000
     44 C38        5.5173    5.1770   11.4253 C.3       2 RES2    0.0000
     45 C39        4.3461    4.4489    8.6793 C.3       2 RES2    0.0000
     46 C40        4.5731    4.0631    7.2076 C.3       2 RES2    0.0000
     47 C41        5.9964    3.6850    6.8358 C.3       2 RES2    0.0000
     48 C42        6.9386    4.8898    6.9094 C.3       2 RES2    0.0000
     49 C43        6.4084    2.5571    7.8195 C.3       2 RES2    0.0000
     50 C44        7.7012    2.0012    7.2192 C.3       2 RES2    0.0000
     51 C45        7.4797    2.1042    5.6952 C.3       2 RES2    0.0000
     52 C46        6.1755    2.9341    5.4764 C.3       2 RES2    0.0000
     53 C47        6.2321    3.7662    4.1770 C.3       2 RES2    0.0000
     54 C48        4.9145    4.5485    3.9524 C.3       2 RES2    0.0000
     55 C49        6.5288    2.8799    2.9648 C.3       2 RES2    0.0000
     56 C50        6.8876    3.6460    1.6964 C.3       2 RES2    0.0000
     57 C51        7.3739    2.7748    0.5868 C.3       2 RES2    0.0000
     58 C52        7.9636    3.5149   -0.6216 C.3       2 RES2    0.0000
     59 C53        6.9461    4.3546   -1.3517 C.3       2 RES2    0.0000
     60 C54        8.6383    2.5473   -1.5744 C.3       2 RES2    0.0000
@<TRIPOS>BOND
     1    1    2 1
     2    2    3 1
     3    3    4 1
     4    4    5 1
     5    5    6 2
     6    6    7 1
     7    7    8 2
     8    9    7 2
     9   10    6 1
    10   11   10 1
    11   12   11 1
    12   13    1 1
    13   14   13 1
    14   15   12 1
    15   16   15 1
    16   17   16 1
    17   18   17 1
    18   19   11 1
    19   20   19 1
    20   21   20 1
    21   22   17 1
    22   23   22 1
    23   24   23 1
    24   25   23 1
    25   26   25 1
    26   27   26 1
    27   28   27 1
    28   29   28 1
    29   30   28 1
    30   31   32 1
    31   32   33 1
    32   33   34 1
    33   34   35 1
    34   35   36 2
    35   36   37 1
    36   37   38 2
    37   39   37 2
    38   40   36 1
    39   41   40 1
    40   42   41 1
    41   43   31 1
    42   44   43 1
    43   45   42 1
    44   46   45 1
    45   47   46 1
    46   48   47 1
    47   49   41 1
    48   50   49 1
    49   51   50 1
    50   52   47 1
    51   53   52 1
    52   54   53 1
    53   55   53 1
    54   56   55 1
    55   57   56 1
    56   58   57 1
    57   59   58 1
    58   60   58 1
    59    5   13 1
    60   12   13 1
    61   17   19 1
    62   21   22 1
    63   35   43 1
    64   42   43 1
    65   47   49 1
    66   51   52 1
@<TRIPOS>SUBSTRUCTURE
     1 RES1 1
     2 RES2 31

@<TRIPOS>CRYSIN
  12.1430   10.8350   19.7470  90.0000 101.2900  90.0000   4 1

