# MOL2 file generated by ConQuest
# Please check atom types

@<TRIPOS>MOLECULE
XOYYOA
    23    24     1
SMALL
NO_CHARGES
****
Generated from CSD

@<TRIPOS>ATOM
      1 O1         2.4624    4.2740   -3.9127 O.2       1 RES1    0.0000
      2 O2         0.3927    4.5874   -3.4467 O.2       1 RES1    0.0000
      3 N1         1.3970    5.5710    2.5859 N.pl3     1 RES1    0.0000
      4 N2         0.5284    5.5640    1.5429 N.2       1 RES1    0.0000
      5 N3         1.5676    4.5151   -3.1161 N.pl3     1 RES1    0.0000
      6 C1         0.8922    5.9022    3.9107 C.3       1 RES1    0.0000
      7 H1         0.2285    6.5918    3.8381 H         1 RES1    0.0000
      8 H2         1.6161    6.2120    4.4611 H         1 RES1    0.0000
      9 H3         0.4999    5.1208    4.3079 H         1 RES1    0.0000
     10 C2         3.7883    5.1875    3.2437 C.3       1 RES1    0.0000
     11 H4         3.4635    5.4137    4.1180 H         1 RES1    0.0000
     12 H5         4.4820    5.8011    2.9915 H         1 RES1    0.0000
     13 H6         4.1399    4.2944    3.2539 H         1 RES1    0.0000
     14 C3         2.6728    5.2702    2.2633 C.2       1 RES1    0.0000
     15 C4         1.3117    5.2352    0.4994 C.2       1 RES1    0.0000
     16 C5         0.9322    5.0722   -0.8477 C.2       1 RES1    0.0000
     17 H7         0.0561    5.2024   -1.1316 H         1 RES1    0.0000
     18 C6         1.9260    4.7116   -1.7138 C.2       1 RES1    0.0000
     19 C7         3.2821    4.5457   -1.3430 C.2       1 RES1    0.0000
     20 H8         3.9180    4.3226   -1.9844 H         1 RES1    0.0000
     21 C8         3.6499    4.7131   -0.0500 C.2       1 RES1    0.0000
     22 H9         4.5378    4.6102    0.2084 H         1 RES1    0.0000
     23 C9         2.6633    5.0467    0.8926 C.2       1 RES1    0.0000
@<TRIPOS>BOND
     1    1    5 2
     2    2    5 2
     3    3    4 1
     4    4   15 2
     5    5   18 1
     6    6    3 1
     7    7    6 1
     8    8    6 1
     9    9    6 1
    10   10   11 1
    11   12   10 1
    12   13   10 1
    13   14    3 1
    14   15   16 1
    15   16   17 1
    16   18   16 2
    17   19   18 1
    18   20   19 1
    19   21   19 2
    20   22   21 1
    21   23   14 2
    22   10   14 1
    23   15   23 1
    24   21   23 1
@<TRIPOS>SUBSTRUCTURE
     1 RES1 1

@<TRIPOS>CRYSIN
   6.5800    7.2050   10.7520  75.0700  74.6700  66.7300   2 1

