# MOL2 file generated by ConQuest
# Please check atom types

@<TRIPOS>MOLECULE
XOYZOB
    72    75     1
SMALL
NO_CHARGES
****
Generated from CSD

@<TRIPOS>ATOM
      1 O1         3.3952    0.0000    6.0384 O.3       1 RES1    0.0000
      2 O2         1.3349    0.0000    6.9413 O.2       1 RES1    0.0000
      3 O3        -0.8750    0.0000    2.0339 O.2       1 RES1    0.0000
      4 N1         0.1725    0.0000    2.7632 N.3       1 RES1    0.0000
      5 C1         5.4351    0.0000    9.7119 C.ar      1 RES1    0.0000
      6 C2         5.0494    1.1925    9.0944 C.ar      1 RES1    0.0000
      7 H1         5.2822    2.0199    9.5003 H         1 RES1    0.0000
      8 C3         4.3333    1.2007    7.9004 C.ar      1 RES1    0.0000
      9 H2         4.0813    2.0218    7.4935 H         1 RES1    0.0000
     10 C4         3.9965    0.0000    7.3189 C.ar      1 RES1    0.0000
     11 C5         2.0428    0.0000    5.9729 C.2       1 RES1    0.0000
     12 C6         1.5740    0.0000    4.5708 C.2       1 RES1    0.0000
     13 C7         2.3412    0.0000    3.4811 C.2       1 RES1    0.0000
     14 H3         3.2906    0.0000    3.5088 H         1 RES1    0.0000
     15 C8         1.5472    0.0000    2.2050 C.3       1 RES1    0.0000
     16 C9         0.0993    0.0000    4.2493 C.3       1 RES1    0.0000
     17 C10        1.7844    1.2585    1.3679 C.3       1 RES1    0.0000
     18 H4         1.1839    1.2536    0.5938 H         1 RES1    0.0000
     19 H5         2.7147    1.2753    1.0593 H         1 RES1    0.0000
     20 H6         1.6066    2.0521    1.9137 H         1 RES1    0.0000
     21 C11       -0.6241    1.2618    4.7189 C.3       1 RES1    0.0000
     22 H7        -1.5235    1.2867    4.3302 H         1 RES1    0.0000
     23 H8        -0.1218    2.0530    4.4315 H         1 RES1    0.0000
     24 H9        -0.6912    1.2555    5.6956 H         1 RES1    0.0000
     25 O1A        8.2707    0.0000   14.6503 O.3       1 RES1    0.0000
     26 O2A       10.3311    0.0000   13.7475 O.2       1 RES1    0.0000
     27 O3A       12.5410    0.0000   18.6549 O.2       1 RES1    0.0000
     28 N1A       11.4935    0.0000   17.9256 N.3       1 RES1    0.0000
     29 C1A        6.2309    0.0000   10.9768 C.ar      1 RES1    0.0000
     30 C2A        6.6166    1.1925   11.5944 C.ar      1 RES1    0.0000
     31 C2D        6.6166   -1.1925   11.5944 C.ar      1 RES1    0.0000
     32 C2E        5.0494   -1.1925    9.0944 C.ar      1 RES1    0.0000
     33 H1A        6.3838    2.0199   11.1885 H         1 RES1    0.0000
     34 H1D        6.3838   -2.0199   11.1885 H         1 RES1    0.0000
     35 H1E        5.2822   -2.0199    9.5003 H         1 RES1    0.0000
     36 C3A        7.3327    1.2007   12.7884 C.ar      1 RES1    0.0000
     37 C3D        7.3327   -1.2007   12.7884 C.ar      1 RES1    0.0000
     38 C3E        4.3333   -1.2007    7.9004 C.ar      1 RES1    0.0000
     39 H2A        7.5847    2.0218   13.1953 H         1 RES1    0.0000
     40 H2D        7.5847   -2.0218   13.1953 H         1 RES1    0.0000
     41 H2E        4.0813   -2.0218    7.4935 H         1 RES1    0.0000
     42 C4A        7.6695    0.0000   13.3699 C.ar      1 RES1    0.0000
     43 C5A        9.6232    0.0000   14.7159 C.2       1 RES1    0.0000
     44 C6A       10.0919    0.0000   16.1180 C.2       1 RES1    0.0000
     45 C7A        9.3248    0.0000   17.2077 C.2       1 RES1    0.0000
     46 H3A        8.3754    0.0000   17.1800 H         1 RES1    0.0000
     47 C8A       10.1188    0.0000   18.4838 C.3       1 RES1    0.0000
     48 C9A       11.5667    0.0000   16.4395 C.3       1 RES1    0.0000
     49 C10A       9.8816    1.2585   19.3208 C.3       1 RES1    0.0000
     50 C10D       9.8816   -1.2585   19.3208 C.3       1 RES1    0.0000
     51 C10E       1.7844   -1.2585    1.3679 C.3       1 RES1    0.0000
     52 H4A       10.4821    1.2536   20.0950 H         1 RES1    0.0000
     53 H4D       10.4821   -1.2536   20.0950 H         1 RES1    0.0000
     54 H4E        1.1839   -1.2536    0.5938 H         1 RES1    0.0000
     55 H5A        8.9513    1.2753   19.6295 H         1 RES1    0.0000
     56 H5D        8.9513   -1.2753   19.6295 H         1 RES1    0.0000
     57 H5E        2.7147   -1.2753    1.0593 H         1 RES1    0.0000
     58 H6A       10.0594    2.0521   18.7751 H         1 RES1    0.0000
     59 H6D       10.0594   -2.0521   18.7751 H         1 RES1    0.0000
     60 H6E        1.6066   -2.0521    1.9137 H         1 RES1    0.0000
     61 C11A      12.2901    1.2618   15.9699 C.3       1 RES1    0.0000
     62 C11D      12.2901   -1.2618   15.9699 C.3       1 RES1    0.0000
     63 C11E      -0.6241   -1.2618    4.7189 C.3       1 RES1    0.0000
     64 H7A       13.1895    1.2867   16.3586 H         1 RES1    0.0000
     65 H7D       13.1895   -1.2867   16.3586 H         1 RES1    0.0000
     66 H7E       -1.5235   -1.2867    4.3302 H         1 RES1    0.0000
     67 H8A       11.7877    2.0530   16.2572 H         1 RES1    0.0000
     68 H8D       11.7877   -2.0530   16.2572 H         1 RES1    0.0000
     69 H8E       -0.1218   -2.0530    4.4315 H         1 RES1    0.0000
     70 H9A       12.3572    1.2555   14.9932 H         1 RES1    0.0000
     71 H9D       12.3572   -1.2555   14.9932 H         1 RES1    0.0000
     72 H9E       -0.6912   -1.2555    5.6956 H         1 RES1    0.0000
@<TRIPOS>BOND
     1    1   10 1
     2    2   11 2
     3    3    4 1
     4    4   15 1
     5    5    6 ar
     6    6    7 1
     7    8    6 ar
     8    9    8 1
     9   10    8 ar
    10   11    1 1
    11   12   11 1
    12   13   12 2
    13   14   13 1
    14   15   13 1
    15   16    4 1
    16   17   15 1
    17   18   17 1
    18   19   17 1
    19   20   17 1
    20   21   16 1
    21   22   21 1
    22   23   21 1
    23   24   21 1
    24   25   42 1
    25   26   43 2
    26   27   28 1
    27   28   47 1
    28   29    5 1
    29   30   29 ar
    30   31   29 ar
    31   32    5 ar
    32   33   30 1
    33   34   31 1
    34   35   32 1
    35   36   30 ar
    36   37   31 ar
    37   38   10 ar
    38   39   36 1
    39   40   37 1
    40   41   38 1
    41   42   36 ar
    42   43   25 1
    43   44   43 1
    44   45   44 2
    45   46   45 1
    46   47   45 1
    47   48   28 1
    48   49   47 1
    49   50   47 1
    50   51   15 1
    51   52   49 1
    52   53   50 1
    53   54   51 1
    54   55   49 1
    55   56   50 1
    56   57   51 1
    57   58   49 1
    58   59   50 1
    59   60   51 1
    60   61   48 1
    61   62   48 1
    62   63   16 1
    63   64   61 1
    64   65   62 1
    65   66   63 1
    66   67   61 1
    67   68   62 1
    68   69   63 1
    69   70   61 1
    70   71   62 1
    71   72   63 1
    72   12   16 1
    73   32   38 ar
    74   37   42 ar
    75   44   48 1
@<TRIPOS>SUBSTRUCTURE
     1 RES1 1

@<TRIPOS>CRYSIN
   6.9310    9.4610   20.8050  90.0000  96.0590  90.0000  12 1

