# MOL2 file generated by ConQuest
# Please check atom types

@<TRIPOS>MOLECULE
XOZBUK01
    90    90     6
SMALL
NO_CHARGES
****
Generated from CSD

@<TRIPOS>ATOM
      1 C1         7.8191   12.2718    3.5455 C.2       1 RES1    0.0000
      2 H1         8.4091   12.7147    2.9802 H         1 RES1    0.0000
      3 C2         8.1898   11.5044    4.5557 C.2       1 RES1    0.0000
      4 H2         9.0602   11.3167    4.8255 H         1 RES1    0.0000
      5 C3         7.0093   11.0325    5.1348 C.2       1 RES1    0.0000
      6 H3         6.9475   10.4614    5.8662 H         1 RES1    0.0000
      7 C4         5.9803   11.5504    4.4458 C.2       1 RES1    0.0000
      8 C5         4.5709   11.4100    4.6038 C.2       1 RES1    0.0000
      9 H4         4.2729   10.8780    5.3067 H         1 RES1    0.0000
     10 C6         3.6548   11.9683    3.8402 C.2       1 RES1    0.0000
     11 H5         3.9120   12.5093    3.1295 H         1 RES1    0.0000
     12 C7         6.0278    8.4435    2.7313 C.2       2 RES2    0.0000
     13 C8         7.0341    8.9674    2.0266 C.2       2 RES2    0.0000
     14 H6         6.9531    9.5572    1.3118 H         2 RES2    0.0000
     15 C9         8.2316    8.4731    2.5530 C.2       2 RES2    0.0000
     16 H7         9.0936    8.6655    2.2613 H         2 RES2    0.0000
     17 C10        7.8867    7.6731    3.5539 C.2       2 RES2    0.0000
     18 H8         8.4902    7.2075    4.0862 H         2 RES2    0.0000
     19 C11        4.6157    8.5923    2.6286 C.2       2 RES2    0.0000
     20 H9         4.2989    9.1818    1.9829 H         2 RES2    0.0000
     21 C12        3.7145    7.9696    3.3662 C.2       2 RES2    0.0000
     22 H10        3.9900    7.3717    4.0239 H         2 RES2    0.0000
     23 C13        7.3138    5.0316    1.5237 C.2       3 RES3    0.0000
     24 C14        6.2994    5.4622    0.7588 C.2       3 RES3    0.0000
     25 H11        6.3811    5.9398   -0.0348 H         3 RES3    0.0000
     26 C15        5.0976    5.0699    1.3610 C.2       3 RES3    0.0000
     27 H12        4.2341    5.2269    1.0524 H         3 RES3    0.0000
     28 C16        5.4542    4.4240    2.4700 C.2       3 RES3    0.0000
     29 H13        4.8535    4.0522    3.0744 H         3 RES3    0.0000
     30 C17        8.7276    5.1644    1.3939 C.2       3 RES3    0.0000
     31 H14        9.0402    5.6219    0.6465 H         3 RES3    0.0000
     32 C18        9.6375    4.7007    2.2341 C.2       3 RES3    0.0000
     33 H15        9.3697    4.2172    2.9817 H         3 RES3    0.0000
     34 C19        8.5417    1.8317    0.2770 C.2       4 RES4    0.0000
     35 C20        9.5827    2.1242   -0.5165 C.2       4 RES4    0.0000
     36 H16        9.5349    2.4647   -1.3814 H         4 RES4    0.0000
     37 C21       10.7592    1.8239    0.1945 C.2       4 RES4    0.0000
     38 H17       11.6340    1.9199   -0.1058 H         4 RES4    0.0000
     39 C22       10.3689    1.3773    1.3789 C.2       4 RES4    0.0000
     40 H18       10.9473    1.1092    2.0554 H         4 RES4    0.0000
     41 C23        7.1392    1.8898    0.0728 C.2       4 RES4    0.0000
     42 H19        6.8428    2.2510   -0.7306 H         4 RES4    0.0000
     43 C24        6.2167    1.4761    0.9220 C.2       4 RES4    0.0000
     44 H20        6.4748    1.1151    1.7394 H         4 RES4    0.0000
     45 C25        5.0783    1.3923    5.7671 C.2       5 RES5    0.0000
     46 C26        4.0493    0.9759    6.5234 C.2       5 RES5    0.0000
     47 H21        4.1138    0.5158    7.3288 H         5 RES5    0.0000
     48 C27        2.8587    1.3575    5.8814 C.2       5 RES5    0.0000
     49 H22        1.9884    1.2038    6.1721 H         5 RES5    0.0000
     50 C28        3.2349    1.9801    4.7808 C.2       5 RES5    0.0000
     51 H23        2.6476    2.3420    4.1572 H         5 RES5    0.0000
     52 C29        6.4866    1.2969    5.9387 C.2       5 RES5    0.0000
     53 H24        6.7889    0.8129    6.6736 H         5 RES5    0.0000
     54 C30        7.4043    1.8280    5.1580 C.2       5 RES5    0.0000
     55 H25        7.1409    2.3216    4.4152 H         5 RES5    0.0000
     56 C31        3.7517    4.7732    7.0122 C.2       6 RES6    0.0000
     57 C32        4.7692    4.4556    7.8135 C.2       6 RES6    0.0000
     58 H26        4.6978    4.0507    8.6478 H         6 RES6    0.0000
     59 C33        5.9629    4.8340    7.1895 C.2       6 RES6    0.0000
     60 H27        6.8277    4.7326    7.5172 H         6 RES6    0.0000
     61 C34        5.6006    5.3648    6.0403 C.2       6 RES6    0.0000
     62 H28        6.1960    5.7068    5.4125 H         6 RES6    0.0000
     63 C35        2.3426    4.6209    7.1379 C.2       6 RES6    0.0000
     64 H29        2.0355    4.2077    7.9129 H         6 RES6    0.0000
     65 C36        1.4295    5.0031    6.2740 C.2       6 RES6    0.0000
     66 H30        1.6954    5.4215    5.4864 H         6 RES6    0.0000
     67 N1         2.2574   11.7470    4.0988 N.pl3     1 RES1    0.0000
     68 N2         2.3131    8.2070    3.1623 N.pl3     2 RES2    0.0000
     69 N3        11.0304    4.9362    2.0040 N.pl3     3 RES3    0.0000
     70 N4         4.8221    1.5755    0.6013 N.pl3     4 RES4    0.0000
     71 N5         8.7993    1.6606    5.4292 N.pl3     5 RES5    0.0000
     72 N6         0.0319    4.7882    6.5191 N.pl3     6 RES6    0.0000
     73 O1         6.4634   12.3309    3.4390 O.3       1 RES1    0.0000
     74 O2         1.9143   11.0004    4.9966 O.2       1 RES1    0.0000
     75 O3         1.4697   12.3264    3.3629 O.2       1 RES1    0.0000
     76 O4         6.5356    7.6232    3.7009 O.3       2 RES2    0.0000
     77 O5         1.5299    7.5799    3.8617 O.2       2 RES2    0.0000
     78 O6         1.9433    9.0197    2.3213 O.2       2 RES2    0.0000
     79 O7         6.8073    4.3746    2.6077 O.3       3 RES3    0.0000
     80 O8        11.8190    4.4503    2.8024 O.2       3 RES3    0.0000
     81 O9        11.3851    5.6090    1.0499 O.2       3 RES3    0.0000
     82 O10        9.0049    1.3629    1.4762 O.3       4 RES4    0.0000
     83 O11        4.4684    2.0680   -0.4589 O.2       4 RES4    0.0000
     84 O12        4.0277    1.1503    1.4281 O.2       4 RES4    0.0000
     85 O13        4.5908    2.0264    4.6751 O.3       5 RES5    0.0000
     86 O14        9.1448    1.0381    6.4281 O.2       5 RES5    0.0000
     87 O15        9.5894    2.1557    4.6486 O.2       5 RES5    0.0000
     88 O16        4.2458    5.3510    5.8826 O.3       6 RES6    0.0000
     89 O17       -0.3271    4.2538    7.5578 O.2       6 RES6    0.0000
     90 O18       -0.7514    5.1625    5.6584 O.2       6 RES6    0.0000
@<TRIPOS>BOND
     1    1    2 1
     2    3    1 2
     3    4    3 1
     4    5    3 1
     5    6    5 1
     6    7    5 2
     7    8    7 1
     8    9    8 1
     9   10    8 2
    10   11   10 1
    11   12   13 2
    12   13   14 1
    13   15   13 1
    14   16   15 1
    15   17   15 2
    16   18   17 1
    17   19   12 1
    18   20   19 1
    19   21   19 2
    20   22   21 1
    21   23   24 2
    22   24   25 1
    23   26   24 1
    24   27   26 1
    25   28   26 2
    26   29   28 1
    27   30   23 1
    28   31   30 1
    29   32   30 2
    30   33   32 1
    31   34   35 2
    32   35   36 1
    33   37   35 1
    34   38   37 1
    35   39   37 2
    36   40   39 1
    37   41   34 1
    38   42   41 1
    39   43   41 2
    40   44   43 1
    41   45   46 2
    42   46   47 1
    43   48   46 1
    44   49   48 1
    45   50   48 2
    46   51   50 1
    47   52   45 1
    48   53   52 1
    49   54   52 2
    50   55   54 1
    51   56   57 2
    52   57   58 1
    53   59   57 1
    54   60   59 1
    55   61   59 2
    56   62   61 1
    57   63   56 1
    58   64   63 1
    59   65   63 2
    60   66   65 1
    61   67   10 1
    62   68   21 1
    63   69   32 1
    64   70   43 1
    65   71   54 1
    66   72   65 1
    67   73    1 1
    68   74   67 2
    69   75   67 2
    70   76   12 1
    71   77   68 2
    72   78   68 2
    73   79   23 1
    74   80   69 2
    75   81   69 2
    76   82   34 1
    77   83   70 2
    78   84   70 2
    79   85   45 1
    80   86   71 2
    81   87   71 2
    82   88   56 1
    83   89   72 2
    84   90   72 2
    85    7   73 1
    86   17   76 1
    87   28   79 1
    88   39   82 1
    89   50   85 1
    90   61   88 1
@<TRIPOS>SUBSTRUCTURE
     1 RES1 1
     2 RES2 12
     3 RES3 23
     4 RES4 34
     5 RES5 45
     6 RES6 56

@<TRIPOS>CRYSIN
   9.8407   13.4270   15.3000  91.1050 108.6030  91.1720   2 1

