# MOL2 file generated by ConQuest
# Please check atom types

@<TRIPOS>MOLECULE
XUBCUS
    32    33     1
SMALL
NO_CHARGES
****
Generated from CSD

@<TRIPOS>ATOM
      1 N1         4.8265    1.1189    0.6600 N.3       1 RES1    0.0000
      2 O1         5.2606    0.0452    1.5439 O.3       1 RES1    0.0000
      3 C1         5.9774    2.0275    0.5650 C.3       1 RES1    0.0000
      4 H1         5.7328    2.7822   -0.0266 H         1 RES1    0.0000
      5 H2         6.7256    1.5423    0.1329 H         1 RES1    0.0000
      6 C2         6.4789    2.6013    1.9000 C.3       1 RES1    0.0000
      7 H3         7.4282    2.8650    1.8075 H         1 RES1    0.0000
      8 H4         5.9555    3.4118    2.1254 H         1 RES1    0.0000
      9 C3         6.3469    1.6046    3.0024 C.2       1 RES1    0.0000
     10 N2         7.0600    1.5412    4.0612 N.2       1 RES1    0.0000
     11 O2         8.0429    2.5508    4.0961 O.3       1 RES1    0.0000
     12 H5         8.5456    2.4286    4.7570 H         1 RES1    0.0000
     13 C4         5.2146    0.6384    2.8643 C.3       1 RES1    0.0000
     14 H6         5.2512   -0.0634    3.5757 H         1 RES1    0.0000
     15 C5         3.8647    1.3403    2.8577 C.3       1 RES1    0.0000
     16 H7         3.8792    2.1473    3.4311 H         1 RES1    0.0000
     17 H8         3.1457    0.7347    3.1706 H         1 RES1    0.0000
     18 C6         3.6685    1.7162    1.3724 C.3       1 RES1    0.0000
     19 H9         3.7207    2.7111    1.2876 H         1 RES1    0.0000
     20 C7         2.3334    1.2416    0.7491 C.3       1 RES1    0.0000
     21 C8         2.2384   -0.2696    0.7261 C.3       1 RES1    0.0000
     22 H10        1.4110   -0.5380    0.2754 H         1 RES1    0.0000
     23 H11        2.2364   -0.6108    1.6449 H         1 RES1    0.0000
     24 H12        3.0069   -0.6378    0.2424 H         1 RES1    0.0000
     25 C9         2.2534    1.7784   -0.6843 C.3       1 RES1    0.0000
     26 H13        1.4316    1.4531   -1.1100 H         1 RES1    0.0000
     27 H14        3.0301    1.4677   -1.1930 H         1 RES1    0.0000
     28 H15        2.2457    2.7587   -0.6656 H         1 RES1    0.0000
     29 C10        1.1703    1.8383    1.5553 C.3       1 RES1    0.0000
     30 H16        1.2850    2.8092    1.6246 H         1 RES1    0.0000
     31 H17        1.1605    1.4460    2.4529 H         1 RES1    0.0000
     32 H18        0.3225    1.6404    1.1026 H         1 RES1    0.0000
@<TRIPOS>BOND
     1    1    2 1
     2    2   13 1
     3    3    1 1
     4    4    3 1
     5    5    3 1
     6    6    3 1
     7    7    6 1
     8    8    6 1
     9    9    6 1
    10   10    9 2
    11   11   10 1
    12   12   11 1
    13   13    9 1
    14   14   13 1
    15   15   13 1
    16   16   15 1
    17   17   15 1
    18   18    1 1
    19   19   18 1
    20   20   18 1
    21   21   20 1
    22   22   21 1
    23   23   21 1
    24   24   21 1
    25   25   20 1
    26   26   25 1
    27   27   25 1
    28   28   25 1
    29   29   20 1
    30   30   29 1
    31   31   29 1
    32   32   29 1
    33   15   18 1
@<TRIPOS>SUBSTRUCTURE
     1 RES1 1

@<TRIPOS>CRYSIN
  34.3090    5.8733   10.7105  90.0000  96.9180  90.0000  15 1

