# MOL2 file generated by ConQuest
# Please check atom types

@<TRIPOS>MOLECULE
XUBRES
    27    27     1
SMALL
NO_CHARGES
****
Generated from CSD

@<TRIPOS>ATOM
      1 N1         1.2588    2.6937    1.9006 N.am      1 RES1    0.0000
      2 H1         0.7150    3.3229    1.6803 H         1 RES1    0.0000
      3 N2         2.2459   -0.1534   -1.8249 N.pl3     1 RES1    0.0000
      4 O1         1.9838    1.2866    3.4282 O.2       1 RES1    0.0000
      5 O2         1.0987   -0.5233   -1.7258 O.2       1 RES1    0.0000
      6 O3         2.9931   -0.6118   -2.6533 O.2       1 RES1    0.0000
      7 O4         4.9760    0.9718   -1.9126 O.3       1 RES1    0.0000
      8 O5         6.1616    2.8956   -2.0909 O.2       1 RES1    0.0000
      9 C1         0.1647    2.7591    3.9539 C.3       1 RES1    0.0000
     10 H2         0.1668    2.3549    4.8255 H         1 RES1    0.0000
     11 H3        -0.6879    2.6165    3.5367 H         1 RES1    0.0000
     12 H4         0.3257    3.7017    4.0387 H         1 RES1    0.0000
     13 C2         1.2230    2.1530    3.1291 C.2       1 RES1    0.0000
     14 C3         2.2014    2.2090    0.9848 C.ar      1 RES1    0.0000
     15 C4         1.8208    1.2772    0.0746 C.ar      1 RES1    0.0000
     16 H5         0.9615    0.9228    0.0899 H         1 RES1    0.0000
     17 C5         2.7409    0.8631   -0.8799 C.ar      1 RES1    0.0000
     18 C6         4.0422    1.3789   -0.9488 C.ar      1 RES1    0.0000
     19 C7         4.3783    2.3144    0.0356 C.ar      1 RES1    0.0000
     20 H6         5.2418    2.6565    0.0543 H         1 RES1    0.0000
     21 C8         3.4813    2.7412    0.9687 C.ar      1 RES1    0.0000
     22 H7         3.7278    3.3864    1.5923 H         1 RES1    0.0000
     23 C9         5.9553    1.7619   -2.4495 C.2       1 RES1    0.0000
     24 C10        6.7480    1.0993   -3.5335 C.3       1 RES1    0.0000
     25 H8         7.4149    1.7078   -3.8608 H         1 RES1    0.0000
     26 H9         6.1625    0.8508   -4.2523 H         1 RES1    0.0000
     27 H10        7.1758    0.3139   -3.1827 H         1 RES1    0.0000
@<TRIPOS>BOND
     1    1    2 1
     2    3    5 2
     3    4   13 2
     4    6    3 2
     5    7   18 1
     6    8   23 2
     7    9   10 1
     8   11    9 1
     9   12    9 1
    10   13    1 1
    11   14    1 1
    12   15   14 ar
    13   16   15 1
    14   17    3 1
    15   18   17 ar
    16   19   18 ar
    17   20   19 1
    18   21   14 ar
    19   22   21 1
    20   23    7 1
    21   24   23 1
    22   25   24 1
    23   26   24 1
    24   27   24 1
    25    9   13 1
    26   15   17 ar
    27   19   21 ar
@<TRIPOS>SUBSTRUCTURE
     1 RES1 1

@<TRIPOS>CRYSIN
  24.8590    4.7060   19.7730  90.0000 108.6700  90.0000  15 1

