# MOL2 file generated by ConQuest
# Please check atom types

@<TRIPOS>MOLECULE
XUBRAO
    42    43     1
SMALL
NO_CHARGES
****
Generated from CSD

@<TRIPOS>ATOM
      1 N1        10.1838    2.0999    6.5747 N.2       1 RES1    0.0000
      2 O1        11.2589    1.2160    6.8565 O.3       1 RES1    0.0000
      3 C1        11.5479    0.4434    5.6963 C.3       1 RES1    0.0000
      4 H1        11.7818    1.0218    4.9529 H         1 RES1    0.0000
      5 H2        10.7787   -0.0901    5.4430 H         1 RES1    0.0000
      6 C2         9.8666    2.7414    7.6133 C.2       1 RES1    0.0000
      7 H3        10.3306    2.5746    8.4013 H         1 RES1    0.0000
      8 C3         8.7934    3.7410    7.6242 C.ar      1 RES1    0.0000
      9 C4         8.0773    4.1024    6.4887 C.ar      1 RES1    0.0000
     10 H4         8.2761    3.7077    5.6710 H         1 RES1    0.0000
     11 C5         7.0699    5.0480    6.5710 C.ar      1 RES1    0.0000
     12 H5         6.6096    5.2876    5.7991 H         1 RES1    0.0000
     13 C6         6.7282    5.6471    7.7734 C.ar      1 RES1    0.0000
     14 C7         7.4543    5.2885    8.9003 C.ar      1 RES1    0.0000
     15 H6         7.2522    5.6794    9.7201 H         1 RES1    0.0000
     16 C8         8.4730    4.3603    8.8219 C.ar      1 RES1    0.0000
     17 H7         8.9539    4.1458    9.5884 H         1 RES1    0.0000
     18 C9         5.6170    6.6621    7.8619 C.3       1 RES1    0.0000
     19 H8         5.9914    7.5456    7.8854 H         1 RES1    0.0000
     20 H9         5.1080    6.5098    8.6611 H         1 RES1    0.0000
     21 H10        5.0432    6.5773    7.0967 H         1 RES1    0.0000
     22 N1B       14.0702   -2.0999    5.1787 N.2       1 RES1    0.0000
     23 O1B       12.9950   -1.2160    4.8969 O.3       1 RES1    0.0000
     24 C1B       12.7061   -0.4434    6.0571 C.3       1 RES1    0.0000
     25 H1B       12.4722   -1.0218    6.8005 H         1 RES1    0.0000
     26 H2B       13.4752    0.0901    6.3104 H         1 RES1    0.0000
     27 C2B       14.3873   -2.7414    4.1401 C.2       1 RES1    0.0000
     28 H3B       13.9234   -2.5746    3.3521 H         1 RES1    0.0000
     29 C3B       15.4605   -3.7410    4.1292 C.ar      1 RES1    0.0000
     30 C4B       16.1766   -4.1024    5.2647 C.ar      1 RES1    0.0000
     31 H4B       15.9778   -3.7077    6.0824 H         1 RES1    0.0000
     32 C5B       17.1840   -5.0480    5.1824 C.ar      1 RES1    0.0000
     33 H5B       17.6444   -5.2876    5.9543 H         1 RES1    0.0000
     34 C6B       17.5257   -5.6471    3.9801 C.ar      1 RES1    0.0000
     35 C7B       16.7996   -5.2885    2.8531 C.ar      1 RES1    0.0000
     36 H6B       17.0018   -5.6794    2.0333 H         1 RES1    0.0000
     37 C8B       15.7809   -4.3603    2.9315 C.ar      1 RES1    0.0000
     38 H7B       15.3000   -4.1458    2.1650 H         1 RES1    0.0000
     39 C9B       18.6369   -6.6621    3.8916 C.3       1 RES1    0.0000
     40 H8B       18.2625   -7.5456    3.8680 H         1 RES1    0.0000
     41 H9B       19.1460   -6.5098    3.0923 H         1 RES1    0.0000
     42 H10B      19.2107   -6.5773    4.6567 H         1 RES1    0.0000
@<TRIPOS>BOND
     1    1    2 1
     2    2    3 1
     3    3    4 1
     4    5    3 1
     5    6    1 2
     6    7    6 1
     7    8    6 1
     8    9    8 ar
     9   10    9 1
    10   11    9 ar
    11   12   11 1
    12   13   11 ar
    13   14   13 ar
    14   15   14 1
    15   16    8 ar
    16   17   16 1
    17   18   13 1
    18   19   18 1
    19   20   18 1
    20   21   18 1
    21   22   23 1
    22   23   24 1
    23   24    3 1
    24   25   24 1
    25   26   24 1
    26   27   22 2
    27   28   27 1
    28   29   27 1
    29   30   29 ar
    30   31   30 1
    31   32   30 ar
    32   33   32 1
    33   34   32 ar
    34   35   34 ar
    35   36   35 1
    36   37   29 ar
    37   38   37 1
    38   39   34 1
    39   40   39 1
    40   41   39 1
    41   42   39 1
    42   14   16 ar
    43   35   37 ar
@<TRIPOS>SUBSTRUCTURE
     1 RES1 1

@<TRIPOS>CRYSIN
  13.6946    4.8196   12.1644  90.0000 104.9360  90.0000  14 1

