# MOL2 file generated by ConQuest
# Please check atom types

@<TRIPOS>MOLECULE
XUBZEZ
    52    53     1
SMALL
NO_CHARGES
****
Generated from CSD

@<TRIPOS>ATOM
      1 C1        -0.4038    3.8950    4.0475 C.3       1 RES1    0.0000
      2 H1        -1.3820    3.5276    4.3725 H         1 RES1    0.0000
      3 H2        -0.5328    4.6924    3.8117 H         1 RES1    0.0000
      4 C2         0.3865    3.9537    5.3260 C.3       1 RES1    0.0000
      5 H3         0.2887    4.8320    5.7690 H         1 RES1    0.0000
      6 H4         1.3703    3.8782    5.1623 H         1 RES1    0.0000
      7 O1        -0.0838    2.9407    6.2074 O.3       1 RES1    0.0000
      8 C3         0.6265    2.9374    7.4322 C.3       1 RES1    0.0000
      9 H5         0.6384    3.8288    7.6805 H         1 RES1    0.0000
     10 H6         1.5924    2.6600    7.1540 H         1 RES1    0.0000
     11 C4        -0.0615    2.0439    8.3914 C.3       1 RES1    0.0000
     12 H7        -1.1009    2.2579    8.3330 H         1 RES1    0.0000
     13 H8         0.2897    2.0869    9.1571 H         1 RES1    0.0000
     14 O2         0.0883    0.7003    7.9690 O.3       1 RES1    0.0000
     15 C5        -0.6222   -0.2115    8.7817 C.3       1 RES1    0.0000
     16 H9        -0.3546   -0.1716    9.5806 H         1 RES1    0.0000
     17 H10       -1.6705    0.1358    8.6764 H         1 RES1    0.0000
     18 C6        -0.4884   -1.5875    8.2082 C.3       1 RES1    0.0000
     19 H11        0.5400   -1.8136    8.0010 H         1 RES1    0.0000
     20 H12       -0.9792   -2.1669    8.5963 H         1 RES1    0.0000
     21 O3        -1.1239   -1.6851    6.9411 O.3       1 RES1    0.0000
     22 C7        -0.2508   -1.4216    5.8560 C.3       1 RES1    0.0000
     23 H13        0.4233   -0.8087    6.1353 H         1 RES1    0.0000
     24 H14        0.0150   -2.2413    5.5401 H         1 RES1    0.0000
     25 C8        -1.0478   -0.8134    4.7617 C.3       1 RES1    0.0000
     26 H15       -1.7840   -1.3597    4.6129 H         1 RES1    0.0000
     27 H16       -1.4453    0.1032    5.0822 H         1 RES1    0.0000
     28 O4        -0.2361   -0.6202    3.6091 O.3       1 RES1    0.0000
     29 C9         0.4333    0.6470    3.6239 C.3       1 RES1    0.0000
     30 H17        0.6608    0.9181    4.7274 H         1 RES1    0.0000
     31 H18        1.2103    0.5596    3.2279 H         1 RES1    0.0000
     32 C10       -0.4521    1.6855    2.9921 C.3       1 RES1    0.0000
     33 H19       -1.3482    1.6836    3.7201 H         1 RES1    0.0000
     34 H20       -0.5852    1.4868    2.3580 H         1 RES1    0.0000
     35 N1         0.1310    3.0271    3.0196 N.3       1 RES1    0.0000
     36 C11        1.1346    3.5076    2.2023 C.ar      1 RES1    0.0000
     37 C12        1.6963    4.7799    2.4575 C.ar      1 RES1    0.0000
     38 H21        1.3783    5.3247    3.4683 H         1 RES1    0.0000
     39 C13        2.6423    5.3501    1.6185 C.ar      1 RES1    0.0000
     40 H22        3.0316    6.2381    1.9688 H         1 RES1    0.0000
     41 C14        3.0785    4.6459    0.5357 C.ar      1 RES1    0.0000
     42 C15        2.5997    3.3798    0.2587 C.ar      1 RES1    0.0000
     43 H23        2.8603    2.8917   -0.5036 H         1 RES1    0.0000
     44 C16        1.6403    2.8107    1.0588 C.ar      1 RES1    0.0000
     45 O5         1.1314    1.5675    0.8116 O.3       1 RES1    0.0000
     46 C17        1.6803    0.8356   -0.2873 C.3       1 RES1    0.0000
     47 H24        1.2751   -0.0775   -0.2175 H         1 RES1    0.0000
     48 H25        2.6756    0.7094   -0.1374 H         1 RES1    0.0000
     49 H26        1.5306    1.2518   -1.2934 H         1 RES1    0.0000
     50 N2         4.0437    5.2285   -0.3720 N.pl3     1 RES1    0.0000
     51 O6         4.4538    6.3751   -0.1477 O.2       1 RES1    0.0000
     52 O7         4.4306    4.5520   -1.3347 O.2       1 RES1    0.0000
@<TRIPOS>BOND
     1    1    2 1
     2    3    1 1
     3    4    1 1
     4    5    4 1
     5    6    4 1
     6    7    4 1
     7    8    7 1
     8    9    8 1
     9   10    8 1
    10   11    8 1
    11   12   11 1
    12   13   11 1
    13   14   11 1
    14   15   14 1
    15   16   15 1
    16   17   15 1
    17   18   15 1
    18   19   18 1
    19   20   18 1
    20   21   18 1
    21   22   21 1
    22   23   22 1
    23   24   22 1
    24   25   22 1
    25   26   25 1
    26   27   25 1
    27   28   25 1
    28   29   28 1
    29   30   29 1
    30   31   29 1
    31   32   29 1
    32   33   32 1
    33   34   32 1
    34   35    1 1
    35   36   35 1
    36   37   36 ar
    37   38   37 1
    38   39   37 ar
    39   40   39 1
    40   41   39 ar
    41   42   41 ar
    42   43   42 1
    43   44   36 ar
    44   45   44 1
    45   46   45 1
    46   47   46 1
    47   48   46 1
    48   49   46 1
    49   50   41 1
    50   51   50 2
    51   52   50 2
    52   32   35 1
    53   42   44 ar
@<TRIPOS>SUBSTRUCTURE
     1 RES1 1

@<TRIPOS>CRYSIN
   8.6960    8.9430   12.0980  83.9320  71.2170  76.9370   2 1

