# MOL2 file generated by ConQuest
# Please check atom types

@<TRIPOS>MOLECULE
XUBZAV
    76    78     1
SMALL
NO_CHARGES
****
Generated from CSD

@<TRIPOS>ATOM
      1 C1        -1.4839   -2.8117   -1.8378 C.3       1 RES1    0.0000
      2 H1        -1.2985   -3.4303   -1.0528 H         1 RES1    0.0000
      3 H2        -1.9864   -3.3397   -2.4483 H         1 RES1    0.0000
      4 C2        -2.3250   -1.6672   -1.3272 C.3       1 RES1    0.0000
      5 H3        -1.8970   -1.1868   -0.6137 H         1 RES1    0.0000
      6 H4        -3.1914   -2.0643   -0.9949 H         1 RES1    0.0000
      7 O1        -2.5890   -0.7965   -2.4240 O.3       1 RES1    0.0000
      8 C3        -3.2472    0.4143   -2.0555 C.3       1 RES1    0.0000
      9 H5        -3.9364    0.2160   -1.3676 H         1 RES1    0.0000
     10 H6        -3.6898    0.7235   -2.8188 H         1 RES1    0.0000
     11 C4        -2.3192    1.4828   -1.5516 C.3       1 RES1    0.0000
     12 H7        -1.5906    1.6016   -2.1163 H         1 RES1    0.0000
     13 H8        -2.8318    2.3614   -1.4822 H         1 RES1    0.0000
     14 O2        -1.8615    1.1304   -0.2596 O.3       1 RES1    0.0000
     15 C5        -0.9293    2.0474    0.2899 C.3       1 RES1    0.0000
     16 H9        -0.1259    2.1109   -0.3352 H         1 RES1    0.0000
     17 H10       -1.3302    2.9358    0.3920 H         1 RES1    0.0000
     18 C6        -0.5892    1.4757    1.6534 C.3       1 RES1    0.0000
     19 H11       -0.1461    0.5923    1.4940 H         1 RES1    0.0000
     20 H12       -1.4078    1.3451    2.1216 H         1 RES1    0.0000
     21 N1        -0.2177   -2.3836   -2.4628 N.3       1 RES1    0.0000
     22 C7        -0.2309   -2.1370   -3.8293 C.ar      1 RES1    0.0000
     23 C8         0.2052   -0.9155   -4.3570 C.ar      1 RES1    0.0000
     24 H13        0.4277   -0.2069   -3.6863 H         1 RES1    0.0000
     25 C9         0.2819   -0.6916   -5.7140 C.ar      1 RES1    0.0000
     26 H14        0.5271    0.1476   -6.0735 H         1 RES1    0.0000
     27 C10       -0.0896   -1.6916   -6.5749 C.ar      1 RES1    0.0000
     28 C11       -0.5483   -2.9224   -6.1178 C.ar      1 RES1    0.0000
     29 H15       -0.7846   -3.5702   -6.7418 H         1 RES1    0.0000
     30 C12       -0.6044   -3.1525   -4.7580 C.ar      1 RES1    0.0000
     31 O3        -0.9591   -4.3533   -4.2160 O.3       1 RES1    0.0000
     32 C13       -1.3347   -5.3953   -5.1189 C.3       1 RES1    0.0000
     33 H16       -0.5955   -5.5865   -5.7405 H         1 RES1    0.0000
     34 H17       -1.4859   -6.1742   -4.5742 H         1 RES1    0.0000
     35 H18       -2.1500   -5.1592   -5.6698 H         1 RES1    0.0000
     36 N2         0.0058   -1.4485   -8.0037 N.pl3     1 RES1    0.0000
     37 O4         0.5216   -0.4000   -8.3879 O.2       1 RES1    0.0000
     38 O5        -0.4468   -2.2908   -8.7768 O.2       1 RES1    0.0000
     39 N1A        0.2177    2.3836    2.4628 N.3       1 RES1    0.0000
     40 C1A        1.4839    2.8117    1.8378 C.3       1 RES1    0.0000
     41 H1A        1.2985    3.4303    1.0528 H         1 RES1    0.0000
     42 H2A        1.9864    3.3397    2.4483 H         1 RES1    0.0000
     43 C2A        2.3250    1.6672    1.3272 C.3       1 RES1    0.0000
     44 H3A        1.8970    1.1868    0.6137 H         1 RES1    0.0000
     45 H4A        3.1914    2.0643    0.9949 H         1 RES1    0.0000
     46 O1A        2.5890    0.7965    2.4240 O.3       1 RES1    0.0000
     47 C3A        3.2472   -0.4143    2.0555 C.3       1 RES1    0.0000
     48 H5A        3.9364   -0.2160    1.3676 H         1 RES1    0.0000
     49 H6A        3.6898   -0.7235    2.8188 H         1 RES1    0.0000
     50 C4A        2.3192   -1.4828    1.5516 C.3       1 RES1    0.0000
     51 H7A        1.5906   -1.6016    2.1163 H         1 RES1    0.0000
     52 H8A        2.8318   -2.3614    1.4822 H         1 RES1    0.0000
     53 O2A        1.8615   -1.1304    0.2596 O.3       1 RES1    0.0000
     54 C5A        0.9293   -2.0474   -0.2899 C.3       1 RES1    0.0000
     55 H9A        0.1259   -2.1109    0.3352 H         1 RES1    0.0000
     56 H10A       1.3302   -2.9358   -0.3920 H         1 RES1    0.0000
     57 C6A        0.5892   -1.4757   -1.6534 C.3       1 RES1    0.0000
     58 H11A       0.1461   -0.5923   -1.4940 H         1 RES1    0.0000
     59 H12A       1.4078   -1.3451   -2.1216 H         1 RES1    0.0000
     60 C7A        0.2309    2.1370    3.8293 C.ar      1 RES1    0.0000
     61 C8A       -0.2052    0.9155    4.3570 C.ar      1 RES1    0.0000
     62 H13A      -0.4277    0.2069    3.6863 H         1 RES1    0.0000
     63 C9A       -0.2819    0.6916    5.7140 C.ar      1 RES1    0.0000
     64 H14A      -0.5271   -0.1476    6.0735 H         1 RES1    0.0000
     65 C10A       0.0896    1.6916    6.5749 C.ar      1 RES1    0.0000
     66 C11A       0.5483    2.9224    6.1178 C.ar      1 RES1    0.0000
     67 H15A       0.7846    3.5702    6.7418 H         1 RES1    0.0000
     68 C12A       0.6044    3.1525    4.7580 C.ar      1 RES1    0.0000
     69 O3A        0.9591    4.3533    4.2160 O.3       1 RES1    0.0000
     70 C13A       1.3347    5.3953    5.1189 C.3       1 RES1    0.0000
     71 H16A       0.5955    5.5865    5.7405 H         1 RES1    0.0000
     72 H17A       1.4859    6.1742    4.5742 H         1 RES1    0.0000
     73 H18A       2.1500    5.1592    5.6698 H         1 RES1    0.0000
     74 N2A       -0.0058    1.4485    8.0037 N.pl3     1 RES1    0.0000
     75 O4A       -0.5216    0.4000    8.3879 O.2       1 RES1    0.0000
     76 O5A        0.4468    2.2908    8.7768 O.2       1 RES1    0.0000
@<TRIPOS>BOND
     1    1    2 1
     2    3    1 1
     3    4    1 1
     4    5    4 1
     5    6    4 1
     6    7    4 1
     7    8    7 1
     8    9    8 1
     9   10    8 1
    10   11    8 1
    11   12   11 1
    12   13   11 1
    13   14   11 1
    14   15   14 1
    15   16   15 1
    16   17   15 1
    17   18   15 1
    18   19   18 1
    19   20   18 1
    20   21    1 1
    21   22   21 1
    22   23   22 ar
    23   24   23 1
    24   25   23 ar
    25   26   25 1
    26   27   25 ar
    27   28   27 ar
    28   29   28 1
    29   30   22 ar
    30   31   30 1
    31   32   31 1
    32   33   32 1
    33   34   32 1
    34   35   32 1
    35   36   27 1
    36   37   36 2
    37   38   36 2
    38   39   18 1
    39   40   39 1
    40   41   40 1
    41   42   40 1
    42   43   40 1
    43   44   43 1
    44   45   43 1
    45   46   43 1
    46   47   46 1
    47   48   47 1
    48   49   47 1
    49   50   47 1
    50   51   50 1
    51   52   50 1
    52   53   50 1
    53   54   53 1
    54   55   54 1
    55   56   54 1
    56   57   21 1
    57   58   57 1
    58   59   57 1
    59   60   39 1
    60   61   60 ar
    61   62   61 1
    62   63   61 ar
    63   64   63 1
    64   65   63 ar
    65   66   65 ar
    66   67   66 1
    67   68   60 ar
    68   69   68 1
    69   70   69 1
    70   71   70 1
    71   72   70 1
    72   73   70 1
    73   74   65 1
    74   75   74 2
    75   76   74 2
    76   28   30 ar
    77   54   57 1
    78   66   68 ar
@<TRIPOS>SUBSTRUCTURE
     1 RES1 1

@<TRIPOS>CRYSIN
   7.4201    8.1588   11.0550  99.1300 100.3810  93.5950   2 1

