# MOL2 file generated by ConQuest
# Please check atom types

@<TRIPOS>MOLECULE
XUCMIR
    34    38     1
SMALL
NO_CHARGES
****
Generated from CSD

@<TRIPOS>ATOM
      1 O1         3.7447    1.1302   10.6224 O.3       1 RES1    0.0000
      2 O2         4.1775    1.8823   12.7242 O.2       1 RES1    0.0000
      3 O3         8.4187    3.1649    5.0610 O.3       1 RES1    0.0000
      4 N1         5.3604    1.9572    9.5280 N.pl3     1 RES1    0.0000
      5 N2         4.2900    1.2162    9.3604 N.2       1 RES1    0.0000
      6 N3         6.9764    3.3361   12.5068 N.2       1 RES1    0.0000
      7 N4         8.0660    4.1682   12.4588 N.pl3     1 RES1    0.0000
      8 N5         7.5114    3.8591   10.3676 N.2       1 RES1    0.0000
      9 N6        12.5694    7.5435    8.9176 N.3       1 RES1    0.0000
     10 C1         4.5221    1.8439   11.5707 C.2       1 RES1    0.0000
     11 C2         5.5823    2.3703   10.7959 C.2       1 RES1    0.0000
     12 C3         6.1605    2.2204    8.3445 C.ar      1 RES1    0.0000
     13 C4         7.2328    1.4215    8.0670 C.ar      1 RES1    0.0000
     14 C5         8.0235    1.7043    6.9631 C.ar      1 RES1    0.0000
     15 C6         7.7067    2.7842    6.1653 C.ar      1 RES1    0.0000
     16 C7         6.6050    3.5661    6.4544 C.ar      1 RES1    0.0000
     17 C8         5.8258    3.2918    7.5583 C.ar      1 RES1    0.0000
     18 C9         9.5862    2.4248    4.7406 C.3       1 RES1    0.0000
     19 C10        6.6925    3.1973   11.2167 C.2       1 RES1    0.0000
     20 C11        8.3805    4.4697   11.1739 C.2       1 RES1    0.0000
     21 C12        9.4736    5.3001   10.6779 C.ar      1 RES1    0.0000
     22 C13       10.6355    5.5974   11.3807 C.ar      1 RES1    0.0000
     23 C14       11.6468    6.3375   10.8151 C.ar      1 RES1    0.0000
     24 C15       11.5554    6.8281    9.5064 C.ar      1 RES1    0.0000
     25 C16       10.3793    6.5240    8.8057 C.ar      1 RES1    0.0000
     26 C17        9.3800    5.7771    9.3777 C.ar      1 RES1    0.0000
     27 C18       13.7476    7.9293    9.6647 C.3       1 RES1    0.0000
     28 C19       12.3596    8.2291    7.6659 C.3       1 RES1    0.0000
     29 C20        8.5945    4.6341   13.7193 C.ar      1 RES1    0.0000
     30 C21        9.4630    3.8420   14.4032 C.ar      1 RES1    0.0000
     31 C22        9.9004    4.2525   15.6612 C.ar      1 RES1    0.0000
     32 C23        9.4542    5.4219   16.1825 C.ar      1 RES1    0.0000
     33 C24        8.5977    6.2157   15.4839 C.ar      1 RES1    0.0000
     34 C25        8.1523    5.8197   14.2280 C.ar      1 RES1    0.0000
@<TRIPOS>BOND
     1    1    5 1
     2    2   10 2
     3    3   15 1
     4    4    5 2
     5    6    7 1
     6    7   20 1
     7    8   19 1
     8    9   24 1
     9   10    1 1
    10   11    4 1
    11   12    4 1
    12   13   12 ar
    13   14   13 ar
    14   15   14 ar
    15   16   15 ar
    16   17   12 ar
    17   18    3 1
    18   19    6 2
    19   20    8 2
    20   21   20 1
    21   22   21 ar
    22   23   22 ar
    23   24   23 ar
    24   25   24 ar
    25   26   21 ar
    26   27    9 1
    27   28    9 1
    28   29    7 1
    29   30   29 ar
    30   31   30 ar
    31   32   31 ar
    32   33   32 ar
    33   34   29 ar
    34   10   11 2
    35   11   19 1
    36   16   17 ar
    37   25   26 ar
    38   33   34 ar
@<TRIPOS>SUBSTRUCTURE
     1 RES1 1

@<TRIPOS>CRYSIN
  12.6920    8.5170   21.2540  90.0000  96.7500  90.0000 231 1

