# MOL2 file generated by ConQuest
# Please check atom types

@<TRIPOS>MOLECULE
XUCNUE
    32    30     2
SMALL
NO_CHARGES
****
Generated from CSD

@<TRIPOS>ATOM
      1 O1         1.9264    0.6174    9.1428 O.2       1 RES1    0.0000
      2 O2         2.6355   -4.0676    8.5222 O.3       1 RES1    0.0000
      3 O3         3.0053   -4.1467    8.3949 Du        2 SUP2    0.0000
      4 O4         2.3016   -5.1822    6.6290 O.2       1 RES1    0.0000
      5 O5         1.8258   -5.0393    6.6590 Du        2 SUP2    0.0000
      6 O6         6.3248    0.3802    4.4570 O.2       1 RES1    0.0000
      7 O7         8.2368   -0.2022    5.2577 O.2       1 RES1    0.0000
      8 N1         1.9533   -1.2545    4.8617 N.2       1 RES1    0.0000
      9 N2         7.0268   -0.1505    5.3106 N.pl3     1 RES1    0.0000
     10 C1         1.8384   -0.1810    5.6924 C.2       1 RES1    0.0000
     11 C2         1.3303    1.0857    5.0833 C.3       1 RES1    0.0000
     12 C3         1.6840    2.3250    5.8912 C.3       1 RES1    0.0000
     13 C4         1.3088    2.0543    7.3511 C.3       1 RES1    0.0000
     14 C5         1.8222    0.7618    7.9216 C.2       1 RES1    0.0000
     15 C6         2.1310   -0.3148    7.0108 C.2       1 RES1    0.0000
     16 C7         0.8743    3.5095    5.3621 C.3       1 RES1    0.0000
     17 C8         3.1777    2.6428    5.7711 C.3       1 RES1    0.0000
     18 C9         2.8078   -1.5677    7.5113 C.3       1 RES1    0.0000
     19 C10        2.4075   -2.7492    6.6405 C.2       1 RES1    0.0000
     20 C11        2.0951   -2.5470    5.3421 C.2       1 RES1    0.0000
     21 C12        1.8258   -3.5962    4.3140 C.3       1 RES1    0.0000
     22 C13        2.4003   -4.1026    7.1895 C.2       1 RES1    0.0000
     23 C14        2.6858   -5.2841    9.3258 C.3       1 RES1    0.0000
     24 C15        3.0825   -5.5122    8.8883 Du        2 SUP2    0.0000
     25 C16        4.1184   -5.6703    9.4974 C.3       1 RES1    0.0000
     26 C17        3.9838   -5.3936   10.0765 Du        2 SUP2    0.0000
     27 C18        4.3213   -1.4005    7.5542 C.ar      1 RES1    0.0000
     28 C19        5.0807   -1.7502    8.6552 C.ar      1 RES1    0.0000
     29 C20        6.4595   -1.6012    8.6609 C.ar      1 RES1    0.0000
     30 C21        7.1220   -1.1040    7.5699 C.ar      1 RES1    0.0000
     31 C22        6.3590   -0.7405    6.4789 C.ar      1 RES1    0.0000
     32 C23        4.9963   -0.8819    6.4546 C.ar      1 RES1    0.0000
@<TRIPOS>BOND
     1    1   14 2
     2    2   22 1
     3    4   22 2
     4    6    9 2
     5    7    9 2
     6    8   10 1
     7    9   31 1
     8   10   11 1
     9   11   12 1
    10   12   13 1
    11   13   14 1
    12   14   15 1
    13   15   10 2
    14   16   12 1
    15   17   12 1
    16   18   15 1
    17   19   18 1
    18   20    8 1
    19   21   20 1
    20   22   19 1
    21   23    2 1
    22   25   23 1
    23   27   18 1
    24   28   27 ar
    25   29   28 ar
    26   30   29 ar
    27   31   30 ar
    28   32   27 ar
    29   19   20 2
    30   31   32 ar
@<TRIPOS>SUBSTRUCTURE
     1 RES1 1
     2 SUP2 3

@<TRIPOS>CRYSIN
  17.9530   15.2060   14.2990  90.0000  90.0000  90.0000  60 1

