# MOL2 file generated by ConQuest
# Please check atom types

@<TRIPOS>MOLECULE
XUCPAO
    60    60     4
SMALL
NO_CHARGES
****
Generated from CSD

@<TRIPOS>ATOM
      1 C1         4.0024   -2.7852    3.1987 C.ar      1 RES1    0.0000
      2 H1         4.2984   -3.3672    3.8624 H         1 RES1    0.0000
      3 C2         3.4121   -1.5896    3.5477 C.ar      1 RES1    0.0000
      4 H2         3.3240   -1.3543    4.4440 H         1 RES1    0.0000
      5 C3         2.9464   -0.7309    2.5442 C.ar      1 RES1    0.0000
      6 C4         3.0855   -1.1264    1.2217 C.ar      1 RES1    0.0000
      7 H3         2.7615   -0.5809    0.5411 H         1 RES1    0.0000
      8 C5         3.6985   -2.3161    0.9082 C.ar      1 RES1    0.0000
      9 H4         3.7998   -2.5686    0.0182 H         1 RES1    0.0000
     10 C6         2.3391    0.5905    2.9343 C.2       1 RES1    0.0000
     11 N1         4.1528   -3.1176    1.8953 N.pl3     1 RES1    0.0000
     12 O1         4.7936   -4.2321    1.5721 O.2       1 RES1    0.0000
     13 O2         2.3126    0.9800    4.0752 O.2       1 RES1    0.0000
     14 O3         1.8477    1.2441    1.8905 O.3       1 RES1    0.0000
     15 H5         1.5459    2.0730    2.2088 H         1 RES1    0.0000
     16 C7         3.1817   -5.7355    9.0766 C.ar      2 RES2    0.0000
     17 H6         3.3512   -6.0122    9.9478 H         2 RES2    0.0000
     18 C8         2.5202   -4.5511    8.8511 C.ar      2 RES2    0.0000
     19 H7         2.2367   -4.0348    9.5709 H         2 RES2    0.0000
     20 C9         2.2737   -4.1214    7.5501 C.ar      2 RES2    0.0000
     21 C10        2.6742   -4.9449    6.4992 C.ar      2 RES2    0.0000
     22 H8         2.5047   -4.6901    5.6213 H         2 RES2    0.0000
     23 C11        3.3200   -6.1355    6.7559 C.ar      2 RES2    0.0000
     24 H9         3.5727   -6.6884    6.0530 H         2 RES2    0.0000
     25 C12        1.5861   -2.8217    7.2526 C.2       2 RES2    0.0000
     26 N2         3.5873   -6.5010    8.0344 N.pl3     2 RES2    0.0000
     27 O4         4.2837   -7.6050    8.2642 O.2       2 RES2    0.0000
     28 O5         1.3648   -2.4580    6.1204 O.2       2 RES2    0.0000
     29 O6         1.2589   -2.1616    8.3479 O.3       2 RES2    0.0000
     30 H10        0.7485   -1.3042    8.1665 H         2 RES2    0.0000
     31 C13        0.9716    5.2176    3.5744 C.ar      3 RES3    0.0000
     32 H11        0.5695    4.8262    4.3163 H         3 RES3    0.0000
     33 C14        1.5108    6.4836    3.6707 C.ar      3 RES3    0.0000
     34 H12        1.4750    6.9453    4.4784 H         3 RES3    0.0000
     35 C15        2.1095    7.0739    2.5563 C.ar      3 RES3    0.0000
     36 C16        2.1539    6.3591    1.3624 C.ar      3 RES3    0.0000
     37 H13        2.5475    6.7343    0.6079 H         3 RES3    0.0000
     38 C17        1.6114    5.0903    1.3014 C.ar      3 RES3    0.0000
     39 H14        1.6447    4.6076    0.5066 H         3 RES3    0.0000
     40 C18        2.7224    8.4401    2.6787 C.2       3 RES3    0.0000
     41 N3         1.0277    4.5447    2.4042 N.pl3     3 RES3    0.0000
     42 O7         0.4635    3.3460    2.3120 O.2       3 RES3    0.0000
     43 O8         2.7542    9.0451    3.7282 O.2       3 RES3    0.0000
     44 O9         3.2147    8.8788    1.5348 O.3       3 RES3    0.0000
     45 H15        3.6315    9.7894    1.6211 H         3 RES3    0.0000
     46 C19        0.9299    1.8214    9.0006 C.ar      4 RES4    0.0000
     47 H16        0.7465    1.5126    9.8586 H         4 RES4    0.0000
     48 C20        1.5669    3.0319    8.8276 C.ar      4 RES4    0.0000
     49 H17        1.8054    3.5432    9.5668 H         4 RES4    0.0000
     50 C21        1.8529    3.4856    7.5436 C.ar      4 RES4    0.0000
     51 C22        1.5148    2.6793    6.4631 C.ar      4 RES4    0.0000
     52 H18        1.7246    2.9488    5.5990 H         4 RES4    0.0000
     53 C23        0.8694    1.4787    6.6716 C.ar      4 RES4    0.0000
     54 H19        0.6389    0.9425    5.9476 H         4 RES4    0.0000
     55 C24        2.5318    4.8170    7.3110 C.2       4 RES4    0.0000
     56 N4         0.5713    1.0836    7.9300 N.pl3     4 RES4    0.0000
     57 O10       -0.1032   -0.0506    8.1193 O.2       4 RES4    0.0000
     58 O11        2.8497    5.1889    6.2003 O.2       4 RES4    0.0000
     59 O12        2.7337    5.4829    8.4279 O.3       4 RES4    0.0000
     60 H20        3.1298    6.2811    8.3084 H         4 RES4    0.0000
@<TRIPOS>BOND
     1    1    2 1
     2    3    1 ar
     3    4    3 1
     4    5    3 ar
     5    6    5 ar
     6    7    6 1
     7    8    6 ar
     8    9    8 1
     9   10    5 1
    10   11    1 ar
    11   12   11 1
    12   13   10 2
    13   14   10 1
    14   15   14 1
    15   16   17 1
    16   18   16 ar
    17   19   18 1
    18   20   18 ar
    19   21   20 ar
    20   22   21 1
    21   23   21 ar
    22   24   23 1
    23   25   20 1
    24   26   16 ar
    25   27   26 1
    26   28   25 2
    27   29   25 1
    28   30   29 1
    29   31   32 1
    30   33   31 ar
    31   34   33 1
    32   35   33 ar
    33   36   35 ar
    34   37   36 1
    35   38   36 ar
    36   39   38 1
    37   40   35 1
    38   41   31 ar
    39   42   41 1
    40   43   40 2
    41   44   40 1
    42   45   44 1
    43   46   47 1
    44   48   46 ar
    45   49   48 1
    46   50   48 ar
    47   51   50 ar
    48   52   51 1
    49   53   51 ar
    50   54   53 1
    51   55   50 1
    52   56   46 ar
    53   57   56 1
    54   58   55 2
    55   59   55 1
    56   60   59 1
    57    8   11 ar
    58   23   26 ar
    59   38   41 ar
    60   53   56 ar
@<TRIPOS>SUBSTRUCTURE
     1 RES1 1
     2 RES2 16
     3 RES3 31
     4 RES4 46

@<TRIPOS>CRYSIN
   3.7298   15.2653   21.3584 107.9530  93.6840  90.9510   2 1

