# MOL2 file generated by ConQuest
# Please check atom types

@<TRIPOS>MOLECULE
XUCSOD
    47    48     1
SMALL
NO_CHARGES
****
Generated from CSD

@<TRIPOS>ATOM
      1 O1         1.5861    2.8513    2.8944 O.3       1 RES1    0.0000
      2 O2         1.1662    0.5558    2.7754 O.3       1 RES1    0.0000
      3 O3         1.3768    2.5992   -0.0878 O.3       1 RES1    0.0000
      4 O4         0.2370    1.5625   -1.7228 O.2       1 RES1    0.0000
      5 O5        -1.7371    1.9660    0.6517 O.3       1 RES1    0.0000
      6 O6        -2.6273    3.9199   -0.0035 O.2       1 RES1    0.0000
      7 O7        -1.9213    3.4794    3.1544 O.3       1 RES1    0.0000
      8 O8        -3.4164    1.8154    3.1879 O.2       1 RES1    0.0000
      9 O9        -0.4901    1.8326    5.3694 O.2       1 RES1    0.0000
     10 O10        1.4491    2.6423    5.5589 O.2       1 RES1    0.0000
     11 N1         0.4421    2.4822    4.9489 N.pl3     1 RES1    0.0000
     12 C1         1.5886    1.6846    2.0706 C.3       1 RES1    0.0000
     13 C2         0.6299    1.8619    0.8990 C.3       1 RES1    0.0000
     14 C3        -0.6310    2.6225    1.2964 C.3       1 RES1    0.0000
     15 C4        -0.8639    2.5751    2.8055 C.3       1 RES1    0.0000
     16 C5         0.3739    3.0905    3.5253 C.3       1 RES1    0.0000
     17 C6         2.1075   -0.1712    3.5149 C.ar      1 RES1    0.0000
     18 C7         1.6237   -1.3370    4.0765 C.ar      1 RES1    0.0000
     19 C8         2.4823   -2.1312    4.8079 C.ar      1 RES1    0.0000
     20 C9         3.8066   -1.7836    4.9581 C.ar      1 RES1    0.0000
     21 C10        4.2722   -0.6212    4.3965 C.ar      1 RES1    0.0000
     22 C11        3.4225    0.2082    3.6721 C.ar      1 RES1    0.0000
     23 C12        1.1188    2.2972   -1.3877 C.2       1 RES1    0.0000
     24 C13        2.0680    3.0028   -2.2867 C.3       1 RES1    0.0000
     25 C14       -2.6417    2.7240   -0.0035 C.2       1 RES1    0.0000
     26 C15       -3.6301    1.8567   -0.7129 C.3       1 RES1    0.0000
     27 C16       -3.1732    2.9804    3.2977 C.2       1 RES1    0.0000
     28 C17       -4.1357    4.0705    3.5704 C.3       1 RES1    0.0000
     29 H1         2.4937    1.5332    1.7286 H         1 RES1    0.0000
     30 H2         0.3848    0.9834    0.5384 H         1 RES1    0.0000
     31 H3        -0.5702    3.5534    0.9949 H         1 RES1    0.0000
     32 H4        -1.0788    1.6640    3.0943 H         1 RES1    0.0000
     33 H5         0.2769    4.0610    3.6224 H         1 RES1    0.0000
     34 H6         0.6858   -1.5960    3.9575 H         1 RES1    0.0000
     35 H7         2.1462   -2.9520    5.2250 H         1 RES1    0.0000
     36 H8         4.4133   -2.3635    5.4642 H         1 RES1    0.0000
     37 H9         5.2138   -0.3725    4.5075 H         1 RES1    0.0000
     38 H10        3.7520    1.0454    3.2827 H         1 RES1    0.0000
     39 H11        2.6907    3.5371   -1.7494 H         1 RES1    0.0000
     40 H12        1.5697    3.5921   -2.8898 H         1 RES1    0.0000
     41 H13        2.5702    2.3454   -2.8112 H         1 RES1    0.0000
     42 H14       -4.1223    1.3190   -0.0578 H         1 RES1    0.0000
     43 H15       -3.1567    1.2631   -1.3334 H         1 RES1    0.0000
     44 H16       -4.2575    2.4186   -1.2132 H         1 RES1    0.0000
     45 H17       -4.9990    3.6859    3.8292 H         1 RES1    0.0000
     46 H18       -3.7959    4.6306    4.2995 H         1 RES1    0.0000
     47 H19       -4.2492    4.6160    2.7650 H         1 RES1    0.0000
@<TRIPOS>BOND
     1    1   12 1
     2    2   12 1
     3    3   13 1
     4    4   23 2
     5    5   14 1
     6    6   25 2
     7    7   15 1
     8    8   27 2
     9    9   11 2
    10   10   11 2
    11   11   16 1
    12   12   13 1
    13   13   14 1
    14   14   15 1
    15   15   16 1
    16   16    1 1
    17   17    2 1
    18   18   17 ar
    19   19   18 ar
    20   20   19 ar
    21   21   20 ar
    22   22   17 ar
    23   23    3 1
    24   24   23 1
    25   25    5 1
    26   26   25 1
    27   27    7 1
    28   28   27 1
    29   29   12 1
    30   30   13 1
    31   31   14 1
    32   32   15 1
    33   33   16 1
    34   34   18 1
    35   35   19 1
    36   36   20 1
    37   37   21 1
    38   38   22 1
    39   39   24 1
    40   40   24 1
    41   41   24 1
    42   42   26 1
    43   43   26 1
    44   44   26 1
    45   45   28 1
    46   46   28 1
    47   47   28 1
    48   21   22 ar
@<TRIPOS>SUBSTRUCTURE
     1 RES1 1

@<TRIPOS>CRYSIN
   9.5935    8.6039   11.6119  90.0000  95.6920  90.0000   4 1

