# MOL2 file generated by ConQuest
# Please check atom types

@<TRIPOS>MOLECULE
XUDREV
    35    36     1
SMALL
NO_CHARGES
****
Generated from CSD

@<TRIPOS>ATOM
      1 N1         3.4562    1.6325    2.9893 N.2       1 RES1    0.0000
      2 N2         3.5237    0.6675    1.9290 N.2       1 RES1    0.0000
      3 C1         4.6061    2.2875    3.1873 C.2       1 RES1    0.0000
      4 H1         5.3484    2.0735    2.6396 H         1 RES1    0.0000
      5 N3         1.3240   -1.6925    0.3053 N.2       1 RES1    0.0000
      6 C2         2.3889   -0.0150    1.6879 C.2       1 RES1    0.0000
      7 O1         1.4672   -2.6535   -0.7516 O.3       1 RES1    0.0000
      8 H2         0.7258   -3.0525   -0.8938 H         1 RES1    0.0000
      9 C3         4.7981    3.3365    4.2171 C.ar      1 RES1    0.0000
     10 C4         2.4547   -1.0260    0.5737 C.2       1 RES1    0.0000
     11 C5         6.0873    4.1000    4.3582 C.ar      1 RES1    0.0000
     12 O2         2.4949    2.9615    5.0166 O.3       1 RES1    0.0000
     13 H3         2.4916    2.4020    4.3881 H         1 RES1    0.0000
     14 C6         6.2400    5.0945    5.4160 C.ar      1 RES1    0.0000
     15 C7         3.7400    3.6195    5.0964 C.ar      1 RES1    0.0000
     16 C8         7.2069    3.9265    3.4971 C.ar      1 RES1    0.0000
     17 H4         7.1320    3.2880    2.7904 H         1 RES1    0.0000
     18 C9         7.4999    5.8440    5.5517 C.ar      1 RES1    0.0000
     19 H5         7.6028    6.5080    6.2344 H         1 RES1    0.0000
     20 C10        3.9160    4.6130    6.1511 C.ar      1 RES1    0.0000
     21 H6         3.2003    4.7895    6.7427 H         1 RES1    0.0000
     22 C11        3.7540   -1.2490   -0.1687 C.3       1 RES1    0.0000
     23 H7         3.6011   -1.9425   -0.8603 H         1 RES1    0.0000
     24 H8         4.4621   -1.5845    0.4329 H         1 RES1    0.0000
     25 H9         4.0400   -0.3650   -0.5614 H         1 RES1    0.0000
     26 C12        5.1374    5.3005    6.2863 C.ar      1 RES1    0.0000
     27 H10        5.2511    5.9380    6.9885 H         1 RES1    0.0000
     28 C13        1.0663    0.1595    2.4320 C.3       1 RES1    0.0000
     29 H11        1.1936    0.8510    3.1284 H         1 RES1    0.0000
     30 H12        0.8063   -0.7375    2.8155 H         1 RES1    0.0000
     31 H13        0.3517    0.4770    1.8295 H         1 RES1    0.0000
     32 C14        8.5657    5.6155    4.7037 C.ar      1 RES1    0.0000
     33 H14        9.3997    6.0955    4.8266 H         1 RES1    0.0000
     34 C15        8.4011    4.6730    3.6750 C.ar      1 RES1    0.0000
     35 H15        9.1225    4.5395    3.0809 H         1 RES1    0.0000
@<TRIPOS>BOND
     1    1    2 1
     2    2    6 2
     3    3    1 2
     4    4    3 1
     5    5    7 1
     6    6   10 1
     7    7    8 1
     8    9    3 1
     9   10    5 2
    10   11    9 ar
    11   12   13 1
    12   14   11 ar
    13   15    9 ar
    14   16   11 ar
    15   17   16 1
    16   18   14 ar
    17   19   18 1
    18   20   15 ar
    19   21   20 1
    20   22   10 1
    21   23   22 1
    22   24   22 1
    23   25   22 1
    24   26   14 ar
    25   27   26 1
    26   28    6 1
    27   29   28 1
    28   30   28 1
    29   31   28 1
    30   32   18 ar
    31   33   32 1
    32   34   16 ar
    33   35   34 1
    34   12   15 1
    35   20   26 ar
    36   32   34 ar
@<TRIPOS>SUBSTRUCTURE
     1 RES1 1

@<TRIPOS>CRYSIN
  11.0000    5.0000   28.0000  90.0000  94.0000  90.0000 231 1

