# MOL2 file generated by ConQuest
# Please check atom types

@<TRIPOS>MOLECULE
XUDSAS
    96   105     1
SMALL
NO_CHARGES
****
Generated from CSD

@<TRIPOS>ATOM
      1 N1         1.6698   -0.5217   11.1698 N.pl3     1 RES1    0.0000
      2 N2         5.0095    5.8397    7.4196 N.pl3     1 RES1    0.0000
      3 N3         4.5682   14.7571   12.4111 N.pl3     1 RES1    0.0000
      4 N4         3.4359    4.2601   14.9666 N.ar      1 RES1    0.0000
      5 N5         3.8780    6.6205   13.6243 N.ar      1 RES1    0.0000
      6 N6         3.8027    9.0394   15.0149 N.ar      1 RES1    0.0000
      7 O1         1.7870   -1.5256   11.7785 O.2       1 RES1    0.0000
      8 O2         1.1713   -0.4112   10.0245 O.2       1 RES1    0.0000
      9 O3         5.6570    4.9328    6.9026 O.2       1 RES1    0.0000
     10 O4         4.5877    6.7805    6.8057 O.2       1 RES1    0.0000
     11 O5         4.2701   14.6548   11.2091 O.2       1 RES1    0.0000
     12 O6         5.0486   15.7635   12.9194 O.2       1 RES1    0.0000
     13 C1         2.1553    0.7486   11.8352 C.ar      1 RES1    0.0000
     14 C2         2.9179    0.6422   12.9478 C.ar      1 RES1    0.0000
     15 H1         3.1277   -0.1856   13.3187 H         1 RES1    0.0000
     16 C3         3.3708    1.8288   13.5041 C.ar      1 RES1    0.0000
     17 H2         3.9301    1.7941   14.2480 H         1 RES1    0.0000
     18 C4         3.0221    3.0413   13.0002 C.ar      1 RES1    0.0000
     19 C5         2.2306    3.0818   11.8919 C.ar      1 RES1    0.0000
     20 H3         1.9867    3.9058   11.5407 H         1 RES1    0.0000
     21 C6         1.7762    1.9199   11.2723 C.ar      1 RES1    0.0000
     22 H4         1.2408    1.9467   10.5109 H         1 RES1    0.0000
     23 C7         3.4598    4.2716   13.6263 C.ar      1 RES1    0.0000
     24 C8         3.8136    5.4718   12.9543 C.ar      1 RES1    0.0000
     25 C9         4.1290    5.5803   11.5319 C.ar      1 RES1    0.0000
     26 C10        4.7968    4.5307   10.8927 C.ar      1 RES1    0.0000
     27 H5         5.0486    3.7821   11.3814 H         1 RES1    0.0000
     28 C11        5.0855    4.5954    9.5445 C.ar      1 RES1    0.0000
     29 H6         5.5102    3.8893    9.1125 H         1 RES1    0.0000
     30 C12        4.7302    5.7267    8.8638 C.ar      1 RES1    0.0000
     31 C13        4.1384    6.7999    9.4812 C.ar      1 RES1    0.0000
     32 H7         3.9416    7.5724    8.9991 H         1 RES1    0.0000
     33 C14        3.8382    6.7207   10.8295 C.ar      1 RES1    0.0000
     34 H8         3.4388    7.4404   11.2614 H         1 RES1    0.0000
     35 C15        3.6218    5.4240   15.6342 C.ar      1 RES1    0.0000
     36 C16        3.7159    6.6172   14.9723 C.ar      1 RES1    0.0000
     37 C17        3.6913    7.8850   15.6704 C.ar      1 RES1    0.0000
     38 C18        3.7535   10.1724   15.6744 C.ar      1 RES1    0.0000
     39 C19        3.9981   11.3631   14.8785 C.ar      1 RES1    0.0000
     40 C20        3.5003   11.4155   13.5652 C.ar      1 RES1    0.0000
     41 H9         3.0257   10.6904   13.2314 H         1 RES1    0.0000
     42 C21        3.7014   12.5324   12.7493 C.ar      1 RES1    0.0000
     43 H10        3.3679   12.5670   11.8832 H         1 RES1    0.0000
     44 C22        4.4076   13.5742   13.2816 C.ar      1 RES1    0.0000
     45 C23        4.9176   13.5701   14.5404 C.ar      1 RES1    0.0000
     46 H11        5.3828   14.3034   14.8698 H         1 RES1    0.0000
     47 C24        4.7245   12.4318   15.3257 C.ar      1 RES1    0.0000
     48 H12        5.1000   12.3979   16.1744 H         1 RES1    0.0000
     49 N1B        5.5652   -0.5217   21.5542 N.pl3     1 RES1    0.0000
     50 N2B        2.2255    5.8397   25.3044 N.pl3     1 RES1    0.0000
     51 N3B        2.6668   14.7571   20.3129 N.pl3     1 RES1    0.0000
     52 N4B        3.7991    4.2601   17.7574 N.ar      1 RES1    0.0000
     53 N5B        3.3570    6.6205   19.0997 N.ar      1 RES1    0.0000
     54 N6B        3.4323    9.0394   17.7091 N.ar      1 RES1    0.0000
     55 O1B        5.4480   -1.5256   20.9455 O.2       1 RES1    0.0000
     56 O2B        6.0637   -0.4112   22.6995 O.2       1 RES1    0.0000
     57 O3B        1.5780    4.9328   25.8214 O.2       1 RES1    0.0000
     58 O4B        2.6473    6.7805   25.9183 O.2       1 RES1    0.0000
     59 O5B        2.9649   14.6548   21.5149 O.2       1 RES1    0.0000
     60 O6B        2.1864   15.7635   19.8046 O.2       1 RES1    0.0000
     61 C1B        5.0797    0.7486   20.8888 C.ar      1 RES1    0.0000
     62 C2B        4.3171    0.6422   19.7762 C.ar      1 RES1    0.0000
     63 H1B        4.1073   -0.1856   19.4053 H         1 RES1    0.0000
     64 C3B        3.8642    1.8288   19.2199 C.ar      1 RES1    0.0000
     65 H2B        3.3049    1.7941   18.4760 H         1 RES1    0.0000
     66 C4B        4.2129    3.0413   19.7238 C.ar      1 RES1    0.0000
     67 C5B        5.0044    3.0818   20.8321 C.ar      1 RES1    0.0000
     68 H3B        5.2483    3.9058   21.1833 H         1 RES1    0.0000
     69 C6B        5.4588    1.9199   21.4517 C.ar      1 RES1    0.0000
     70 H4B        5.9942    1.9467   22.2131 H         1 RES1    0.0000
     71 C7B        3.7752    4.2716   19.0977 C.ar      1 RES1    0.0000
     72 C8B        3.4214    5.4718   19.7697 C.ar      1 RES1    0.0000
     73 C9B        3.1060    5.5803   21.1921 C.ar      1 RES1    0.0000
     74 C10B       2.4382    4.5307   21.8313 C.ar      1 RES1    0.0000
     75 H5B        2.1864    3.7821   21.3426 H         1 RES1    0.0000
     76 C11B       2.1495    4.5954   23.1795 C.ar      1 RES1    0.0000
     77 H6B        1.7248    3.8893   23.6115 H         1 RES1    0.0000
     78 C12B       2.5048    5.7267   23.8602 C.ar      1 RES1    0.0000
     79 C13B       3.0966    6.7999   23.2428 C.ar      1 RES1    0.0000
     80 H7B        3.2934    7.5724   23.7249 H         1 RES1    0.0000
     81 C14B       3.3968    6.7207   21.8945 C.ar      1 RES1    0.0000
     82 H8B        3.7962    7.4404   21.4626 H         1 RES1    0.0000
     83 C15B       3.6132    5.4240   17.0898 C.ar      1 RES1    0.0000
     84 C16B       3.5191    6.6172   17.7517 C.ar      1 RES1    0.0000
     85 C17B       3.5437    7.8850   17.0536 C.ar      1 RES1    0.0000
     86 C18B       3.4815   10.1724   17.0496 C.ar      1 RES1    0.0000
     87 C19B       3.2369   11.3631   17.8455 C.ar      1 RES1    0.0000
     88 C20B       3.7347   11.4155   19.1588 C.ar      1 RES1    0.0000
     89 H9B        4.2093   10.6904   19.4926 H         1 RES1    0.0000
     90 C21B       3.5336   12.5324   19.9747 C.ar      1 RES1    0.0000
     91 H10B       3.8671   12.5670   20.8408 H         1 RES1    0.0000
     92 C22B       2.8274   13.5742   19.4424 C.ar      1 RES1    0.0000
     93 C23B       2.3174   13.5701   18.1836 C.ar      1 RES1    0.0000
     94 H11B       1.8522   14.3034   17.8542 H         1 RES1    0.0000
     95 C24B       2.5105   12.4318   17.3983 C.ar      1 RES1    0.0000
     96 H12B       2.1350   12.3979   16.5496 H         1 RES1    0.0000
@<TRIPOS>BOND
     1    1    7 2
     2    2    9 2
     3    3   11 2
     4    4   23 ar
     5    5   24 ar
     6    6   37 ar
     7    8    1 2
     8   10    2 2
     9   12    3 2
    10   13    1 1
    11   14   13 ar
    12   15   14 1
    13   16   14 ar
    14   17   16 1
    15   18   16 ar
    16   19   18 ar
    17   20   19 1
    18   21   13 ar
    19   22   21 1
    20   23   18 1
    21   24   23 ar
    22   25   24 1
    23   26   25 ar
    24   27   26 1
    25   28   26 ar
    26   29   28 1
    27   30    2 1
    28   31   30 ar
    29   32   31 1
    30   33   25 ar
    31   34   33 1
    32   35    4 ar
    33   36    5 ar
    34   37   36 ar
    35   38    6 ar
    36   39   38 1
    37   40   39 ar
    38   41   40 1
    39   42   40 ar
    40   43   42 1
    41   44    3 1
    42   45   44 ar
    43   46   45 1
    44   47   39 ar
    45   48   47 1
    46   49   55 2
    47   50   57 2
    48   51   59 2
    49   52   71 ar
    50   53   72 ar
    51   54   85 ar
    52   56   49 2
    53   58   50 2
    54   60   51 2
    55   61   49 1
    56   62   61 ar
    57   63   62 1
    58   64   62 ar
    59   65   64 1
    60   66   64 ar
    61   67   66 ar
    62   68   67 1
    63   69   61 ar
    64   70   69 1
    65   71   66 1
    66   72   71 ar
    67   73   72 1
    68   74   73 ar
    69   75   74 1
    70   76   74 ar
    71   77   76 1
    72   78   50 1
    73   79   78 ar
    74   80   79 1
    75   81   73 ar
    76   82   81 1
    77   83   35 ar
    78   84   53 ar
    79   85   37 ar
    80   86   38 ar
    81   87   86 1
    82   88   87 ar
    83   89   88 1
    84   90   88 ar
    85   91   90 1
    86   92   51 1
    87   93   92 ar
    88   94   93 1
    89   95   87 ar
    90   96   95 1
    91   19   21 ar
    92   28   30 ar
    93   31   33 ar
    94   35   36 ar
    95   42   44 ar
    96   45   47 ar
    97   52   83 ar
    98   54   86 ar
    99   67   69 ar
   100   76   78 ar
   101   79   81 ar
   102   83   84 ar
   103   84   85 ar
   104   90   92 ar
   105   93   95 ar
@<TRIPOS>SUBSTRUCTURE
     1 RES1 1

@<TRIPOS>CRYSIN
   7.2350   41.2440   21.8160  90.0000  90.0000  90.0000  60 1

