# MOL2 file generated by ConQuest
# Please check atom types

@<TRIPOS>MOLECULE
XUDSIA
    34    34     2
SMALL
NO_CHARGES
****
Generated from CSD

@<TRIPOS>ATOM
      1 O1         1.3338   -1.7166    2.4878 O.2       1 RES1    0.0000
      2 O2         0.5207   -1.0733    4.4041 O.2       1 RES1    0.0000
      3 O3         4.4981    0.7022    5.3637 O.2       1 RES1    0.0000
      4 O4         6.0699    1.8372    4.3833 O.2       1 RES1    0.0000
      5 O5         6.3330    1.8773    0.2373 O.2       1 RES1    0.0000
      6 O6         7.4149    1.2661    2.0267 O.2       1 RES1    0.0000
      7 N1         2.5838   -0.5255    3.8862 N.3       1 RES1    0.0000
      8 N2         1.3973   -1.1354    3.5655 N.pl3     1 RES1    0.0000
      9 N3         6.4096    1.3283    1.3266 N.pl3     1 RES1    0.0000
     10 N4         5.1175    1.0620    4.3613 N.pl3     1 RES1    0.0000
     11 N5         3.4413   -0.4610    1.6229 N.pl3     1 RES1    0.0000
     12 N6         4.4622    0.0750    0.9169 N.2       1 RES1    0.0000
     13 C1         3.5175   -0.1987    2.9327 C.2       1 RES1    0.0000
     14 C2         4.6917    0.5318    3.1170 C.2       1 RES1    0.0000
     15 C3         5.2072    0.6700    1.8132 C.2       1 RES1    0.0000
     16 H1         2.5566   -0.1105    4.5849 H         1 RES1    0.0000
     17 H2         2.8354   -0.9005    1.2347 H         1 RES1    0.0000
     18 O7        -2.0905    6.6344    4.7911 O.2       2 RES2    0.0000
     19 O8        -1.8453    6.5481    2.6267 O.2       2 RES2    0.0000
     20 O9         1.4356    3.9047    5.2945 O.2       2 RES2    0.0000
     21 O10        2.7008    2.6036    4.0937 O.2       2 RES2    0.0000
     22 O11        3.0607    2.8956    0.1221 O.2       2 RES2    0.0000
     23 O12        4.1487    3.4851    1.9184 O.2       2 RES2    0.0000
     24 N7        -0.4263    5.4776    3.9666 N.3       2 RES2    0.0000
     25 N8        -1.5251    6.2725    3.7777 N.pl3     2 RES2    0.0000
     26 N9         1.9244    3.5401    4.2231 N.pl3     2 RES2    0.0000
     27 N10        3.1437    3.4281    1.2188 N.pl3     2 RES2    0.0000
     28 N11        0.2268    5.2939    1.6359 N.pl3     2 RES2    0.0000
     29 N12        1.1846    4.7159    0.8697 N.2       2 RES2    0.0000
     30 C4         1.9499    4.0874    1.7255 C.2       2 RES2    0.0000
     31 C5         1.5131    4.2380    3.0545 C.2       2 RES2    0.0000
     32 C6         0.3777    5.0407    2.9455 C.2       2 RES2    0.0000
     33 H3        -0.3618    5.7254    1.2939 H         2 RES2    0.0000
     34 H4        -0.2445    5.3549    4.7476 H         2 RES2    0.0000
@<TRIPOS>BOND
     1    1    8 2
     2    2    8 2
     3    3   10 2
     4    4   10 2
     5    5    9 2
     6    6    9 2
     7    7    8 1
     8    9   15 1
     9   10   14 1
    10   11   12 1
    11   12   15 2
    12   13    7 1
    13   14   13 2
    14   15   14 1
    15   16    7 1
    16   17   11 1
    17   18   25 2
    18   19   25 2
    19   20   26 2
    20   21   26 2
    21   22   27 2
    22   23   27 2
    23   24   25 1
    24   26   31 1
    25   27   30 1
    26   28   29 1
    27   29   30 2
    28   30   31 1
    29   31   32 2
    30   32   24 1
    31   33   28 1
    32   34   24 1
    33   11   13 1
    34   28   32 1
@<TRIPOS>SUBSTRUCTURE
     1 RES1 1
     2 RES2 18

@<TRIPOS>CRYSIN
   6.4598    9.7023   11.5825 100.7250  90.3140  91.1090   2 1

