# MOL2 file generated by ConQuest
# Please check atom types

@<TRIPOS>MOLECULE
XUFFAH
    59    62     1
SMALL
NO_CHARGES
****
Generated from CSD

@<TRIPOS>ATOM
      1 C1         1.7663    3.9587   12.8032 C.3       1 RES1    0.0000
      2 H1         1.9583    4.7587   13.3519 H         1 RES1    0.0000
      3 H2         2.0113    4.1660   11.8671 H         1 RES1    0.0000
      4 C2         2.6100    2.8003   13.2954 C.3       1 RES1    0.0000
      5 H3         3.5593    3.0772   13.3471 H         1 RES1    0.0000
      6 H4         2.5419    2.0440   12.6612 H         1 RES1    0.0000
      7 C3         2.1289    2.3619   14.6667 C.3       1 RES1    0.0000
      8 H5         2.2899    3.0957   15.3109 H         1 RES1    0.0000
      9 H6         2.6641    1.5825   14.9596 H         1 RES1    0.0000
     10 C4         0.6406    1.9841   14.7073 C.3       1 RES1    0.0000
     11 H7         0.4139    1.9388   15.6791 H         1 RES1    0.0000
     12 C5        -0.2128    3.1551   14.1543 C.3       1 RES1    0.0000
     13 H8        -1.1194    2.7815   13.9584 H         1 RES1    0.0000
     14 C6        -0.5468    3.9834   11.8959 C.2       1 RES1    0.0000
     15 C7         0.0158    4.4608   10.5867 C.ar      1 RES1    0.0000
     16 C8        -0.0072    5.8147   10.2837 C.ar      1 RES1    0.0000
     17 H9        -0.3341    6.4389   10.9213 H         1 RES1    0.0000
     18 C9         0.4466    6.2578    9.0506 C.ar      1 RES1    0.0000
     19 H10        0.4381    7.1825    8.8347 H         1 RES1    0.0000
     20 C10        0.9106    5.3241    8.1455 C.ar      1 RES1    0.0000
     21 C11        0.9325    3.9702    8.4116 C.ar      1 RES1    0.0000
     22 H11        1.2482    3.3506    7.7638 H         1 RES1    0.0000
     23 C12        0.4814    3.5377    9.6477 C.ar      1 RES1    0.0000
     24 H12        0.4881    2.6107    9.8575 H         1 RES1    0.0000
     25 C13        0.2319    0.5881   14.1341 C.3       1 RES1    0.0000
     26 C14        1.2454   -0.4761   14.5771 C.3       1 RES1    0.0000
     27 H13        0.9200   -1.3647   14.3218 H         1 RES1    0.0000
     28 H14        1.3571   -0.4355   15.5492 H         1 RES1    0.0000
     29 H15        2.1076   -0.3069   14.1413 H         1 RES1    0.0000
     30 C15        0.0956    0.5407   12.6064 C.3       1 RES1    0.0000
     31 H16       -0.1604   -0.3638   12.3291 H         1 RES1    0.0000
     32 H17        0.9531    0.7783   12.1944 H         1 RES1    0.0000
     33 H18       -0.5918    1.1779   12.3195 H         1 RES1    0.0000
     34 C16       -1.1305    0.1998   14.7382 C.3       1 RES1    0.0000
     35 H19       -1.8040    0.8624   14.4782 H         1 RES1    0.0000
     36 H20       -1.0593    0.1720   15.7152 H         1 RES1    0.0000
     37 H21       -1.3960   -0.6830   14.4060 H         1 RES1    0.0000
     38 C17       -0.4126    4.2750   15.1766 C.ar      1 RES1    0.0000
     39 C18       -0.9447    3.9195   16.4481 C.ar      1 RES1    0.0000
     40 H22       -1.1463    3.0091   16.6322 H         1 RES1    0.0000
     41 C19       -1.1722    4.8614   17.4093 C.ar      1 RES1    0.0000
     42 H23       -1.5191    4.5941   18.2518 H         1 RES1    0.0000
     43 C20       -0.8994    6.2256   17.1710 C.ar      1 RES1    0.0000
     44 C21       -1.1228    7.2304   18.1474 C.ar      1 RES1    0.0000
     45 H24       -1.4444    6.9846   19.0075 H         1 RES1    0.0000
     46 C22       -0.8830    8.5411   17.8704 C.ar      1 RES1    0.0000
     47 H25       -1.0233    9.1993   18.5406 H         1 RES1    0.0000
     48 C23       -0.4271    8.9260   16.5925 C.ar      1 RES1    0.0000
     49 H26       -0.2710    9.8440   16.4011 H         1 RES1    0.0000
     50 C24       -0.2089    7.9822   15.6248 C.ar      1 RES1    0.0000
     51 H27        0.0862    8.2528   14.7622 H         1 RES1    0.0000
     52 C25       -0.4158    6.6106   15.8914 C.ar      1 RES1    0.0000
     53 C26       -0.1820    5.6001   14.9189 C.ar      1 RES1    0.0000
     54 H28        0.1446    5.8524   14.0643 H         1 RES1    0.0000
     55 N1         0.3261    3.6559   12.8725 N.am      1 RES1    0.0000
     56 N2         1.3955    5.7939    6.8399 N.pl3     1 RES1    0.0000
     57 O1        -1.7673    3.8885   12.0182 O.2       1 RES1    0.0000
     58 O2         1.7227    4.9509    6.0113 O.2       1 RES1    0.0000
     59 O3         1.4550    7.0014    6.6418 O.2       1 RES1    0.0000
@<TRIPOS>BOND
     1    1    2 1
     2    3    1 1
     3    4    1 1
     4    5    4 1
     5    6    4 1
     6    7    4 1
     7    8    7 1
     8    9    7 1
     9   10    7 1
    10   11   10 1
    11   12   10 1
    12   13   12 1
    13   14   15 1
    14   15   16 ar
    15   16   17 1
    16   18   16 ar
    17   19   18 1
    18   20   18 ar
    19   21   20 ar
    20   22   21 1
    21   23   15 ar
    22   24   23 1
    23   25   10 1
    24   26   25 1
    25   27   26 1
    26   28   26 1
    27   29   26 1
    28   30   25 1
    29   31   30 1
    30   32   30 1
    31   33   30 1
    32   34   25 1
    33   35   34 1
    34   36   34 1
    35   37   34 1
    36   38   12 1
    37   39   38 ar
    38   40   39 1
    39   41   39 ar
    40   42   41 1
    41   43   41 ar
    42   44   43 ar
    43   45   44 1
    44   46   44 ar
    45   47   46 1
    46   48   46 ar
    47   49   48 1
    48   50   48 ar
    49   51   50 1
    50   52   43 ar
    51   53   38 ar
    52   54   53 1
    53   55    1 1
    54   56   20 1
    55   57   14 2
    56   58   56 2
    57   59   56 2
    58   12   55 1
    59   14   55 1
    60   21   23 ar
    61   50   52 ar
    62   52   53 ar
@<TRIPOS>SUBSTRUCTURE
     1 RES1 1

@<TRIPOS>CRYSIN
   7.2482   12.3730   24.2700  90.0000  97.4300  90.0000  14 1

