# MOL2 file generated by ConQuest
# Please check atom types

@<TRIPOS>MOLECULE
XUFSAT
    32    33     1
SMALL
NO_CHARGES
****
Generated from CSD

@<TRIPOS>ATOM
      1 O1         5.7821    5.5267   14.1389 O.3       1 RES1    0.0000
      2 O2         6.6891    4.0461   15.5274 O.2       1 RES1    0.0000
      3 O3         4.8033    6.0006    9.2256 O.2       1 RES1    0.0000
      4 O4         6.9360    6.2179    9.4947 O.2       1 RES1    0.0000
      5 O5         3.9416    3.1215   15.9582 O.3       1 RES1    0.0000
      6 H1         3.8185    3.7071   16.5483 H         1 RES1    0.0000
      7 O6         2.9815    5.6362   15.3377 O.3       1 RES1    0.0000
      8 H2         2.2358    5.3241   15.5652 H         1 RES1    0.0000
      9 N1         5.7905    6.2225    9.9157 N.pl3     1 RES1    0.0000
     10 C1         5.7384    4.4089   14.8873 C.2       1 RES1    0.0000
     11 C2         4.3697    3.7367   14.7690 C.3       1 RES1    0.0000
     12 H3         4.4243    3.0375   14.0567 H         1 RES1    0.0000
     13 C3         3.4923    4.8900   14.2501 C.3       1 RES1    0.0000
     14 H4         2.7622    4.5592   13.6527 H         1 RES1    0.0000
     15 C4         4.4837    5.7803   13.4965 C.3       1 RES1    0.0000
     16 H5         4.2333    6.7375   13.6412 H         1 RES1    0.0000
     17 C5         4.5953    5.5170   11.9800 C.3       1 RES1    0.0000
     18 H6         3.7021    5.7140   11.5767 H         1 RES1    0.0000
     19 C6         4.9300    4.0719   11.6581 C.ar      1 RES1    0.0000
     20 C7         6.1998    3.5391   11.8949 C.ar      1 RES1    0.0000
     21 H7         6.8936    4.1001   12.2212 H         1 RES1    0.0000
     22 C8         6.4557    2.1912   11.6562 C.ar      1 RES1    0.0000
     23 H8         7.3144    1.8305   11.8422 H         1 RES1    0.0000
     24 C9         5.4570    1.3775   11.1471 C.ar      1 RES1    0.0000
     25 H9         5.6316    0.4591   10.9783 H         1 RES1    0.0000
     26 C10        4.2036    1.9037   10.8827 C.ar      1 RES1    0.0000
     27 H10        3.5208    1.3473   10.5262 H         1 RES1    0.0000
     28 C11        3.9434    3.2424   11.1392 C.ar      1 RES1    0.0000
     29 H11        3.0805    3.5958   10.9572 H         1 RES1    0.0000
     30 C12        5.5977    6.5051   11.3783 C.3       1 RES1    0.0000
     31 H12        5.2648    7.4302   11.4978 H         1 RES1    0.0000
     32 H13        6.4654    6.4268   11.8499 H         1 RES1    0.0000
@<TRIPOS>BOND
     1    1   10 1
     2    2   10 2
     3    3    9 2
     4    4    9 2
     5    5    6 1
     6    7    8 1
     7    9   30 1
     8   10   11 1
     9   11    5 1
    10   12   11 1
    11   13    7 1
    12   14   13 1
    13   15    1 1
    14   16   15 1
    15   17   15 1
    16   18   17 1
    17   19   17 1
    18   20   19 ar
    19   21   20 1
    20   22   20 ar
    21   23   22 1
    22   24   22 ar
    23   25   24 1
    24   26   24 ar
    25   27   26 1
    26   28   19 ar
    27   29   28 1
    28   30   17 1
    29   31   30 1
    30   32   30 1
    31   11   13 1
    32   13   15 1
    33   26   28 ar
@<TRIPOS>SUBSTRUCTURE
     1 RES1 1

@<TRIPOS>CRYSIN
   6.0640   10.0246   19.2400  90.0000  90.0000  90.0000  19 1

