# MOL2 file generated by ConQuest
# Please check atom types

@<TRIPOS>MOLECULE
XUGKUH
    67    60     3
SMALL
NO_CHARGES
****
Generated from CSD

@<TRIPOS>ATOM
      1 O1        -0.8711    6.0145    9.2370 O.3       1 RES1    0.0000
      2 H1        -1.5947    5.9067    9.7123 H         1 RES1    0.0000
      3 N1         2.2169   10.3520    8.6921 N.1       1 RES1    0.0000
      4 C1         0.1987    9.0983    7.6034 C.3       1 RES1    0.0000
      5 N2        -0.8681    7.3616    8.8150 N.2       1 RES1    0.0000
      6 C2         0.1533    7.6715    8.1418 C.2       1 RES1    0.0000
      7 C3         1.2959    6.7675    7.8014 C.3       1 RES1    0.0000
      8 H2         1.1090    5.8724    8.1255 H         1 RES1    0.0000
      9 H3         2.1011    7.0837    8.2408 H         1 RES1    0.0000
     10 C4         1.5243    6.7254    6.2787 C.3       1 RES1    0.0000
     11 H4         0.7171    6.3477    5.8709 H         1 RES1    0.0000
     12 C5         1.6831    8.1446    5.7458 C.3       1 RES1    0.0000
     13 H5         2.4805    8.5433    6.1286 H         1 RES1    0.0000
     14 H6         1.7976    8.1142    4.7833 H         1 RES1    0.0000
     15 C6         0.4823    9.0055    6.0808 C.3       1 RES1    0.0000
     16 H7        -0.2995    8.6405    5.6370 H         1 RES1    0.0000
     17 H8         0.6291    9.8992    5.7328 H         1 RES1    0.0000
     18 C7         2.6819    5.7931    5.9481 C.2       1 RES1    0.0000
     19 C8         2.4260    4.5679    5.4717 C.2       1 RES1    0.0000
     20 H9         3.1278    3.9903    5.2727 H         1 RES1    0.0000
     21 H10        1.5472    4.2945    5.3390 H         1 RES1    0.0000
     22 C9         4.0484    6.2642    6.1721 C.3       1 RES1    0.0000
     23 H11        4.6697    5.6151    5.8350 H         1 RES1    0.0000
     24 H12        4.1933    6.3883    7.1129 H         1 RES1    0.0000
     25 H13        4.1778    7.0983    5.7154 H         1 RES1    0.0000
     26 C10       -1.0637    9.9206    7.8699 C.3       1 RES1    0.0000
     27 H14       -0.9523   10.8034    7.5099 H         1 RES1    0.0000
     28 H15       -1.2144    9.9767    8.8161 H         1 RES1    0.0000
     29 H16       -1.8161    9.4965    7.4501 H         1 RES1    0.0000
     30 C11        1.3440    9.7841    8.2310 C.1       1 RES1    0.0000
     31 O2         3.9176    5.0692   -0.4361 O.3       2 RES2    0.0000
     32 H17        4.3211    5.0563   -1.1746 H         2 RES2    0.0000
     33 N3         3.7236    1.5170    3.5206 N.1       2 RES2    0.0000
     34 C12        2.8526    1.9490    1.1017 C.3       2 RES2    0.0000
     35 N4         3.8464    3.6950   -0.1577 N.2       2 RES2    0.0000
     36 C13        3.0296    3.4231    0.7776 C.2       2 RES2    0.0000
     37 C14        2.1978    4.3949    1.5531 C.3       2 RES2    0.0000
     38 H18        2.3243    5.2845    1.1877 H         2 RES2    0.0000
     39 H19        2.5002    4.4062    2.4743 H         2 RES2    0.0000
     40 C15        0.7114    4.0461    1.5194 C.3       2 RES2    0.0000
     41 H20        0.4244    4.1279    0.5851 H         2 RES2    0.0000
     42 C16        0.5180    2.5871    1.9087 C.3       2 RES2    0.0000
     43 H21        0.7696    2.4693    2.8386 H         2 RES2    0.0000
     44 H22       -0.4197    2.3543    1.8217 H         2 RES2    0.0000
     45 C17        1.3391    1.6633    1.0528 C.3       2 RES2    0.0000
     46 H23        1.0373    1.7379    0.1338 H         2 RES2    0.0000
     47 H24        1.1841    0.7496    1.3399 H         2 RES2    0.0000
     48 C18       -0.1053    5.0472    2.3133 C.2       2 RES2    0.0000
     49 C19        0.0513    6.3534    2.0545 C.2       2 RES2    0.0000
     50 H25       -0.4794    6.9801    2.4906 H         2 RES2    0.0000
     51 H26        0.6907    6.6320    1.4400 H         2 RES2    0.0000
     52 C20       -1.0408    4.4564    3.2302 C.3       2 RES2    0.0000
     53 H27       -0.8773    3.5122    3.2900 H         2 RES2    0.0000
     54 H28       -1.9357    4.6070    2.9148 H         2 RES2    0.0000
     55 H29       -0.9350    4.8548    4.0970 H         2 RES2    0.0000
     56 C21        3.6175    1.0213    0.1501 C.3       2 RES2    0.0000
     57 H30        3.4280    0.1065    0.3730 H         2 RES2    0.0000
     58 H31        4.5600    1.1821    0.2338 H         2 RES2    0.0000
     59 H32        3.3425    1.1932   -0.7537 H         2 RES2    0.0000
     60 C22        3.3475    1.7189    2.4634 C.1       2 RES2    0.0000
     61 C23       -1.4354    5.1160    2.5015 Du        3 SUP3    0.0000
     62 H33       -1.9964    4.4878    2.1197 Du        3 SUP3    0.0000
     63 H34       -1.7921    5.8025    3.0279 Du        3 SUP3    0.0000
     64 C24        0.5345    6.2602    3.0018 Du        3 SUP3    0.0000
     65 H35        1.4728    6.2743    2.8158 Du        3 SUP3    0.0000
     66 H36        0.3929    6.1982    3.9502 Du        3 SUP3    0.0000
     67 H37        0.1267    7.0639    2.6701 Du        3 SUP3    0.0000
@<TRIPOS>BOND
     1    1    2 1
     2    3   30 3
     3    4    6 1
     4    5    1 1
     5    6    5 2
     6    7    6 1
     7    8    7 1
     8    9    7 1
     9   10    7 1
    10   11   10 1
    11   12   10 1
    12   13   12 1
    13   14   12 1
    14   15    4 1
    15   16   15 1
    16   17   15 1
    17   18   10 1
    18   19   18 2
    19   20   19 1
    20   21   19 1
    21   22   18 1
    22   23   22 1
    23   24   22 1
    24   25   22 1
    25   26    4 1
    26   27   26 1
    27   28   26 1
    28   29   26 1
    29   30    4 1
    30   31   32 1
    31   33   60 3
    32   34   36 1
    33   35   31 1
    34   36   35 2
    35   37   36 1
    36   38   37 1
    37   39   37 1
    38   40   37 1
    39   41   40 1
    40   42   40 1
    41   43   42 1
    42   44   42 1
    43   45   34 1
    44   46   45 1
    45   47   45 1
    46   48   40 1
    47   49   48 2
    48   50   49 1
    49   51   49 1
    50   52   48 1
    51   53   52 1
    52   54   52 1
    53   55   52 1
    54   56   34 1
    55   57   56 1
    56   58   56 1
    57   59   56 1
    58   60   34 1
    59   12   15 1
    60   42   45 1
@<TRIPOS>SUBSTRUCTURE
     1 RES1 1
     2 RES2 31
     3 SUP3 61

@<TRIPOS>CRYSIN
   7.0251    7.6226   11.2867  74.6150  89.8940  82.6060   1 1

