# MOL2 file generated by ConQuest
# Please check atom types

@<TRIPOS>MOLECULE
XUGKOB
    60    62     2
SMALL
NO_CHARGES
****
Generated from CSD

@<TRIPOS>ATOM
      1 O1         8.4091    3.2718    2.0981 O.3       1 RES1    0.0000
      2 H1         7.7140    2.9779    1.8258 H         1 RES1    0.0000
      3 C1        10.8748    4.6975    6.0268 C.3       1 RES1    0.0000
      4 H2        10.8534    4.1000    6.8034 H         1 RES1    0.0000
      5 N1         7.4426    3.2389    6.7024 N.1       1 RES1    0.0000
      6 N2         7.9966    3.8994    3.2838 N.2       1 RES1    0.0000
      7 C2         9.7653    5.6971    5.9527 C.3       1 RES1    0.0000
      8 H3        10.0724    6.4812    5.4692 H         1 RES1    0.0000
      9 H4         9.5248    5.9753    6.8503 H         1 RES1    0.0000
     10 C3         8.5133    5.1188    5.2441 C.3       1 RES1    0.0000
     11 C4         8.9296    4.4665    3.9223 C.2       1 RES1    0.0000
     12 C5        10.3822    4.5140    3.5433 C.3       1 RES1    0.0000
     13 H5        10.6291    5.4200    3.3038 H         1 RES1    0.0000
     14 H6        10.5385    3.9437    2.7744 H         1 RES1    0.0000
     15 C6        11.2279    4.0437    4.7092 C.3       1 RES1    0.0000
     16 H7        11.4026    3.0802    4.7461 H         1 RES1    0.0000
     17 C7        12.2317    4.9152    5.4120 C.3       1 RES1    0.0000
     18 C8        12.6391    6.2489    4.8664 C.3       1 RES1    0.0000
     19 H8        13.2827    6.6525    5.4539 H         1 RES1    0.0000
     20 H9        11.8679    6.8169    4.7991 H         1 RES1    0.0000
     21 H10       13.0280    6.1340    3.9964 H         1 RES1    0.0000
     22 C9        13.3775    4.1679    6.0608 C.3       1 RES1    0.0000
     23 H11       13.9681    4.7933    6.4862 H         1 RES1    0.0000
     24 H12       13.8590    3.6769    5.3917 H         1 RES1    0.0000
     25 H13       13.0307    3.5585    6.7177 H         1 RES1    0.0000
     26 C10        7.4748    6.2294    5.0184 C.3       1 RES1    0.0000
     27 H14        6.6982    5.8603    4.5910 H         1 RES1    0.0000
     28 H15        7.8525    6.9124    4.4605 H         1 RES1    0.0000
     29 H16        7.2240    6.6100    5.8640 H         1 RES1    0.0000
     30 C11        7.9116    4.0667    6.0848 C.1       1 RES1    0.0000
     31 O2         2.9247    9.1828    7.3619 O.3       2 RES2    0.0000
     32 H17        2.1449    9.4510    7.0176 H         2 RES2    0.0000
     33 C12        5.3951    6.0357   10.3420 C.3       2 RES2    0.0000
     34 H18        5.3652    5.0566   10.3673 H         2 RES2    0.0000
     35 N3         2.2347    4.6669    9.3983 N.1       2 RES2    0.0000
     36 N4         2.4897    8.4153    8.4680 N.2       2 RES2    0.0000
     37 C13        4.3263    6.7428   11.1386 C.3       2 RES2    0.0000
     38 H19        4.6712    7.5919   11.4577 H         2 RES2    0.0000
     39 H20        4.0923    6.2053   11.9116 H         2 RES2    0.0000
     40 C14        3.0573    6.9924   10.2825 C.3       2 RES2    0.0000
     41 C15        3.4427    7.8210    9.0465 C.2       2 RES2    0.0000
     42 C16        4.8863    7.8828    8.6223 C.3       2 RES2    0.0000
     43 H21        4.9254    8.0081    7.6612 H         2 RES2    0.0000
     44 H22        5.3027    8.6531    9.0382 H         2 RES2    0.0000
     45 C17        5.6721    6.6498    8.9837 C.3       2 RES2    0.0000
     46 H23        5.8030    6.0086    8.2538 H         2 RES2    0.0000
     47 C18        6.7418    6.6386   10.0503 C.3       2 RES2    0.0000
     48 C19        7.1955    7.9097   10.7131 C.3       2 RES2    0.0000
     49 H24        7.8762    7.7080   11.3587 H         2 RES2    0.0000
     50 H25        6.4495    8.3254   11.1527 H         2 RES2    0.0000
     51 H26        7.5498    8.5071   10.0501 H         2 RES2    0.0000
     52 C20        7.8855    5.6660    9.8216 C.3       2 RES2    0.0000
     53 H27        8.5101    5.7304   10.5478 H         2 RES2    0.0000
     54 H28        8.3291    5.8810    8.9984 H         2 RES2    0.0000
     55 H29        7.5400    4.7715    9.7757 H         2 RES2    0.0000
     56 C21        1.9444    7.6505   11.1160 C.3       2 RES2    0.0000
     57 H30        1.1718    7.7908   10.5631 H         2 RES2    0.0000
     58 H31        2.2538    8.4933   11.4536 H         2 RES2    0.0000
     59 H32        1.7128    7.0768   11.8504 H         2 RES2    0.0000
     60 C22        2.5893    5.6768    9.7828 C.1       2 RES2    0.0000
@<TRIPOS>BOND
     1    1    2 1
     2    3    4 1
     3    5   30 3
     4    6    1 1
     5    7    3 1
     6    8    7 1
     7    9    7 1
     8   10    7 1
     9   11    6 2
    10   12   11 1
    11   13   12 1
    12   14   12 1
    13   15    3 1
    14   16   15 1
    15   17    3 1
    16   18   17 1
    17   19   18 1
    18   20   18 1
    19   21   18 1
    20   22   17 1
    21   23   22 1
    22   24   22 1
    23   25   22 1
    24   26   10 1
    25   27   26 1
    26   28   26 1
    27   29   26 1
    28   30   10 1
    29   31   32 1
    30   33   34 1
    31   35   60 3
    32   36   31 1
    33   37   33 1
    34   38   37 1
    35   39   37 1
    36   40   37 1
    37   41   36 2
    38   42   41 1
    39   43   42 1
    40   44   42 1
    41   45   33 1
    42   46   45 1
    43   47   33 1
    44   48   47 1
    45   49   48 1
    46   50   48 1
    47   51   48 1
    48   52   47 1
    49   53   52 1
    50   54   52 1
    51   55   52 1
    52   56   40 1
    53   57   56 1
    54   58   56 1
    55   59   56 1
    56   60   40 1
    57   10   11 1
    58   12   15 1
    59   15   17 1
    60   40   41 1
    61   42   45 1
    62   45   47 1
@<TRIPOS>SUBSTRUCTURE
     1 RES1 1
     2 RES2 31

@<TRIPOS>CRYSIN
   9.5005   11.4976   10.2862  90.0000  97.4230  90.0000   4 1

