# MOL2 file generated by ConQuest
# Please check atom types

@<TRIPOS>MOLECULE
XUGLAO
    30    31     1
SMALL
NO_CHARGES
****
Generated from CSD

@<TRIPOS>ATOM
      1 O1         6.9483    8.8942    1.7883 O.3       1 RES1    0.0000
      2 H1         7.1808    8.7086    2.5292 H         1 RES1    0.0000
      3 N1         7.5136   10.1690    1.5970 N.2       1 RES1    0.0000
      4 C1         7.5911   12.1398    0.2857 C.3       1 RES1    0.0000
      5 C2         7.0495   10.7191    0.5590 C.2       1 RES1    0.0000
      6 C3         7.1284   12.9977    1.3986 C.1       1 RES1    0.0000
      7 C4         6.9225   11.6335   -2.1674 C.3       1 RES1    0.0000
      8 C5         6.9397   12.6778   -1.0017 C.3       1 RES1    0.0000
      9 H2         7.2288   13.5766   -1.2619 H         1 RES1    0.0000
     10 N2         6.7819   13.6759    2.2457 N.1       1 RES1    0.0000
     11 C6         9.1284   12.2139    0.2509 C.3       1 RES1    0.0000
     12 H3         9.4849   11.8488    1.0639 H         1 RES1    0.0000
     13 H4         9.4032   13.1297    0.1646 H         1 RES1    0.0000
     14 H5         9.4570   11.7094   -0.4965 H         1 RES1    0.0000
     15 C7         5.9857   10.1480   -0.3447 C.3       1 RES1    0.0000
     16 H6         5.1872    9.9677    0.1753 H         1 RES1    0.0000
     17 H7         6.2977    9.3076   -0.7146 H         1 RES1    0.0000
     18 C8         5.6406   11.0979   -1.4785 C.3       1 RES1    0.0000
     19 H8         4.9419   10.7809   -2.0876 H         1 RES1    0.0000
     20 C9         8.0617   10.6669   -2.4018 C.3       1 RES1    0.0000
     21 H9         7.8486   10.0944   -3.1435 H         1 RES1    0.0000
     22 H10        8.1966   10.1335   -1.6152 H         1 RES1    0.0000
     23 H11        8.8630   11.1576   -2.5961 H         1 RES1    0.0000
     24 C10        5.4154   12.4964   -0.9032 C.3       1 RES1    0.0000
     25 H12        5.0710   12.5030    0.0040 H         1 RES1    0.0000
     26 H13        4.9053   13.0871   -1.4801 H         1 RES1    0.0000
     27 C11        6.6112   12.3337   -3.4973 C.3       1 RES1    0.0000
     28 H14        6.5811   11.6829   -4.2020 H         1 RES1    0.0000
     29 H15        7.2956   12.9799   -3.6868 H         1 RES1    0.0000
     30 H16        5.7618   12.7772   -3.4338 H         1 RES1    0.0000
@<TRIPOS>BOND
     1    1    2 1
     2    3    1 1
     3    4    5 1
     4    5    3 2
     5    6    4 1
     6    7    8 1
     7    8    4 1
     8    9    8 1
     9   10    6 3
    10   11    4 1
    11   12   11 1
    12   13   11 1
    13   14   11 1
    14   15    5 1
    15   16   15 1
    16   17   15 1
    17   18    7 1
    18   19   18 1
    19   20    7 1
    20   21   20 1
    21   22   20 1
    22   23   20 1
    23   24    8 1
    24   25   24 1
    25   26   24 1
    26   27    7 1
    27   28   27 1
    28   29   27 1
    29   30   27 1
    30   15   18 1
    31   18   24 1
@<TRIPOS>SUBSTRUCTURE
     1 RES1 1

@<TRIPOS>CRYSIN
   7.1736   11.5193   13.3821  90.0000  90.0000  90.0000  19 1

