# MOL2 file generated by ConQuest
# Please check atom types

@<TRIPOS>MOLECULE
XUGNIW
    30    31     1
SMALL
NO_CHARGES
****
Generated from CSD

@<TRIPOS>ATOM
      1 O1        -1.9584   -1.3294    2.1681 O.3       1 RES1    0.0000
      2 O2         5.7082    2.7848   10.9550 O.2       1 RES1    0.0000
      3 O3         4.2217    2.2159   12.3748 O.2       1 RES1    0.0000
      4 N1         4.6250    2.2990   11.2301 N.pl3     1 RES1    0.0000
      5 N2         1.2305    0.4901    7.1403 N.2       1 RES1    0.0000
      6 N3         1.6214    0.5727    5.9576 N.2       1 RES1    0.0000
      7 C1         3.7738    1.8203   10.1444 C.ar      1 RES1    0.0000
      8 C2         4.2182    1.9470    8.8434 C.ar      1 RES1    0.0000
      9 H1         5.0518    2.3166    8.6605 H         1 RES1    0.0000
     10 C3         3.4011    1.5142    7.8214 C.ar      1 RES1    0.0000
     11 H2         3.6797    1.5911    6.9376 H         1 RES1    0.0000
     12 C4         2.1563    0.9609    8.1146 C.ar      1 RES1    0.0000
     13 C5         1.7413    0.8338    9.4293 C.ar      1 RES1    0.0000
     14 H3         0.9140    0.4529    9.6181 H         1 RES1    0.0000
     15 C6         2.5496    1.2685   10.4625 C.ar      1 RES1    0.0000
     16 H4         2.2756    1.1922   11.3476 H         1 RES1    0.0000
     17 C7         0.6821    0.1003    5.0071 C.ar      1 RES1    0.0000
     18 C8         1.0582    0.1265    3.6772 C.ar      1 RES1    0.0000
     19 H5         1.8965    0.4547    3.4433 H         1 RES1    0.0000
     20 C9         0.2001   -0.3324    2.6887 C.ar      1 RES1    0.0000
     21 H6         0.4597   -0.3096    1.7962 H         1 RES1    0.0000
     22 C10       -1.0468   -0.8249    3.0405 C.ar      1 RES1    0.0000
     23 C11       -1.4343   -0.8350    4.3725 C.ar      1 RES1    0.0000
     24 H7        -2.2759   -1.1549    4.6063 H         1 RES1    0.0000
     25 C12       -0.5852   -0.3766    5.3444 C.ar      1 RES1    0.0000
     26 H8        -0.8547   -0.3838    6.2350 H         1 RES1    0.0000
     27 C13       -1.6807   -1.2624    0.7798 C.3       1 RES1    0.0000
     28 H9        -2.4213   -1.6243    0.2878 H         1 RES1    0.0000
     29 H10       -0.8895   -1.7704    0.5874 H         1 RES1    0.0000
     30 H11       -1.5431   -0.3473    0.5246 H         1 RES1    0.0000
@<TRIPOS>BOND
     1    1   22 1
     2    2    4 2
     3    3    4 2
     4    4    7 1
     5    5    6 2
     6    6   17 1
     7    7    8 ar
     8    8    9 1
     9   10    8 ar
    10   11   10 1
    11   12    5 1
    12   13   12 ar
    13   14   13 1
    14   15    7 ar
    15   16   15 1
    16   17   18 ar
    17   18   19 1
    18   20   18 ar
    19   21   20 1
    20   22   20 ar
    21   23   22 ar
    22   24   23 1
    23   25   17 ar
    24   26   25 1
    25   27    1 1
    26   28   27 1
    27   29   27 1
    28   30   27 1
    29   10   12 ar
    30   13   15 ar
    31   23   25 ar
@<TRIPOS>SUBSTRUCTURE
     1 RES1 1

@<TRIPOS>CRYSIN
   6.1530    7.5500   13.6830 100.8000 102.6800  91.7400   2 1

