# MOL2 file generated by ConQuest
# Please check atom types

@<TRIPOS>MOLECULE
XUGNES
   108   112     4
SMALL
NO_CHARGES
****
Generated from CSD

@<TRIPOS>ATOM
      1 O1        -1.1071    4.6820    6.6323 O.3       1 RES1    0.0000
      2 H1        -1.6684    4.2823    6.1514 H         1 RES1    0.0000
      3 O2        -1.7070    0.9371   18.3856 O.2       1 RES1    0.0000
      4 O3        -0.2117    2.4031   18.8772 O.2       1 RES1    0.0000
      5 N1        -0.9495    1.8448   18.0728 N.pl3     1 RES1    0.0000
      6 N2        -0.7179    3.5756   12.7263 N.2       1 RES1    0.0000
      7 N3        -1.3349    2.8919   11.8662 N.2       1 RES1    0.0000
      8 C1        -0.9309    2.2789   16.6717 C.ar      1 RES1    0.0000
      9 C2        -1.7379    1.6296   15.7516 C.ar      1 RES1    0.0000
     10 H2        -2.3049    0.9172   16.0191 H         1 RES1    0.0000
     11 C3        -1.6969    2.0440   14.4335 C.ar      1 RES1    0.0000
     12 H3        -2.2421    1.6160   13.7837 H         1 RES1    0.0000
     13 C4        -0.8563    3.0896   14.0548 C.ar      1 RES1    0.0000
     14 C5        -0.0831    3.7424   15.0143 C.ar      1 RES1    0.0000
     15 H4         0.4636    4.4776   14.7606 H         1 RES1    0.0000
     16 C6        -0.1072    3.3262   16.3282 C.ar      1 RES1    0.0000
     17 H5         0.4325    3.7539   16.9819 H         1 RES1    0.0000
     18 C7        -1.2242    3.3754   10.5419 C.ar      1 RES1    0.0000
     19 C8        -1.8956    2.6512    9.5625 C.ar      1 RES1    0.0000
     20 H6        -2.3707    1.8645    9.8029 H         1 RES1    0.0000
     21 C9        -1.8790    3.0617    8.2469 C.ar      1 RES1    0.0000
     22 H7        -2.3423    2.5630    7.5844 H         1 RES1    0.0000
     23 C10       -1.1796    4.2085    7.8983 C.ar      1 RES1    0.0000
     24 C11       -0.4869    4.9241    8.8643 C.ar      1 RES1    0.0000
     25 H8         0.0079    5.6963    8.6148 H         1 RES1    0.0000
     26 C12       -0.5119    4.5238   10.1787 C.ar      1 RES1    0.0000
     27 H9        -0.0466    5.0246   10.8389 H         1 RES1    0.0000
     28 O4        -1.3890   -0.3309   20.8746 O.3       2 RES2    0.0000
     29 H10       -1.3333    0.3475   20.3828 H         2 RES2    0.0000
     30 O5         2.4003    1.7778   32.4588 O.2       2 RES2    0.0000
     31 O6         1.9896   -0.2924   32.8760 O.2       2 RES2    0.0000
     32 N4         1.9975    0.6686   32.1223 N.pl3     2 RES2    0.0000
     33 N5         0.2298   -0.1998   26.8574 N.2       2 RES2    0.0000
     34 N6         0.2884    0.7604   26.0399 N.2       2 RES2    0.0000
     35 C13        1.5323    0.4937   30.7448 C.ar      2 RES2    0.0000
     36 C14        1.5475    1.5762   29.8785 C.ar      2 RES2    0.0000
     37 H11        1.8430    2.4309   30.1688 H         2 RES2    0.0000
     38 C15        1.1217    1.3746   28.5784 C.ar      2 RES2    0.0000
     39 H12        1.1348    2.0953   27.9588 H         2 RES2    0.0000
     40 C16        0.6725    0.1190   28.1725 C.ar      2 RES2    0.0000
     41 C17        0.6531   -0.9368   29.0722 C.ar      2 RES2    0.0000
     42 H13        0.3318   -1.7872   28.7977 H         2 RES2    0.0000
     43 C18        1.0988   -0.7551   30.3645 C.ar      2 RES2    0.0000
     44 H14        1.1063   -1.4785   30.9796 H         2 RES2    0.0000
     45 C19       -0.1408    0.4360   24.7296 C.ar      2 RES2    0.0000
     46 C20       -0.0783    1.4542   23.7837 C.ar      2 RES2    0.0000
     47 H15        0.2481    2.3099   24.0342 H         2 RES2    0.0000
     48 C21       -0.4852    1.2346   22.4825 C.ar      2 RES2    0.0000
     49 H16       -0.4448    1.9353   21.8411 H         2 RES2    0.0000
     50 C22       -0.9543   -0.0211   22.1212 C.ar      2 RES2    0.0000
     51 C23       -0.9899   -1.0577   23.0523 C.ar      2 RES2    0.0000
     52 H17       -1.2858   -1.9218   22.7899 H         2 RES2    0.0000
     53 C24       -0.5991   -0.8323   24.3501 C.ar      2 RES2    0.0000
     54 H18       -0.6395   -1.5350   24.9886 H         2 RES2    0.0000
     55 O7         2.1780    9.6398    9.8105 O.3       3 RES3    0.0000
     56 H19        1.7491    9.2102    9.2286 H         3 RES3    0.0000
     57 O8         0.7409    5.0788   21.1970 O.2       3 RES3    0.0000
     58 O9         2.2279    6.4758   21.8856 O.2       3 RES3    0.0000
     59 N7         1.5093    6.0073   20.9971 N.pl3     3 RES3    0.0000
     60 N8         1.9435    8.1806   15.8310 N.2       3 RES3    0.0000
     61 N9         1.3759    7.5601   14.8966 N.2       3 RES3    0.0000
     62 C25        1.5916    6.5809   19.6542 C.ar      3 RES3    0.0000
     63 C26        0.8349    5.9984   18.6520 C.ar      3 RES3    0.0000
     64 H20        0.2735    5.2546   18.8372 H         3 RES3    0.0000
     65 C27        0.9129    6.5227   17.3794 C.ar      3 RES3    0.0000
     66 H21        0.3932    6.1458   16.6779 H         3 RES3    0.0000
     67 C28        1.7523    7.6042   17.1176 C.ar      3 RES3    0.0000
     68 C29        2.4760    8.1820   18.1520 C.ar      3 RES3    0.0000
     69 H22        3.0289    8.9350   17.9757 H         3 RES3    0.0000
     70 C30        2.4002    7.6725   19.4326 C.ar      3 RES3    0.0000
     71 H23        2.8934    8.0650   20.1435 H         3 RES3    0.0000
     72 C31        1.5948    8.1294   13.6165 C.ar      3 RES3    0.0000
     73 C32        0.9388    7.5331   12.5467 C.ar      3 RES3    0.0000
     74 H24        0.3755    6.7834   12.6970 H         3 RES3    0.0000
     75 C33        1.0997    8.0246   11.2587 C.ar      3 RES3    0.0000
     76 H25        0.6368    7.6215   10.5349 H         3 RES3    0.0000
     77 C34        1.9404    9.1065   11.0329 C.ar      3 RES3    0.0000
     78 C35        2.5996    9.7073   12.1061 C.ar      3 RES3    0.0000
     79 H26        3.1708   10.4509   11.9538 H         3 RES3    0.0000
     80 C36        2.4273    9.2288   13.3811 C.ar      3 RES3    0.0000
     81 H27        2.8747    9.6470   14.1075 H         3 RES3    0.0000
     82 O10       -2.9177    6.8358   -4.1444 O.3       4 RES4    0.0000
     83 H28       -2.8084    7.4411   -4.7156 H         4 RES4    0.0000
     84 O11        1.1688   10.1963    6.9755 O.2       4 RES4    0.0000
     85 O12        0.7374    8.2224    7.7266 O.2       4 RES4    0.0000
     86 N10        0.7301    9.0601    6.8243 N.pl3     4 RES4    0.0000
     87 N11       -1.1728    7.5378    1.7669 N.2       4 RES4    0.0000
     88 N12       -1.1346    8.4189    0.8649 N.2       4 RES4    0.0000
     89 C37        0.1938    8.6842    5.5191 C.ar      4 RES4    0.0000
     90 C38        0.1484    9.6606    4.5315 C.ar      4 RES4    0.0000
     91 H29        0.4257   10.5508    4.7128 H         4 RES4    0.0000
     92 C39       -0.3088    9.3018    3.2835 C.ar      4 RES4    0.0000
     93 H30       -0.3484    9.9486    2.5901 H         4 RES4    0.0000
     94 C40       -0.7145    7.9931    3.0360 C.ar      4 RES4    0.0000
     95 C41       -0.6795    7.0448    4.0450 C.ar      4 RES4    0.0000
     96 H31       -0.9731    6.1581    3.8739 H         4 RES4    0.0000
     97 C42       -0.2148    7.3910    5.3074 C.ar      4 RES4    0.0000
     98 H32       -0.1805    6.7489    6.0079 H         4 RES4    0.0000
     99 C43       -1.5792    7.9711   -0.4054 C.ar      4 RES4    0.0000
    100 C44       -1.5828    8.9094   -1.4313 C.ar      4 RES4    0.0000
    101 H33       -1.2961    9.7984   -1.2613 H         4 RES4    0.0000
    102 C45       -2.0047    8.5501   -2.7030 C.ar      4 RES4    0.0000
    103 H34       -1.9912    9.1876   -3.4065 H         4 RES4    0.0000
    104 C46       -2.4471    7.2586   -2.9445 C.ar      4 RES4    0.0000
    105 C47       -2.4264    6.3095   -1.9229 C.ar      4 RES4    0.0000
    106 H35       -2.7089    5.4188   -2.0946 H         4 RES4    0.0000
    107 C48       -1.9978    6.6650   -0.6667 C.ar      4 RES4    0.0000
    108 H36       -1.9860    6.0179    0.0282 H         4 RES4    0.0000
@<TRIPOS>BOND
     1    1    2 1
     2    3    5 2
     3    4    5 2
     4    5    8 1
     5    6    7 2
     6    7   18 1
     7    8    9 ar
     8    9   10 1
     9   11    9 ar
    10   12   11 1
    11   13    6 1
    12   14   13 ar
    13   15   14 1
    14   16    8 ar
    15   17   16 1
    16   18   19 ar
    17   19   20 1
    18   21   19 ar
    19   22   21 1
    20   23    1 1
    21   24   23 ar
    22   25   24 1
    23   26   18 ar
    24   27   26 1
    25   28   29 1
    26   30   32 2
    27   31   32 2
    28   32   35 1
    29   33   34 2
    30   34   45 1
    31   35   36 ar
    32   36   37 1
    33   38   36 ar
    34   39   38 1
    35   40   33 1
    36   41   40 ar
    37   42   41 1
    38   43   35 ar
    39   44   43 1
    40   45   46 ar
    41   46   47 1
    42   48   46 ar
    43   49   48 1
    44   50   28 1
    45   51   50 ar
    46   52   51 1
    47   53   45 ar
    48   54   53 1
    49   55   56 1
    50   57   59 2
    51   58   59 2
    52   59   62 1
    53   60   61 2
    54   61   72 1
    55   62   63 ar
    56   63   64 1
    57   65   63 ar
    58   66   65 1
    59   67   60 1
    60   68   67 ar
    61   69   68 1
    62   70   62 ar
    63   71   70 1
    64   72   73 ar
    65   73   74 1
    66   75   73 ar
    67   76   75 1
    68   77   55 1
    69   78   77 ar
    70   79   78 1
    71   80   72 ar
    72   81   80 1
    73   82   83 1
    74   84   86 2
    75   85   86 2
    76   86   89 1
    77   87   88 2
    78   88   99 1
    79   89   90 ar
    80   90   91 1
    81   92   90 ar
    82   93   92 1
    83   94   87 1
    84   95   94 ar
    85   96   95 1
    86   97   89 ar
    87   98   97 1
    88   99  100 ar
    89  100  101 1
    90  102  100 ar
    91  103  102 1
    92  104   82 1
    93  105  104 ar
    94  106  105 1
    95  107   99 ar
    96  108  107 1
    97   11   13 ar
    98   14   16 ar
    99   21   23 ar
   100   24   26 ar
   101   38   40 ar
   102   41   43 ar
   103   48   50 ar
   104   51   53 ar
   105   65   67 ar
   106   68   70 ar
   107   75   77 ar
   108   78   80 ar
   109   92   94 ar
   110   95   97 ar
   111  102  104 ar
   112  105  107 ar
@<TRIPOS>SUBSTRUCTURE
     1 RES1 1
     2 RES2 28
     3 RES3 55
     4 RES4 82

@<TRIPOS>CRYSIN
   7.2900   10.6480   28.3530  93.6850  94.9220 100.8110   2 1

