# MOL2 file generated by ConQuest
# Please check atom types

@<TRIPOS>MOLECULE
XUGWOL
    31    33     1
SMALL
NO_CHARGES
****
Generated from CSD

@<TRIPOS>ATOM
      1 O1         3.2560    7.0505    7.1864 O.2       1 RES1    0.0000
      2 O2         0.7580    5.3551   10.4321 O.2       1 RES1    0.0000
      3 O3         1.9395    4.6114   12.0890 O.2       1 RES1    0.0000
      4 N1         1.4027    5.5226   11.4590 N.pl3     1 RES1    0.0000
      5 C1         3.3742    8.1794    7.6259 C.2       1 RES1    0.0000
      6 C2         2.9277    8.6535    8.9968 C.2       1 RES1    0.0000
      7 C3         3.2488   10.1308    9.1112 C.3       1 RES1    0.0000
      8 H1         2.4285   10.6610    9.2771 H         1 RES1    0.0000
      9 H2         3.8935   10.2983    9.8439 H         1 RES1    0.0000
     10 C4         3.8525   10.4729    7.7703 C.ar      1 RES1    0.0000
     11 C5         4.2962   11.7032    7.3027 C.ar      1 RES1    0.0000
     12 H3         4.2305   12.4790    7.8455 H         1 RES1    0.0000
     13 C6         4.8369   11.7782    6.0274 C.ar      1 RES1    0.0000
     14 H4         5.1298   12.6184    5.6950 H         1 RES1    0.0000
     15 C7         4.9596   10.6461    5.2208 C.ar      1 RES1    0.0000
     16 H5         5.3468   10.7209    4.3572 H         1 RES1    0.0000
     17 C8         4.5204    9.4174    5.6734 C.ar      1 RES1    0.0000
     18 H6         4.5934    8.6421    5.1303 H         1 RES1    0.0000
     19 C9         3.9653    9.3489    6.9538 C.ar      1 RES1    0.0000
     20 C10        2.3974    7.7699    9.8472 C.2       1 RES1    0.0000
     21 H7         2.2955    6.8900    9.5042 H         1 RES1    0.0000
     22 C11        1.9490    7.9550   11.2313 C.ar      1 RES1    0.0000
     23 C12        1.5152    6.8808   12.0206 C.ar      1 RES1    0.0000
     24 C13        1.1728    6.9879   13.3555 C.ar      1 RES1    0.0000
     25 H8         0.9061    6.2200   13.8489 H         1 RES1    0.0000
     26 C14        1.2249    8.2293   13.9615 C.ar      1 RES1    0.0000
     27 H9         0.9882    8.3273   14.8762 H         1 RES1    0.0000
     28 C15        1.6253    9.3264   13.2213 C.ar      1 RES1    0.0000
     29 H10        1.6493   10.1828   13.6301 H         1 RES1    0.0000
     30 C16        1.9912    9.1956   11.8943 C.ar      1 RES1    0.0000
     31 H11        2.2788    9.9640   11.4171 H         1 RES1    0.0000
@<TRIPOS>BOND
     1    1    5 2
     2    2    4 2
     3    3    4 2
     4    4   23 1
     5    5    6 1
     6    6    7 1
     7    7    8 1
     8    9    7 1
     9   10    7 1
    10   11   10 ar
    11   12   11 1
    12   13   11 ar
    13   14   13 1
    14   15   13 ar
    15   16   15 1
    16   17   15 ar
    17   18   17 1
    18   19    5 1
    19   20    6 2
    20   21   20 1
    21   22   20 1
    22   23   22 ar
    23   24   23 ar
    24   25   24 1
    25   26   24 ar
    26   27   26 1
    27   28   26 ar
    28   29   28 1
    29   30   22 ar
    30   31   30 1
    31   10   19 ar
    32   17   19 ar
    33   28   30 ar
@<TRIPOS>SUBSTRUCTURE
     1 RES1 1

@<TRIPOS>CRYSIN
   3.7993   14.9880   20.8380  90.0000  90.0000  90.0000  33 5

