# MOL2 file generated by ConQuest
# Please check atom types

@<TRIPOS>MOLECULE
XUGXAA
    87    86     2
SMALL
NO_CHARGES
****
Generated from CSD

@<TRIPOS>ATOM
      1 O1        -4.4259   -8.9501  -10.2049 O.3       1 RES1    0.0000
      2 O2        -3.1340  -10.5605   -8.1630 O.3       1 RES1    0.0000
      3 O3        -1.4004   -9.2522   -8.5130 O.2       1 RES1    0.0000
      4 O4        -4.4291  -13.5741   -5.8735 O.3       1 RES1    0.0000
      5 O5       -11.6998   -3.9862   -8.2642 O.2       1 RES1    0.0000
      6 O6        -9.5471   -3.6239   -8.3361 O.3       1 RES1    0.0000
      7 O7        -3.7219   -5.2314   -6.5601 O.3       1 RES1    0.0000
      8 O8        -2.5612   -6.8256   -5.4439 O.2       1 RES1    0.0000
      9 N1        -4.1260   -6.3171   -7.4142 N.2       1 RES1    0.0000
     10 C1        -8.1091   -6.1172   -8.6358 C.3       1 RES1    0.0000
     11 C2       -10.3886   -5.7801   -7.5494 C.2       1 RES1    0.0000
     12 H1       -11.0346   -6.1458   -6.9875 H         1 RES1    0.0000
     13 C3        -7.1396   -7.3455   -8.5550 C.3       1 RES1    0.0000
     14 H2        -7.0483   -7.5240   -7.5948 H         1 RES1    0.0000
     15 C4        -9.3493   -6.5342   -7.8649 C.2       1 RES1    0.0000
     16 H3        -9.3816   -7.4198   -7.5830 H         1 RES1    0.0000
     17 C5        -3.4650   -8.4295   -9.2648 C.3       1 RES1    0.0000
     18 H4        -3.0588   -7.5654   -9.4817 H         1 RES1    0.0000
     19 C6        -5.4082   -9.5436   -8.0274 C.3       1 RES1    0.0000
     20 C7        -4.8977   -8.4224   -8.9292 C.3       1 RES1    0.0000
     21 C8        -5.6780   -7.0855   -9.0463 C.3       1 RES1    0.0000
     22 C9        -5.1524   -6.0158   -8.1074 C.2       1 RES1    0.0000
     23 C10       -5.9520   -4.7289   -8.0857 C.3       1 RES1    0.0000
     24 H5        -5.8779   -4.2919   -8.9493 H         1 RES1    0.0000
     25 H6        -5.5823   -4.1334   -7.4154 H         1 RES1    0.0000
     26 C11       -7.4535   -4.9932   -7.7703 C.3       1 RES1    0.0000
     27 H7        -7.4535   -5.3517   -6.8574 H         1 RES1    0.0000
     28 C12       -6.9000   -9.8335   -8.3913 C.3       1 RES1    0.0000
     29 H8        -6.9387  -10.6347   -8.9355 H         1 RES1    0.0000
     30 H9        -7.3922  -10.0092   -7.5751 H         1 RES1    0.0000
     31 C13      -10.5939   -4.4019   -8.0246 C.2       1 RES1    0.0000
     32 C14       -7.5975   -8.6809   -9.1544 C.3       1 RES1    0.0000
     33 H10       -7.3653   -8.7180  -10.0948 H         1 RES1    0.0000
     34 H11       -8.5605   -8.7652   -9.0735 H         1 RES1    0.0000
     35 C15       -8.2251   -3.6378   -7.6599 C.3       1 RES1    0.0000
     36 C16       -4.5710  -10.8061   -8.3480 C.3       1 RES1    0.0000
     37 H12       -4.7236  -11.0475   -9.2845 H         1 RES1    0.0000
     38 C17       -2.5912   -9.4336   -8.6240 C.2       1 RES1    0.0000
     39 C18       -4.8590  -12.0144   -7.4962 C.2       1 RES1    0.0000
     40 C19       -5.9671  -12.8257   -7.3128 C.2       1 RES1    0.0000
     41 H13       -6.7817  -12.7229   -7.7506 H         1 RES1    0.0000
     42 C20       -5.6887  -13.7926   -6.3980 C.2       1 RES1    0.0000
     43 H14       -6.2562  -14.4896   -6.1614 H         1 RES1    0.0000
     44 C21       -3.8982  -12.5200   -6.5380 C.2       1 RES1    0.0000
     45 H15       -3.0459  -12.1730   -6.4000 H         1 RES1    0.0000
     46 C22       -8.4938   -5.7330  -10.0810 C.3       1 RES1    0.0000
     47 H16       -7.8812   -5.0717  -10.4103 H         1 RES1    0.0000
     48 H17       -9.3859   -5.3774  -10.0909 H         1 RES1    0.0000
     49 H18       -8.4541   -6.5128  -10.6410 H         1 RES1    0.0000
     50 C23       -5.5630   -6.5828  -10.4971 C.3       1 RES1    0.0000
     51 H19       -5.8908   -5.6816  -10.5503 H         1 RES1    0.0000
     52 H20       -6.0842   -7.1470  -11.0728 H         1 RES1    0.0000
     53 H21       -4.6440   -6.6071  -10.7731 H         1 RES1    0.0000
     54 C24       -5.2491   -9.1794   -6.5254 C.3       1 RES1    0.0000
     55 H22       -4.3216   -9.0280   -6.3290 H         1 RES1    0.0000
     56 H23       -5.5769   -9.9021   -5.9840 H         1 RES1    0.0000
     57 H24       -5.7510   -8.3838   -6.3329 H         1 RES1    0.0000
     58 C25       -8.4766   -3.2950   -6.1831 C.3       1 RES1    0.0000
     59 H25       -8.9291   -2.4509   -6.1239 H         1 RES1    0.0000
     60 H26       -7.6372   -3.2421   -5.7198 H         1 RES1    0.0000
     61 H27       -9.0194   -3.9791   -5.7848 H         1 RES1    0.0000
     62 C26       -7.5599   -2.4694   -8.3795 C.3       1 RES1    0.0000
     63 C27       -2.7901   -5.6730   -5.6409 C.2       1 RES1    0.0000
     64 C28       -2.1098   -4.5376   -4.9764 C.ar      1 RES1    0.0000
     65 C29       -2.1527   -3.2464   -5.4891 C.ar      1 RES1    0.0000
     66 H28       -2.7116   -3.0593   -6.2087 H         1 RES1    0.0000
     67 C30       -1.3735   -2.2295   -4.9469 C.ar      1 RES1    0.0000
     68 C31       -0.5621   -2.5466   -3.8763 C.ar      1 RES1    0.0000
     69 H29       -0.0140   -1.8881   -3.5174 H         1 RES1    0.0000
     70 C32       -0.5363   -3.8177   -3.3203 C.ar      1 RES1    0.0000
     71 H30       -0.0011   -3.9977   -2.5809 H         1 RES1    0.0000
     72 C33       -1.3166   -4.8161   -3.8763 C.ar      1 RES1    0.0000
     73 H31       -1.3091   -5.6716   -3.5115 H         1 RES1    0.0000
     74 C34       -1.3574   -0.8427   -5.5561 C.3       1 RES1    0.0000
     75 H32       -1.5068   -0.9084   -6.5025 H         1 RES1    0.0000
     76 H33       -0.5051   -0.4313   -5.3944 H         1 RES1    0.0000
     77 H34       -2.0496   -0.3099   -5.1598 H         1 RES1    0.0000
     78 H35       -6.7065   -2.2566   -8.0443 H         1 RES1    0.0000
     79 H36       -8.1037   -1.7139   -8.2415 H         1 RES1    0.0000
     80 H37       -7.4481   -2.7280   -9.2766 H         1 RES1    0.0000
     81 O9        -5.7876  -14.0340   -7.2064 Du        2 SUP2    0.0000
     82 C35       -4.5796  -12.4086   -6.3329 Du        2 SUP2    0.0000
     83 H38       -4.0798  -11.9073   -5.7296 Du        2 SUP2    0.0000
     84 C36       -5.0836  -13.6541   -6.0431 Du        2 SUP2    0.0000
     85 H39       -4.9901  -14.1382   -5.2544 Du        2 SUP2    0.0000
     86 C37       -5.6737  -13.0485   -8.0976 Du        2 SUP2    0.0000
     87 H40       -6.0487  -13.0299   -8.9493 Du        2 SUP2    0.0000
@<TRIPOS>BOND
     1    1   17 1
     2    2   36 1
     3    3   38 2
     4    4   42 1
     5    5   31 2
     6    6   31 1
     7    7    9 1
     8    8   63 2
     9    9   22 2
    10   10   13 1
    11   11   12 1
    12   13   14 1
    13   15   10 1
    14   16   15 1
    15   17   18 1
    16   19   20 1
    17   20    1 1
    18   21   13 1
    19   22   21 1
    20   23   22 1
    21   24   23 1
    22   25   23 1
    23   26   10 1
    24   27   26 1
    25   28   19 1
    26   29   28 1
    27   30   28 1
    28   31   11 1
    29   32   13 1
    30   33   32 1
    31   34   32 1
    32   35    6 1
    33   36   19 1
    34   37   36 1
    35   38    2 1
    36   39   36 1
    37   40   39 1
    38   41   40 1
    39   42   40 2
    40   43   42 1
    41   44    4 1
    42   45   44 1
    43   46   10 1
    44   47   46 1
    45   48   46 1
    46   49   46 1
    47   50   21 1
    48   51   50 1
    49   52   50 1
    50   53   50 1
    51   54   19 1
    52   55   54 1
    53   56   54 1
    54   57   54 1
    55   58   35 1
    56   59   58 1
    57   60   58 1
    58   61   58 1
    59   62   35 1
    60   63    7 1
    61   64   63 1
    62   65   64 ar
    63   66   65 1
    64   67   65 ar
    65   68   67 ar
    66   69   68 1
    67   70   68 ar
    68   71   70 1
    69   72   64 ar
    70   73   72 1
    71   74   67 1
    72   75   74 1
    73   76   74 1
    74   77   74 1
    75   78   62 1
    76   79   62 1
    77   80   62 1
    78   11   15 2
    79   17   20 1
    80   17   38 1
    81   20   21 1
    82   23   26 1
    83   26   35 1
    84   28   32 1
    85   39   44 2
    86   70   72 ar
@<TRIPOS>SUBSTRUCTURE
     1 RES1 1
     2 SUP2 81

@<TRIPOS>CRYSIN
  10.7476   14.2825   19.7165  90.0000  90.0000  90.0000  19 1

