# MOL2 file generated by ConQuest
# Please check atom types

@<TRIPOS>MOLECULE
XUHPIB
    24    25     1
SMALL
NO_CHARGES
****
Generated from CSD

@<TRIPOS>ATOM
      1 O1        -3.5721   14.0311    7.9095 O.3       1 RES1    0.0000
      2 O2        -1.2645   12.0963    9.5695 O.3       1 RES1    0.0000
      3 O3         1.1771    7.1751    8.0514 O.3       1 RES1    0.0000
      4 O4        -0.3824    6.8605    5.0042 O.3       1 RES1    0.0000
      5 N1        -2.7445   13.8114    9.0145 N.2       1 RES1    0.0000
      6 N2        -3.4346   13.0147    6.9900 N.2       1 RES1    0.0000
      7 N3         0.9965    6.4547    6.8671 N.2       1 RES1    0.0000
      8 N4         0.3755    8.3231    8.0713 N.2       1 RES1    0.0000
      9 C1        -2.1405   12.6910    8.7662 C.2       1 RES1    0.0000
     10 C2        -2.5637   12.1912    7.4923 C.2       1 RES1    0.0000
     11 C3        -1.0362   12.7599   10.8421 C.3       1 RES1    0.0000
     12 H1        -0.3721   12.2572   11.3583 H         1 RES1    0.0000
     13 H2        -1.8767   12.8025   11.3443 H         1 RES1    0.0000
     14 H3        -0.7062   13.6679   10.6823 H         1 RES1    0.0000
     15 N5        -2.2495   11.0582    6.7344 N.2       1 RES1    0.0000
     16 N6        -1.4018   10.3120    7.2846 N.2       1 RES1    0.0000
     17 N7        -1.1436    9.2474    6.5128 N.pl3     1 RES1    0.0000
     18 H4        -1.5304    9.1841    5.7654 H         1 RES1    0.0000
     19 C4        -0.2495    8.3001    6.9451 C.2       1 RES1    0.0000
     20 C5         0.1207    7.1397    6.1983 C.2       1 RES1    0.0000
     21 C6         0.1185    5.6396    4.4038 C.3       1 RES1    0.0000
     22 H5        -0.2883    5.5193    3.5209 H         1 RES1    0.0000
     23 H6        -0.1107    4.8768    4.9752 H         1 RES1    0.0000
     24 H7         1.0923    5.6959    4.3111 H         1 RES1    0.0000
@<TRIPOS>BOND
     1    1    5 1
     2    2    9 1
     3    3    7 1
     4    4   20 1
     5    5    9 2
     6    6    1 1
     7    7   20 2
     8    8    3 1
     9    9   10 1
    10   10    6 2
    11   11    2 1
    12   12   11 1
    13   13   11 1
    14   14   11 1
    15   15   10 1
    16   16   15 2
    17   17   16 1
    18   18   17 1
    19   19    8 2
    20   20   19 1
    21   21    4 1
    22   22   21 1
    23   23   21 1
    24   24   21 1
    25   17   19 1
@<TRIPOS>SUBSTRUCTURE
     1 RES1 1

@<TRIPOS>CRYSIN
   4.2319   22.0771   10.9432  90.0000  99.8940  90.0000  14 1

