# MOL2 file generated by ConQuest
# Please check atom types

@<TRIPOS>MOLECULE
XUHREX
    22    23     1
SMALL
NO_CHARGES
****
Generated from CSD

@<TRIPOS>ATOM
      1 C1         0.5895    9.6024    4.9632 C.2       1 RES1    0.0000
      2 C2         1.1805    9.0625    6.0272 C.2       1 RES1    0.0000
      3 H1         2.1033    9.0539    6.2512 H         1 RES1    0.0000
      4 C3         0.0889    8.5036    6.7457 C.2       1 RES1    0.0000
      5 C4         0.1045    7.7600    8.0392 C.3       1 RES1    0.0000
      6 H2        -0.6109    7.0621    8.0392 H         1 RES1    0.0000
      7 C5        -0.0436    8.6505    9.2577 C.3       1 RES1    0.0000
      8 H3        -0.1775    9.5973    9.0005 H         1 RES1    0.0000
      9 H4        -0.7930    8.3570    9.8327 H         1 RES1    0.0000
     10 C6         1.2814    8.4459    9.9320 C.2       1 RES1    0.0000
     11 C7         1.6921    9.0734   11.1814 C.2       1 RES1    0.0000
     12 H5         2.5691    8.9062   11.5059 H         1 RES1    0.0000
     13 C8         0.9033    9.8611   11.8789 C.2       1 RES1    0.0000
     14 H6         0.0222   10.0432   11.5732 H         1 RES1    0.0000
     15 H7         1.2142   10.2484   12.6890 H         1 RES1    0.0000
     16 N1         1.1126   10.3495    3.8518 N.pl3     1 RES1    0.0000
     17 N2        -1.0463    8.7215    6.1365 N.2       1 RES1    0.0000
     18 N3         2.0553    7.6260    9.3239 N.2       1 RES1    0.0000
     19 O1         2.3029   10.6197    3.9173 O.2       1 RES1    0.0000
     20 O2         0.3558   10.6605    2.9478 O.2       1 RES1    0.0000
     21 O3        -0.7378    9.4323    4.9613 O.3       1 RES1    0.0000
     22 O4         1.4188    7.1275    8.1724 O.3       1 RES1    0.0000
@<TRIPOS>BOND
     1    1    2 2
     2    2    3 1
     3    4    2 1
     4    5    4 1
     5    6    5 1
     6    7    5 1
     7    8    7 1
     8    9    7 1
     9   10    7 1
    10   11   10 1
    11   12   11 1
    12   13   11 2
    13   14   13 1
    14   15   13 1
    15   16    1 1
    16   17    4 2
    17   18   10 2
    18   19   16 2
    19   20   16 2
    20   21    1 1
    21   22    5 1
    22   17   21 1
    23   18   22 1
@<TRIPOS>SUBSTRUCTURE
     1 RES1 1

@<TRIPOS>CRYSIN
   5.5716   14.7650   11.2960  90.0000 102.2980  90.0000 231 1

