# MOL2 file generated by ConQuest
# Please check atom types

@<TRIPOS>MOLECULE
XUJQOI
    42    45     1
SMALL
NO_CHARGES
****
Generated from CSD

@<TRIPOS>ATOM
      1 O1        14.8470    1.6492    1.0791 O.3       1 RES1    0.0000
      2 N1        15.0919    2.0214    2.4898 N.3       1 RES1    0.0000
      3 C1        14.0586    2.6853    0.4756 C.3       1 RES1    0.0000
      4 H1        14.3205    2.8058   -0.4615 H         1 RES1    0.0000
      5 O2        12.2509    1.2592   -0.2687 O.3       1 RES1    0.0000
      6 H2        11.6321    1.4679   -0.7635 H         1 RES1    0.0000
      7 C2        14.3644    3.9345    1.2636 C.3       1 RES1    0.0000
      8 H3        13.6780    4.6124    1.1607 H         1 RES1    0.0000
      9 H4        15.2304    4.3072    1.0438 H         1 RES1    0.0000
     10 O3        12.0887    4.0249    3.1589 O.3       1 RES1    0.0000
     11 C3        14.3421    3.2929    2.6505 C.3       1 RES1    0.0000
     12 H5        14.7507    3.8732    3.3266 H         1 RES1    0.0000
     13 O4        10.8276    2.3433    2.2687 O.3       1 RES1    0.0000
     14 C4        12.9490    2.8795    3.0374 C.3       1 RES1    0.0000
     15 H6        12.9755    2.4002    3.8909 H         1 RES1    0.0000
     16 C5        12.2223    2.0404    2.0117 C.3       1 RES1    0.0000
     17 H7        12.3883    1.0908    2.1878 H         1 RES1    0.0000
     18 C6        12.5869    2.3645    0.5630 C.3       1 RES1    0.0000
     19 H8        12.0737    3.1473    0.2738 H         1 RES1    0.0000
     20 C7        10.7382    3.5568    3.0657 C.3       1 RES1    0.0000
     21 C8         9.9297    4.5806    2.3407 C.3       1 RES1    0.0000
     22 H9         9.0211    4.2810    2.2726 H         1 RES1    0.0000
     23 H10       10.2920    4.7095    1.4602 H         1 RES1    0.0000
     24 H11        9.9589    5.4102    2.8228 H         1 RES1    0.0000
     25 C9        10.1940    3.2193    4.4282 C.3       1 RES1    0.0000
     26 H12        9.2884    2.9135    4.3447 H         1 RES1    0.0000
     27 H13       10.2167    4.0009    4.9848 H         1 RES1    0.0000
     28 H14       10.7300    2.5274    4.8241 H         1 RES1    0.0000
     29 C10       16.5469    2.1966    2.5914 C.3       1 RES1    0.0000
     30 H15       16.8156    2.9961    2.1119 H         1 RES1    0.0000
     31 H16       16.9974    1.4372    2.1903 H         1 RES1    0.0000
     32 C11       16.9415    2.3165    4.0478 C.ar      1 RES1    0.0000
     33 C12       17.7093    3.3693    4.4822 C.ar      1 RES1    0.0000
     34 H17       17.9773    4.0210    3.8768 H         1 RES1    0.0000
     35 C13       18.0889    3.4748    5.8216 C.ar      1 RES1    0.0000
     36 H18       18.6038    4.1967    6.1057 H         1 RES1    0.0000
     37 C14       17.7097    2.5246    6.7008 C.ar      1 RES1    0.0000
     38 H19       17.9715    2.5866    7.5903 H         1 RES1    0.0000
     39 C15       16.9336    1.4595    6.2831 C.ar      1 RES1    0.0000
     40 H20       16.6675    0.8096    6.8924 H         1 RES1    0.0000
     41 C16       16.5567    1.3641    4.9707 C.ar      1 RES1    0.0000
     42 H21       16.0348    0.6455    4.6956 H         1 RES1    0.0000
@<TRIPOS>BOND
     1    1    2 1
     2    2   11 1
     3    3    1 1
     4    4    3 1
     5    5    6 1
     6    7    3 1
     7    8    7 1
     8    9    7 1
     9   10   14 1
    10   11    7 1
    11   12   11 1
    12   13   16 1
    13   14   11 1
    14   15   14 1
    15   16   14 1
    16   17   16 1
    17   18    3 1
    18   19   18 1
    19   20   10 1
    20   21   20 1
    21   22   21 1
    22   23   21 1
    23   24   21 1
    24   25   20 1
    25   26   25 1
    26   27   25 1
    27   28   25 1
    28   29    2 1
    29   30   29 1
    30   31   29 1
    31   32   29 1
    32   33   32 ar
    33   34   33 1
    34   35   33 ar
    35   36   35 1
    36   37   35 ar
    37   38   37 1
    38   39   37 ar
    39   40   39 1
    40   41   32 ar
    41   42   41 1
    42    5   18 1
    43   13   20 1
    44   16   18 1
    45   39   41 ar
@<TRIPOS>SUBSTRUCTURE
     1 RES1 1

@<TRIPOS>CRYSIN
  21.1727    5.5793   12.8757  90.0000  93.3200  90.0000   5 1

