# MOL2 file generated by ConQuest
# Please check atom types

@<TRIPOS>MOLECULE
XUJQEY
    84    90     2
SMALL
NO_CHARGES
****
Generated from CSD

@<TRIPOS>ATOM
      1 O1         4.7393    4.1104   10.6383 O.3       1 RES1    0.0000
      2 N1         5.5640    2.9319   10.5138 N.3       1 RES1    0.0000
      3 C1         3.3787    3.6782   10.5775 C.3       1 RES1    0.0000
      4 H1         2.8040    4.3969   10.2675 H         1 RES1    0.0000
      5 H2         3.0729    3.3897   11.4510 H         1 RES1    0.0000
      6 O2         1.7995    3.8320    8.2467 O.3       1 RES1    0.0000
      7 H3         1.1845    3.5779    7.7673 H         1 RES1    0.0000
      8 C2         3.3625    2.5108    9.5881 C.3       1 RES1    0.0000
      9 H4         2.8579    1.7503    9.9430 H         1 RES1    0.0000
     10 O3         5.4666    1.6320    7.1560 O.3       1 RES1    0.0000
     11 C3         4.8602    2.1751    9.4592 C.3       1 RES1    0.0000
     12 H5         5.0222    1.2119    9.5374 H         1 RES1    0.0000
     13 C4         5.2987    2.7124    8.0874 C.3       1 RES1    0.0000
     14 H6         6.0947    3.2809    8.1468 H         1 RES1    0.0000
     15 O4         4.1294    3.1229    6.0869 O.3       1 RES1    0.0000
     16 C5         4.1058    3.4459    7.4848 C.3       1 RES1    0.0000
     17 H7         4.1809    4.4133    7.6239 H         1 RES1    0.0000
     18 C6         2.8781    2.8911    8.1801 C.3       1 RES1    0.0000
     19 H8         2.5771    2.0849    7.7108 H         1 RES1    0.0000
     20 C7         5.1824    2.1862    5.8551 C.3       1 RES1    0.0000
     21 C8         4.6986    1.0756    4.9730 C.3       1 RES1    0.0000
     22 H9         5.4106    0.4508    4.8238 H         1 RES1    0.0000
     23 H10        4.4068    1.4373    4.1328 H         1 RES1    0.0000
     24 H11        3.9638    0.6264    5.4003 H         1 RES1    0.0000
     25 C9         6.3859    2.8980    5.3003 C.3       1 RES1    0.0000
     26 H12        7.0915    2.2637    5.1468 H         1 RES1    0.0000
     27 H13        6.6839    3.5604    5.9290 H         1 RES1    0.0000
     28 H14        6.1530    3.3239    4.4732 H         1 RES1    0.0000
     29 C10        5.5642    2.2170   11.7900 C.3       1 RES1    0.0000
     30 H15        6.0319    1.3742   11.6770 H         1 RES1    0.0000
     31 H16        4.6521    2.0170   12.0391 H         1 RES1    0.0000
     32 C11        6.2169    2.9898   12.9010 C.ar      1 RES1    0.0000
     33 C12        7.0415    4.0776   12.6765 C.ar      1 RES1    0.0000
     34 H17        7.1995    4.3576   11.8044 H         1 RES1    0.0000
     35 C13        7.6353    4.7580   13.7238 C.ar      1 RES1    0.0000
     36 H18        8.1766    5.4947   13.5514 H         1 RES1    0.0000
     37 C14        7.4322    4.3528   15.0101 C.ar      1 RES1    0.0000
     38 H19        7.8469    4.8005   15.7112 H         1 RES1    0.0000
     39 C15        6.6282    3.2974   15.2578 C.ar      1 RES1    0.0000
     40 H20        6.4800    3.0258   16.1357 H         1 RES1    0.0000
     41 C16        6.0198    2.6164   14.2178 C.ar      1 RES1    0.0000
     42 H21        5.4641    1.8935   14.4075 H         1 RES1    0.0000
     43 O5        -5.9166    3.9147   11.2134 O.3       2 RES2    0.0000
     44 N2        -5.7202    2.6954   11.9710 N.3       2 RES2    0.0000
     45 C17       -6.3794    3.5276    9.9025 C.3       2 RES2    0.0000
     46 H22       -6.1396    4.1964    9.2419 H         2 RES2    0.0000
     47 H23       -7.3426    3.4135    9.8981 H         2 RES2    0.0000
     48 O6        -4.8057    3.1308    7.5384 O.3       2 RES2    0.0000
     49 H24       -4.2648    2.9807    6.9401 H         2 RES2    0.0000
     50 C18       -5.6741    2.1974    9.6084 C.3       2 RES2    0.0000
     51 H25       -6.3058    1.5190    9.2897 H         2 RES2    0.0000
     52 O7        -2.7635    1.0321   10.7006 O.3       2 RES2    0.0000
     53 C19       -5.0810    1.8171   10.9903 C.3       2 RES2    0.0000
     54 H26       -5.2107    0.8688   11.2018 H         2 RES2    0.0000
     55 O8        -2.0739    2.5230    9.1347 O.3       2 RES2    0.0000
     56 C20       -3.5939    2.1921   10.8904 C.3       2 RES2    0.0000
     57 H27       -3.2984    2.7399   11.6480 H         2 RES2    0.0000
     58 C21       -3.3934    2.8991    9.5548 C.3       2 RES2    0.0000
     59 H28       -3.4773    3.8707    9.6475 H         2 RES2    0.0000
     60 C22       -4.4888    2.3284    8.6770 C.3       2 RES2    0.0000
     61 H29       -4.2220    1.4357    8.3742 H         2 RES2    0.0000
     62 C23       -1.5952    1.4962   10.0285 C.3       2 RES2    0.0000
     63 C24       -1.0315    0.3723    9.1782 C.3       2 RES2    0.0000
     64 H30       -0.2428    0.6794    8.7233 H         2 RES2    0.0000
     65 H31       -1.6900    0.0987    8.5336 H         2 RES2    0.0000
     66 H32       -0.8045   -0.3723    9.7402 H         2 RES2    0.0000
     67 C25       -0.5952    2.1030   10.9773 C.3       2 RES2    0.0000
     68 H33        0.1727    2.4010   10.4848 H         2 RES2    0.0000
     69 H34       -0.3262    1.4448   11.6219 H         2 RES2    0.0000
     70 H35       -0.9951    2.8492   11.4293 H         2 RES2    0.0000
     71 C26       -7.0456    2.1899   12.3955 C.3       2 RES2    0.0000
     72 H36       -6.9309    1.3986   12.9445 H         2 RES2    0.0000
     73 H37       -7.5644    1.9423   11.6147 H         2 RES2    0.0000
     74 C27       -7.7867    3.2438   13.1791 C.ar      2 RES2    0.0000
     75 C28       -7.3386    3.6379   14.4307 C.ar      2 RES2    0.0000
     76 H38       -6.5984    3.2236   14.8102 H         2 RES2    0.0000
     77 C29       -7.9943    4.6504   15.1188 C.ar      2 RES2    0.0000
     78 H39       -7.6855    4.9156   15.9561 H         2 RES2    0.0000
     79 C30       -9.0872    5.2587   14.5727 C.ar      2 RES2    0.0000
     80 H40       -9.5280    5.9286   15.0449 H         2 RES2    0.0000
     81 C31       -9.5394    4.8890   13.3356 C.ar      2 RES2    0.0000
     82 H41      -10.2773    5.3102   12.9604 H         2 RES2    0.0000
     83 C32       -8.8890    3.8887   12.6562 C.ar      2 RES2    0.0000
     84 H42       -9.2011    3.6379   11.8160 H         2 RES2    0.0000
@<TRIPOS>BOND
     1    1    2 1
     2    2   11 1
     3    3    1 1
     4    4    3 1
     5    5    3 1
     6    6    7 1
     7    8    3 1
     8    9    8 1
     9   10   13 1
    10   11    8 1
    11   12   11 1
    12   13   11 1
    13   14   13 1
    14   15   16 1
    15   16   13 1
    16   17   16 1
    17   18    6 1
    18   19   18 1
    19   20   10 1
    20   21   20 1
    21   22   21 1
    22   23   21 1
    23   24   21 1
    24   25   20 1
    25   26   25 1
    26   27   25 1
    27   28   25 1
    28   29    2 1
    29   30   29 1
    30   31   29 1
    31   32   29 1
    32   33   32 ar
    33   34   33 1
    34   35   33 ar
    35   36   35 1
    36   37   35 ar
    37   38   37 1
    38   39   37 ar
    39   40   39 1
    40   41   32 ar
    41   42   41 1
    42   43   44 1
    43   44   53 1
    44   45   43 1
    45   46   45 1
    46   47   45 1
    47   48   49 1
    48   50   45 1
    49   51   50 1
    50   52   56 1
    51   53   50 1
    52   54   53 1
    53   55   58 1
    54   56   53 1
    55   57   56 1
    56   58   56 1
    57   59   58 1
    58   60   48 1
    59   61   60 1
    60   62   52 1
    61   63   62 1
    62   64   63 1
    63   65   63 1
    64   66   63 1
    65   67   62 1
    66   68   67 1
    67   69   67 1
    68   70   67 1
    69   71   44 1
    70   72   71 1
    71   73   71 1
    72   74   71 1
    73   75   74 ar
    74   76   75 1
    75   77   75 ar
    76   78   77 1
    77   79   77 ar
    78   80   79 1
    79   81   79 ar
    80   82   81 1
    81   83   74 ar
    82   84   83 1
    83    8   18 1
    84   15   20 1
    85   16   18 1
    86   39   41 ar
    87   50   60 1
    88   55   62 1
    89   58   60 1
    90   81   83 ar
@<TRIPOS>SUBSTRUCTURE
     1 RES1 1
     2 RES2 43

@<TRIPOS>CRYSIN
  39.8200    5.3038   15.4373  90.0000 110.2220  90.0000   5 1

