# MOL2 file generated by ConQuest
# Please check atom types

@<TRIPOS>MOLECULE
XUJZOS
   154   162     2
SMALL
NO_CHARGES
****
Generated from CSD

@<TRIPOS>ATOM
      1 O1        -6.9977    1.9836   -6.5750 O.3       1 RES1    0.0000
      2 O2        -4.1120    3.3105   -5.4646 O.3       1 RES1    0.0000
      3 O3        -5.2732    2.3321   -2.2541 O.3       1 RES1    0.0000
      4 O4        -4.9406   -0.4718   -2.0788 O.3       1 RES1    0.0000
      5 O5        -4.5586   -0.9798   -4.8416 O.3       1 RES1    0.0000
      6 O6        -5.9035   -1.4074    5.1803 O.3       2 RES2    0.0000
      7 O7        -8.5685    0.5697    4.3382 O.3       2 RES2    0.0000
      8 O8        -8.6451   -0.9831    1.3735 O.3       2 RES2    0.0000
      9 O9        -9.4986   -3.6697    1.6524 O.3       2 RES2    0.0000
     10 O10       -9.0954   -3.9575    4.4657 O.3       2 RES2    0.0000
     11 N1        -6.0822    1.3218   -5.6758 N.3       1 RES1    0.0000
     12 N2        -7.1014   -1.9150    4.5547 N.3       2 RES2    0.0000
     13 C1        -5.9873    2.1996   -4.5042 C.3       1 RES1    0.0000
     14 C2        -5.1694    1.4967   -3.4084 C.3       1 RES1    0.0000
     15 C3        -5.7420    0.1254   -3.0856 C.3       1 RES1    0.0000
     16 C4        -5.8771   -0.6927   -4.3409 C.3       1 RES1    0.0000
     17 C5        -6.7012    0.0461   -5.3504 C.3       1 RES1    0.0000
     18 C6        -5.3913    3.5167   -4.8695 C.3       1 RES1    0.0000
     19 C7        -3.4022    4.5037   -5.6718 C.3       1 RES1    0.0000
     20 C8        -2.1165    4.1824   -6.3652 C.ar      1 RES1    0.0000
     21 C9        -1.3102    3.1664   -5.9029 C.ar      1 RES1    0.0000
     22 C10       -0.1619    2.8347   -6.5086 C.ar      1 RES1    0.0000
     23 C11        0.2454    3.4868   -7.6071 C.ar      1 RES1    0.0000
     24 C12       -0.5138    4.4622   -8.1026 C.ar      1 RES1    0.0000
     25 C13       -1.7074    4.8125   -7.4716 C.ar      1 RES1    0.0000
     26 C14       -4.0617    2.5308   -1.5475 C.3       1 RES1    0.0000
     27 C15       -4.3735    2.8910   -0.1275 C.ar      1 RES1    0.0000
     28 C16       -3.3741    2.7609    0.8196 C.ar      1 RES1    0.0000
     29 C17       -3.6667    3.0447    2.1505 C.ar      1 RES1    0.0000
     30 C18       -4.8900    3.4139    2.5344 C.ar      1 RES1    0.0000
     31 C19       -5.8760    3.5435    1.6112 C.ar      1 RES1    0.0000
     32 C20       -5.6052    3.2948    0.2816 C.ar      1 RES1    0.0000
     33 C21       -5.6386   -1.1501   -1.1078 C.3       1 RES1    0.0000
     34 C22       -4.7617   -1.6183   -0.0159 C.ar      1 RES1    0.0000
     35 C23       -4.3822   -0.7744    0.9750 C.ar      1 RES1    0.0000
     36 C24       -3.6186   -1.1805    1.9738 C.ar      1 RES1    0.0000
     37 C25       -3.2129   -2.4903    1.9964 C.ar      1 RES1    0.0000
     38 C26       -3.5566   -3.3148    1.1025 C.ar      1 RES1    0.0000
     39 C27       -4.3468   -2.9076    0.0465 C.ar      1 RES1    0.0000
     40 C28       -4.4918   -2.1494   -5.6386 C.3       1 RES1    0.0000
     41 C29       -4.2103   -3.3999   -4.8230 C.ar      1 RES1    0.0000
     42 C30       -4.6261   -4.6372   -5.2786 C.ar      1 RES1    0.0000
     43 C31       -4.2890   -5.7682   -4.5826 C.ar      1 RES1    0.0000
     44 C32       -3.5794   -5.7114   -3.4350 C.ar      1 RES1    0.0000
     45 C33       -3.1471   -4.5094   -2.9714 C.ar      1 RES1    0.0000
     46 C34       -3.4982   -3.3482   -3.6953 C.ar      1 RES1    0.0000
     47 C35       -7.2875   -1.1449    3.3035 C.3       2 RES2    0.0000
     48 C36       -8.5047   -1.7113    2.5742 C.3       2 RES2    0.0000
     49 C37       -8.3162   -3.1942    2.2780 C.3       2 RES2    0.0000
     50 C38       -7.9940   -3.9466    3.5625 C.3       2 RES2    0.0000
     51 C39       -6.8223   -3.3162    4.2744 C.3       2 RES2    0.0000
     52 C40       -7.3900    0.3190    3.5718 C.3       2 RES2    0.0000
     53 C41       -8.5683    1.8224    4.9798 C.3       2 RES2    0.0000
     54 C42       -8.8235    2.9985    4.0765 C.ar      2 RES2    0.0000
     55 C43       -8.3781    4.2564    4.4139 C.ar      2 RES2    0.0000
     56 C44       -8.6284    5.3430    3.5904 C.ar      2 RES2    0.0000
     57 C45       -9.3515    5.1731    2.4587 C.ar      2 RES2    0.0000
     58 C46       -9.7905    3.9331    2.1053 C.ar      2 RES2    0.0000
     59 C47       -9.5428    2.8625    2.9116 C.ar      2 RES2    0.0000
     60 C48       -9.9866   -0.6481    1.0308 C.3       2 RES2    0.0000
     61 C49       -9.9964    0.1121   -0.2444 C.ar      2 RES2    0.0000
     62 C50      -10.9425   -0.1459   -1.2101 C.ar      2 RES2    0.0000
     63 C51      -10.9152    0.6027   -2.4188 C.ar      2 RES2    0.0000
     64 C52       -9.9769    1.5576   -2.6088 C.ar      2 RES2    0.0000
     65 C53       -9.0813    1.8298   -1.6444 C.ar      2 RES2    0.0000
     66 C54       -9.0643    1.0985   -0.4888 C.ar      2 RES2    0.0000
     67 C55       -9.3175   -4.8795    0.8953 C.3       2 RES2    0.0000
     68 C56       -8.7147   -4.6357   -0.4596 C.ar      2 RES2    0.0000
     69 C57       -9.0436   -3.5482   -1.2300 C.ar      2 RES2    0.0000
     70 C58       -8.4690   -3.3997   -2.4706 C.ar      2 RES2    0.0000
     71 C59       -7.6728   -4.2889   -2.9953 C.ar      2 RES2    0.0000
     72 C60       -7.3045   -5.3604   -2.2554 C.ar      2 RES2    0.0000
     73 C61       -7.8187   -5.5358   -0.9776 C.ar      2 RES2    0.0000
     74 C62       -9.8762   -5.1192    4.4259 C.3       2 RES2    0.0000
     75 C63      -10.9016   -5.1015    5.4739 C.ar      2 RES2    0.0000
     76 C64      -10.8957   -6.1237    6.3931 C.ar      2 RES2    0.0000
     77 C65      -11.7815   -6.1894    7.3959 C.ar      2 RES2    0.0000
     78 C66      -12.7305   -5.1084    7.4597 C.ar      2 RES2    0.0000
     79 C67      -12.7586   -4.1268    6.5817 C.ar      2 RES2    0.0000
     80 C68      -11.8236   -4.1299    5.5788 C.ar      2 RES2    0.0000
     81 H1        -6.5153    1.7679   -7.4530 H         1 RES1    0.0000
     82 H2        -6.8651    2.3498   -4.1722 H         1 RES1    0.0000
     83 H3        -4.2617    1.4191   -3.6767 H         1 RES1    0.0000
     84 H4        -6.6117    0.2514   -2.7270 H         1 RES1    0.0000
     85 H5        -6.3113   -1.5103   -4.1283 H         1 RES1    0.0000
     86 H6        -7.5677    0.2015   -4.9944 H         1 RES1    0.0000
     87 H7        -6.7726   -0.4771   -6.1394 H         1 RES1    0.0000
     88 H8        -5.9599    3.9607   -5.4885 H         1 RES1    0.0000
     89 H9        -5.2961    4.0492   -4.0898 H         1 RES1    0.0000
     90 H10       -3.2192    4.9158   -4.8350 H         1 RES1    0.0000
     91 H11       -3.9175    5.0934   -6.2084 H         1 RES1    0.0000
     92 H12       -1.5755    2.6840   -5.1285 H         1 RES1    0.0000
     93 H13        0.3690    2.1306   -6.1566 H         1 RES1    0.0000
     94 H14        1.0660    3.2565   -8.0269 H         1 RES1    0.0000
     95 H15       -0.2410    4.9202   -8.8889 H         1 RES1    0.0000
     96 H16       -2.2388    5.5117   -7.8356 H         1 RES1    0.0000
     97 H17       -3.5691    3.2339   -1.9526 H         1 RES1    0.0000
     98 H18       -3.5482    1.7317   -1.5674 H         1 RES1    0.0000
     99 H19       -2.5012    2.4825    0.5659 H         1 RES1    0.0000
    100 H20       -2.9782    2.9739    2.8014 H         1 RES1    0.0000
    101 H21       -5.0709    3.5841    3.4509 H         1 RES1    0.0000
    102 H22       -6.7483    3.8058    1.8782 H         1 RES1    0.0000
    103 H23       -6.2942    3.4074   -0.3626 H         1 RES1    0.0000
    104 H24       -6.2975   -0.5713   -0.7452 H         1 RES1    0.0000
    105 H25       -6.0611   -1.9019   -1.5050 H         1 RES1    0.0000
    106 H26       -4.6720    0.1301    0.9511 H         1 RES1    0.0000
    107 H27       -3.3568   -0.5789    2.6606 H         1 RES1    0.0000
    108 H28       -2.6563   -2.7876    2.7071 H         1 RES1    0.0000
    109 H29       -3.2691   -4.2193    1.1569 H         1 RES1    0.0000
    110 H30       -4.5978   -3.5245   -0.6296 H         1 RES1    0.0000
    111 H31       -5.3215   -2.2586   -6.0876 H         1 RES1    0.0000
    112 H32       -3.7984   -2.0412   -6.2788 H         1 RES1    0.0000
    113 H33       -5.1441   -4.7018   -6.0730 H         1 RES1    0.0000
    114 H34       -4.5604   -6.6158   -4.9160 H         1 RES1    0.0000
    115 H35       -3.3840   -6.5065   -2.9541 H         1 RES1    0.0000
    116 H36       -2.6215   -4.4514   -2.1824 H         1 RES1    0.0000
    117 H37       -3.2192   -2.5014   -3.3672 H         1 RES1    0.0000
    118 H38       -6.2664   -1.3254    6.2496 H         2 RES2    0.0000
    119 H39       -6.5248   -1.2892    2.7562 H         2 RES2    0.0000
    120 H40       -9.2789   -1.5917    3.1109 H         2 RES2    0.0000
    121 H41       -7.5892   -3.2948    1.6736 H         2 RES2    0.0000
    122 H42       -7.7704   -4.8433    3.3420 H         2 RES2    0.0000
    123 H43       -6.6684   -3.7757    5.0927 H         2 RES2    0.0000
    124 H44       -6.0504   -3.3787    3.7259 H         2 RES2    0.0000
    125 H45       -6.6270    0.6087    4.0579 H         2 RES2    0.0000
    126 H46       -7.4399    0.7910    2.7496 H         2 RES2    0.0000
    127 H47       -7.7203    1.9432    5.3889 H         2 RES2    0.0000
    128 H48       -9.2449    1.8112    5.6479 H         2 RES2    0.0000
    129 H49       -7.8936    4.3817    5.2215 H         2 RES2    0.0000
    130 H50       -8.2934    6.2020    3.8188 H         2 RES2    0.0000
    131 H51       -9.5527    5.9210    1.9088 H         2 RES2    0.0000
    132 H52      -10.2716    3.8142    1.2951 H         2 RES2    0.0000
    133 H53       -9.8711    2.0064    2.6632 H         2 RES2    0.0000
    134 H54      -10.3666   -0.1149    1.7201 H         2 RES2    0.0000
    135 H55      -10.4958   -1.4432    0.9298 H         2 RES2    0.0000
    136 H56      -11.6042   -0.8134   -1.0719 H         2 RES2    0.0000
    137 H57      -11.5592    0.4307   -3.0962 H         2 RES2    0.0000
    138 H58       -9.9519    2.0400   -3.4270 H         2 RES2    0.0000
    139 H59       -8.4564    2.5343   -1.7666 H         2 RES2    0.0000
    140 H60       -8.3947    1.2755    0.1607 H         2 RES2    0.0000
    141 H61       -8.7431   -5.4598    1.3828 H         2 RES2    0.0000
    142 H62      -10.1637   -5.2953    0.7810 H         2 RES2    0.0000
    143 H63       -9.6624   -2.9037   -0.9086 H         2 RES2    0.0000
    144 H64       -8.6607   -2.6130   -2.9674 H         2 RES2    0.0000
    145 H65       -7.3550   -4.1864   -3.8853 H         2 RES2    0.0000
    146 H66       -6.6918   -5.9939   -2.6101 H         2 RES2    0.0000
    147 H67       -7.5474   -6.2834   -0.4596 H         2 RES2    0.0000
    148 H68       -9.3149   -5.8748    4.5547 H         2 RES2    0.0000
    149 H69      -10.2993   -5.1802    3.5784 H         2 RES2    0.0000
    150 H70      -10.2408   -6.8075    6.3134 H         2 RES2    0.0000
    151 H71      -11.7834   -6.9013    8.0229 H         2 RES2    0.0000
    152 H72      -13.3642   -5.1033    8.1663 H         2 RES2    0.0000
    153 H73      -13.4083   -3.4370    6.6428 H         2 RES2    0.0000
    154 H74      -11.8285   -3.4255    4.9412 H         2 RES2    0.0000
@<TRIPOS>BOND
     1    1   11 1
     2    2   18 1
     3    3   14 1
     4    4   15 1
     5    5   16 1
     6    6   12 1
     7    7   52 1
     8    8   48 1
     9    9   49 1
    10   10   50 1
    11   11   13 1
    12   12   47 1
    13   13   14 1
    14   14   15 1
    15   15   16 1
    16   16   17 1
    17   17   11 1
    18   18   13 1
    19   19    2 1
    20   20   19 1
    21   21   20 ar
    22   22   21 ar
    23   23   22 ar
    24   24   23 ar
    25   25   20 ar
    26   26    3 1
    27   27   26 1
    28   28   27 ar
    29   29   28 ar
    30   30   29 ar
    31   31   30 ar
    32   32   27 ar
    33   33    4 1
    34   34   33 1
    35   35   34 ar
    36   36   35 ar
    37   37   36 ar
    38   38   37 ar
    39   39   34 ar
    40   40    5 1
    41   41   40 1
    42   42   41 ar
    43   43   42 ar
    44   44   43 ar
    45   45   44 ar
    46   46   41 ar
    47   47   48 1
    48   48   49 1
    49   49   50 1
    50   50   51 1
    51   51   12 1
    52   52   47 1
    53   53    7 1
    54   54   53 1
    55   55   54 ar
    56   56   55 ar
    57   57   56 ar
    58   58   57 ar
    59   59   54 ar
    60   60    8 1
    61   61   60 1
    62   62   61 ar
    63   63   62 ar
    64   64   63 ar
    65   65   64 ar
    66   66   61 ar
    67   67    9 1
    68   68   67 1
    69   69   68 ar
    70   70   69 ar
    71   71   70 ar
    72   72   71 ar
    73   73   68 ar
    74   74   10 1
    75   75   74 1
    76   76   75 ar
    77   77   76 ar
    78   78   77 ar
    79   79   78 ar
    80   80   75 ar
    81   81    1 1
    82   82   13 1
    83   83   14 1
    84   84   15 1
    85   85   16 1
    86   86   17 1
    87   87   17 1
    88   88   18 1
    89   89   18 1
    90   90   19 1
    91   91   19 1
    92   92   21 1
    93   93   22 1
    94   94   23 1
    95   95   24 1
    96   96   25 1
    97   97   26 1
    98   98   26 1
    99   99   28 1
   100  100   29 1
   101  101   30 1
   102  102   31 1
   103  103   32 1
   104  104   33 1
   105  105   33 1
   106  106   35 1
   107  107   36 1
   108  108   37 1
   109  109   38 1
   110  110   39 1
   111  111   40 1
   112  112   40 1
   113  113   42 1
   114  114   43 1
   115  115   44 1
   116  116   45 1
   117  117   46 1
   118  118    6 1
   119  119   47 1
   120  120   48 1
   121  121   49 1
   122  122   50 1
   123  123   51 1
   124  124   51 1
   125  125   52 1
   126  126   52 1
   127  127   53 1
   128  128   53 1
   129  129   55 1
   130  130   56 1
   131  131   57 1
   132  132   58 1
   133  133   59 1
   134  134   60 1
   135  135   60 1
   136  136   62 1
   137  137   63 1
   138  138   64 1
   139  139   65 1
   140  140   66 1
   141  141   67 1
   142  142   67 1
   143  143   69 1
   144  144   70 1
   145  145   71 1
   146  146   72 1
   147  147   73 1
   148  148   74 1
   149  149   74 1
   150  150   76 1
   151  151   77 1
   152  152   78 1
   153  153   79 1
   154  154   80 1
   155   24   25 ar
   156   31   32 ar
   157   38   39 ar
   158   45   46 ar
   159   58   59 ar
   160   65   66 ar
   161   72   73 ar
   162   79   80 ar
@<TRIPOS>SUBSTRUCTURE
     1 RES1 1
     2 RES2 6

@<TRIPOS>CRYSIN
   9.9470   12.1550   13.8640 100.9800  97.9400 109.5000   1 1

