# MOL2 file generated by ConQuest
# Please check atom types

@<TRIPOS>MOLECULE
XUKQAX
   121   122     2
SMALL
NO_CHARGES
****
Generated from CSD

@<TRIPOS>ATOM
      1 O1         3.8338    5.3574   14.0214 O.2       1 RES1    0.0000
      2 N1         4.9066    5.8565   14.2514 N.pl3     1 RES1    0.0000
      3 O2         5.3353    5.9698   15.3886 O.2       1 RES1    0.0000
      4 C1         5.7880    6.1764   13.1311 C.ar      1 RES1    0.0000
      5 N2         7.6252    7.3950   12.2185 N.ar      1 RES1    0.0000
      6 C2         5.5542    5.5429   11.9248 C.ar      1 RES1    0.0000
      7 H1         4.8466    4.9154   11.8276 H         1 RES1    0.0000
      8 C3         6.3850    5.8550   10.8606 C.ar      1 RES1    0.0000
      9 H2         6.2572    5.4417   10.0134 H         1 RES1    0.0000
     10 C4         7.3865    6.7599   11.0421 C.ar      1 RES1    0.0000
     11 C5         6.7875    7.1540   13.2359 C.ar      1 RES1    0.0000
     12 O3         6.9323    7.8745   14.3730 O.3       1 RES1    0.0000
     13 C6         7.9174    8.9360   14.4160 C.3       1 RES1    0.0000
     14 H3         8.1582    9.2049   13.4940 H         1 RES1    0.0000
     15 H4         8.7371    8.6139   14.8686 H         1 RES1    0.0000
     16 C7         7.3652   10.0983   15.1473 C.2       1 RES1    0.0000
     17 O4         6.2744   10.1626   15.7476 O.2       1 RES1    0.0000
     18 O5         8.3356   10.9719   15.3455 O.3       1 RES1    0.0000
     19 C8         8.0976   12.3151   15.8935 C.3       1 RES1    0.0000
     20 C9         7.6413   12.1972   17.3261 C.3       1 RES1    0.0000
     21 H5         6.7713   11.7475   17.3561 H         1 RES1    0.0000
     22 H6         7.5602   13.0917   17.7189 H         1 RES1    0.0000
     23 H7         8.2958   11.6755   17.8367 H         1 RES1    0.0000
     24 C10        7.0645   13.0365   15.0332 C.3       1 RES1    0.0000
     25 H8         7.3072   12.9485   14.0887 H         1 RES1    0.0000
     26 H9         7.0397   13.9850   15.2782 H         1 RES1    0.0000
     27 H10        6.1806   12.6380   15.1828 H         1 RES1    0.0000
     28 C11        9.4353   12.9870   15.7907 C.3       1 RES1    0.0000
     29 H11       10.0983   12.4718   16.2975 H         1 RES1    0.0000
     30 H12        9.3747   13.8931   16.1591 H         1 RES1    0.0000
     31 H13        9.7059   13.0343   14.8518 H         1 RES1    0.0000
     32 C12        8.3215    7.1528    9.9236 C.2       1 RES1    0.0000
     33 O6         8.1152    6.7678    8.7716 O.2       1 RES1    0.0000
     34 N3         9.3224    7.9491   10.3126 N.am      1 RES1    0.0000
     35 H14        9.3601    8.1819   11.1281 H         1 RES1    0.0000
     36 C13       10.3360    8.5557    9.5552 C.ar      1 RES1    0.0000
     37 C14       10.4683    8.4675    8.1768 C.ar      1 RES1    0.0000
     38 H15        9.8567    7.9641    7.6531 H         1 RES1    0.0000
     39 C15       11.5354    9.1469    7.5914 C.ar      1 RES1    0.0000
     40 H16       11.6546    9.1189    6.6488 H         1 RES1    0.0000
     41 C16       12.4099    9.8511    8.3657 C.ar      1 RES1    0.0000
     42 N4        12.2771    9.9671    9.7160 N.ar      1 RES1    0.0000
     43 C17       11.2782    9.3154   10.2696 C.ar      1 RES1    0.0000
     44 O7        11.0709    9.3725   11.6127 O.3       1 RES1    0.0000
     45 C18       11.9956   10.1725   12.3830 C.3       1 RES1    0.0000
     46 H17       12.0486   11.0869   12.0071 H         1 RES1    0.0000
     47 H18       12.8994    9.7686   12.3550 H         1 RES1    0.0000
     48 C19       11.4961   10.2244   13.8044 C.3       1 RES1    0.0000
     49 H19       10.5517   10.5186   13.7951 H         1 RES1    0.0000
     50 H20       12.0171   10.9082   14.2963 H         1 RES1    0.0000
     51 C20       11.5881    8.9124   14.5582 C.3       1 RES1    0.0000
     52 H21       11.0397    8.2409   14.0812 H         1 RES1    0.0000
     53 H22       11.1862    9.0410   15.4540 H         1 RES1    0.0000
     54 C21       13.0028    8.3390   14.7414 C.3       1 RES1    0.0000
     55 H23       12.9402    7.5093   15.2782 H         1 RES1    0.0000
     56 H24       13.3609    8.0929   13.8512 H         1 RES1    0.0000
     57 C22       13.9806    9.2746   15.4129 C.3       1 RES1    0.0000
     58 H25       14.1068   10.0698   14.8350 H         1 RES1    0.0000
     59 H26       14.8552    8.8181   15.4895 H         1 RES1    0.0000
     60 C23       13.5459    9.7402   16.8025 C.3       1 RES1    0.0000
     61 H27       12.7377   10.3043   16.7052 H         1 RES1    0.0000
     62 H28       14.2629   10.3107   17.1803 H         1 RES1    0.0000
     63 C24       13.2396    8.6213   17.8031 C.3       1 RES1    0.0000
     64 H29       12.9599    9.0304   18.6596 H         1 RES1    0.0000
     65 H30       12.4779    8.0907   17.4608 H         1 RES1    0.0000
     66 C25       14.4010    7.6896   18.0668 C.3       1 RES1    0.0000
     67 H31       15.1752    8.2229   18.3754 H         1 RES1    0.0000
     68 H32       14.6574    7.2502   17.2177 H         1 RES1    0.0000
     69 C26       14.0940    6.6118   19.1085 C.3       1 RES1    0.0000
     70 H33       14.9415    6.1616   19.3498 H         1 RES1    0.0000
     71 H34       13.7510    7.0561   19.9239 H         1 RES1    0.0000
     72 C27       13.0907    5.5499   18.6840 C.3       1 RES1    0.0000
     73 H35       13.3774    5.1776   17.8124 H         1 RES1    0.0000
     74 H36       12.2124    5.9846   18.5474 H         1 RES1    0.0000
     75 C28       12.9129    4.3991   19.6677 C.3       1 RES1    0.0000
     76 H37       13.7658    3.9010   19.7388 H         1 RES1    0.0000
     77 H38       12.7041    4.7685   20.5617 H         1 RES1    0.0000
     78 C29       11.8142    3.4357   19.2656 C.3       1 RES1    0.0000
     79 H39       12.0322    3.0362   18.3978 H         1 RES1    0.0000
     80 H40       10.9643    3.9196   19.1983 H         1 RES1    0.0000
     81 H41       11.7351    2.7295   19.9389 H         1 RES1    0.0000
     82 C30       13.5765   10.6124    7.7878 C.2       1 RES1    0.0000
     83 O8        13.8251   10.5700    6.5908 O.2       1 RES1    0.0000
     84 N5        14.3007   11.2964    8.7098 N.am      1 RES1    0.0000
     85 H42       14.0173   11.2588    9.4635 H         1 RES1    0.0000
     86 C31       15.3978   12.0817    8.4929 C.ar      1 RES1    0.0000
     87 C32       16.1264   12.1869    7.3221 C.ar      1 RES1    0.0000
     88 H43       15.8883   11.6695    6.5609 H         1 RES1    0.0000
     89 C33       17.2012   13.0493    7.2660 C.ar      1 RES1    0.0000
     90 H44       17.6679   13.1719    6.4487 H         1 RES1    0.0000
     91 C34       17.6030   13.7382    8.4012 C.ar      1 RES1    0.0000
     92 N6        16.9237   13.6038    9.5851 N.ar      1 RES1    0.0000
     93 C35       15.9064   12.8213    9.6001 C.ar      1 RES1    0.0000
     94 O9        15.1848   12.6679   10.7602 O.3       1 RES1    0.0000
     95 C36       15.6096   13.5271   11.8481 C.3       1 RES1    0.0000
     96 H45       15.7447   14.4511   11.5208 H         1 RES1    0.0000
     97 H46       16.4640   13.2004   12.2278 H         1 RES1    0.0000
     98 C37       14.5289   13.5004   12.8992 C.2       1 RES1    0.0000
     99 O10       13.6090   12.7585   12.9292 O.2       1 RES1    0.0000
    100 O11       14.8458   14.4421   13.7932 O.3       1 RES1    0.0000
    101 C38       13.9426   14.7417   14.9247 C.3       1 RES1    0.0000
    102 C39       13.8363   13.5285   15.8355 C.3       1 RES1    0.0000
    103 H47       13.3896   12.7993   15.3586 H         1 RES1    0.0000
    104 H48       13.3181   13.7643   16.6342 H         1 RES1    0.0000
    105 H49       14.7351   13.2423   16.1030 H         1 RES1    0.0000
    106 C40       12.6099   15.2081   14.3693 C.3       1 RES1    0.0000
    107 H50       12.7655   15.8679   13.6604 H         1 RES1    0.0000
    108 H51       12.0824   15.6179   15.0856 H         1 RES1    0.0000
    109 H52       12.1227   14.4415   14.0008 H         1 RES1    0.0000
    110 C41       14.6731   15.8576   15.6186 C.3       1 RES1    0.0000
    111 H53       15.5953   15.5807   15.7981 H         1 RES1    0.0000
    112 H54       14.2226   16.0648   16.4640 H         1 RES1    0.0000
    113 H55       14.6749   16.6529   15.0463 H         1 RES1    0.0000
    114 C42       18.7230   14.7085    8.4630 C.2       1 RES1    0.0000
    115 O12       19.1731   14.9976    7.2136 O.3       1 RES1    0.0000
    116 O13       19.2112   15.1572    9.4617 O.2       1 RES1    0.0000
    117 C43       20.1894   16.0116    7.1556 C.3       1 RES1    0.0000
    118 H56       20.3484   16.2606    6.2205 H         1 RES1    0.0000
    119 H57       21.0181   15.6665    7.5484 H         1 RES1    0.0000
    120 H58       19.8930   16.7991    7.6587 H         1 RES1    0.0000
    121 O14        6.1805   10.3262   15.1492 Du        2 SUP2    0.0000
@<TRIPOS>BOND
     1    1    2 2
     2    2    3 2
     3    4    2 1
     4    5   10 ar
     5    6    4 ar
     6    7    6 1
     7    8    6 ar
     8    9    8 1
     9   10    8 ar
    10   11    4 ar
    11   12   11 1
    12   13   12 1
    13   14   13 1
    14   15   13 1
    15   16   13 1
    16   17   16 2
    17   18   16 1
    18   19   18 1
    19   20   19 1
    20   21   20 1
    21   22   20 1
    22   23   20 1
    23   24   19 1
    24   25   24 1
    25   26   24 1
    26   27   24 1
    27   28   19 1
    28   29   28 1
    29   30   28 1
    30   31   28 1
    31   32   10 1
    32   33   32 2
    33   34   32 1
    34   35   34 1
    35   36   34 1
    36   37   36 ar
    37   38   37 1
    38   39   37 ar
    39   40   39 1
    40   41   39 ar
    41   42   41 ar
    42   43   36 ar
    43   44   43 1
    44   45   44 1
    45   46   45 1
    46   47   45 1
    47   48   45 1
    48   49   48 1
    49   50   48 1
    50   51   48 1
    51   52   51 1
    52   53   51 1
    53   54   51 1
    54   55   54 1
    55   56   54 1
    56   57   54 1
    57   58   57 1
    58   59   57 1
    59   60   57 1
    60   61   60 1
    61   62   60 1
    62   63   60 1
    63   64   63 1
    64   65   63 1
    65   66   63 1
    66   67   66 1
    67   68   66 1
    68   69   66 1
    69   70   69 1
    70   71   69 1
    71   72   69 1
    72   73   72 1
    73   74   72 1
    74   75   72 1
    75   76   75 1
    76   77   75 1
    77   78   75 1
    78   79   78 1
    79   80   78 1
    80   81   78 1
    81   82   41 1
    82   83   82 2
    83   84   82 1
    84   85   84 1
    85   86   84 1
    86   87   86 ar
    87   88   87 1
    88   89   87 ar
    89   90   89 1
    90   91   89 ar
    91   92   91 ar
    92   93   86 ar
    93   94   93 1
    94   95   94 1
    95   96   95 1
    96   97   95 1
    97   98   95 1
    98   99   98 2
    99  100   98 1
   100  101  100 1
   101  102  101 1
   102  103  102 1
   103  104  102 1
   104  105  102 1
   105  106  101 1
   106  107  106 1
   107  108  106 1
   108  109  106 1
   109  110  101 1
   110  111  110 1
   111  112  110 1
   112  113  110 1
   113  114   91 1
   114  115  114 1
   115  116  114 2
   116  117  115 1
   117  118  117 1
   118  119  117 1
   119  120  117 1
   120    5   11 ar
   121   42   43 ar
   122   92   93 ar
@<TRIPOS>SUBSTRUCTURE
     1 RES1 1
     2 SUP2 121

@<TRIPOS>CRYSIN
  10.9793   11.6232   18.9281  85.9970  81.2090  69.7080   2 1

