# MOL2 file generated by ConQuest
# Please check atom types

@<TRIPOS>MOLECULE
XUKQEB
   200   206     2
SMALL
NO_CHARGES
****
Generated from CSD

@<TRIPOS>ATOM
      1 O1        -7.7183  -14.1966   23.0129 O.2       1 RES1    0.0000
      2 N1        -7.2888  -14.1910   21.8743 N.pl3     1 RES1    0.0000
      3 O2        -7.4885  -15.0877   21.1403 O.2       1 RES1    0.0000
      4 C1        -6.5199  -13.0279   21.4682 C.ar      1 RES1    0.0000
      5 C2        -6.0245  -12.1848   22.4548 C.ar      1 RES1    0.0000
      6 H1        -6.1916  -12.3688   23.3727 H         1 RES1    0.0000
      7 C3        -5.2993  -11.0917   22.0886 C.ar      1 RES1    0.0000
      8 H2        -4.9744  -10.4830   22.7411 H         1 RES1    0.0000
      9 C4        -5.0469  -10.8935   20.7518 C.ar      1 RES1    0.0000
     10 N2        -5.5065  -11.6965   19.7763 N.ar      1 RES1    0.0000
     11 C5        -6.2245  -12.7488   20.1233 C.ar      1 RES1    0.0000
     12 O3        -6.7285  -13.5588   19.1494 O.3       1 RES1    0.0000
     13 O4        -3.7895   -8.9447   21.1931 O.2       1 RES1    0.0000
     14 C6        -6.2918  -13.2960   17.8030 C.3       1 RES1    0.0000
     15 H3        -6.4555  -12.3413   17.5919 H         1 RES1    0.0000
     16 H4        -6.8345  -13.8392   17.1777 H         1 RES1    0.0000
     17 C7        -4.8121  -13.6057   17.5711 C.2       1 RES1    0.0000
     18 O5        -4.2808  -13.2591   16.5493 O.2       1 RES1    0.0000
     19 O6        -4.2632  -14.2589   18.5722 O.3       1 RES1    0.0000
     20 C8        -2.8003  -14.4876   18.6073 C.3       1 RES1    0.0000
     21 C9        -2.6043  -15.1153   19.9570 C.3       1 RES1    0.0000
     22 H5        -2.9281  -14.5030   20.6510 H         1 RES1    0.0000
     23 H6        -1.6512  -15.2954   20.0977 H         1 RES1    0.0000
     24 H7        -3.1069  -15.9555   20.0034 H         1 RES1    0.0000
     25 C10       -2.0992  -13.1440   18.5418 C.3       1 RES1    0.0000
     26 H8        -2.2231  -12.7537   17.6511 H         1 RES1    0.0000
     27 H9        -1.1416  -13.2661   18.7129 H         1 RES1    0.0000
     28 H10       -2.4777  -12.5441   19.2182 H         1 RES1    0.0000
     29 C11       -2.3945  -15.4171   17.4880 C.3       1 RES1    0.0000
     30 H11       -2.9429  -16.2292   17.5231 H         1 RES1    0.0000
     31 H12       -1.4500  -15.6564   17.5903 H         1 RES1    0.0000
     32 H13       -2.5283  -14.9688   16.6276 H         1 RES1    0.0000
     33 C12       -4.2457   -9.6855   20.3312 C.2       1 RES1    0.0000
     34 N3        -4.0978   -9.5198   18.9943 N.am      1 RES1    0.0000
     35 H14       -4.4447  -10.1373   18.4730 H         1 RES1    0.0000
     36 C13       -3.4374   -8.4485   18.3643 C.ar      1 RES1    0.0000
     37 C14       -2.8263   -7.4029   18.9831 C.ar      1 RES1    0.0000
     38 H15       -2.8332   -7.3416   19.9314 H         1 RES1    0.0000
     39 C15       -2.1986   -6.4341   18.2395 C.ar      1 RES1    0.0000
     40 H16       -1.7592   -5.7077   18.6665 H         1 RES1    0.0000
     41 C16       -2.2114   -6.5289   16.8611 C.ar      1 RES1    0.0000
     42 N4        -2.8219   -7.5661   16.2262 N.ar      1 RES1    0.0000
     43 C17       -3.4022   -8.4862   16.9363 C.ar      1 RES1    0.0000
     44 O7        -4.0153   -9.5404   16.3478 O.3       1 RES1    0.0000
     45 C18       -3.7312   -9.7485   14.9166 C.3       1 RES1    0.0000
     46 H17       -3.7854   -8.8698   14.4416 H         1 RES1    0.0000
     47 C19       -2.3339  -10.3107   14.7535 C.3       1 RES1    0.0000
     48 H18       -2.2603  -11.1721   15.2348 H         1 RES1    0.0000
     49 H19       -1.6723   -9.6823   15.1388 H         1 RES1    0.0000
     50 C20       -2.0415  -10.5202   13.2791 C.3       1 RES1    0.0000
     51 H20       -1.1456  -10.9292   13.1767 H         1 RES1    0.0000
     52 H21       -2.0320   -9.6446   12.8185 H         1 RES1    0.0000
     53 C21       -3.0809  -11.4197   12.6298 C.3       1 RES1    0.0000
     54 H22       -3.0022  -12.3330   13.0024 H         1 RES1    0.0000
     55 H23       -2.9087  -11.4699   11.6560 H         1 RES1    0.0000
     56 C22       -4.4930  -10.9034   12.8633 C.3       1 RES1    0.0000
     57 H24       -5.1435  -11.5568   12.5035 H         1 RES1    0.0000
     58 H25       -4.6157  -10.0509   12.3740 H         1 RES1    0.0000
     59 C23       -4.7763  -10.6752   14.3553 C.3       1 RES1    0.0000
     60 H26       -5.6749  -10.2779   14.4704 H         1 RES1    0.0000
     61 H27       -4.7527  -11.5397   14.8366 H         1 RES1    0.0000
     62 C24       -1.5363   -5.5201   16.0072 C.2       1 RES1    0.0000
     63 O8        -0.9258   -4.5663   16.4629 O.2       1 RES1    0.0000
     64 N5        -1.7158   -5.7458   14.6559 N.am      1 RES1    0.0000
     65 H28       -2.2169   -6.4375   14.4416 H         1 RES1    0.0000
     66 C25       -1.1995   -5.0120   13.5973 C.ar      1 RES1    0.0000
     67 C26       -0.4299   -3.8628   13.7092 C.ar      1 RES1    0.0000
     68 H29       -0.2359   -3.4847   14.5584 H         1 RES1    0.0000
     69 C27        0.0442   -3.2930   12.5611 C.ar      1 RES1    0.0000
     70 H30        0.5703   -2.5042   12.6154 H         1 RES1    0.0000
     71 C28       -0.2261   -3.8413   11.3298 C.ar      1 RES1    0.0000
     72 N6        -1.0003   -4.9531   11.2066 N.ar      1 RES1    0.0000
     73 C29       -1.4684   -5.4835   12.2956 C.ar      1 RES1    0.0000
     74 O9        -2.2750   -6.5818   12.2237 O.3       1 RES1    0.0000
     75 C30       -2.3381   -7.1895   10.9220 C.3       1 RES1    0.0000
     76 H31       -2.5807   -6.5082   10.2455 H         1 RES1    0.0000
     77 H32       -3.0350   -7.8923   10.9156 H         1 RES1    0.0000
     78 C31       -0.9712   -7.8101   10.5686 C.2       1 RES1    0.0000
     79 O10       -0.8672   -8.0563    9.3005 O.3       1 RES1    0.0000
     80 O11       -0.1182   -7.9701   11.4097 O.2       1 RES1    0.0000
     81 C32        0.4141   -8.5447    8.7312 C.3       1 RES1    0.0000
     82 C33        0.6940   -9.9145    9.3788 C.3       1 RES1    0.0000
     83 H33        0.9567   -9.7857   10.3143 H         1 RES1    0.0000
     84 H34        1.4197  -10.3629    8.8959 H         1 RES1    0.0000
     85 H35       -0.1145  -10.4666    9.3388 H         1 RES1    0.0000
     86 C34        1.5160   -7.5092    8.9838 C.3       1 RES1    0.0000
     87 H36        1.1832   -6.6147    8.7584 H         1 RES1    0.0000
     88 H37        2.2949   -7.7178    8.4258 H         1 RES1    0.0000
     89 H38        1.7763   -7.5316    9.9289 H         1 RES1    0.0000
     90 C35        0.1223   -8.6811    7.2808 C.3       1 RES1    0.0000
     91 H39       -0.6731   -9.2412    7.1593 H         1 RES1    0.0000
     92 H40        0.8866   -9.0977    6.8314 H         1 RES1    0.0000
     93 H41       -0.0408   -7.7963    6.8954 H         1 RES1    0.0000
     94 C36        0.2893   -3.3044   10.0505 C.2       1 RES1    0.0000
     95 O12        0.9249   -2.1380   10.1976 O.3       1 RES1    0.0000
     96 O13        0.1710   -3.8601    8.9790 O.2       1 RES1    0.0000
     97 C37        1.5270   -1.5921    9.0046 C.3       1 RES1    0.0000
     98 H42        0.8488   -1.5171    8.3026 H         1 RES1    0.0000
     99 H43        2.2474   -2.1838    8.7024 H         1 RES1    0.0000
    100 H44        1.8941   -0.7056    9.2013 H         1 RES1    0.0000
    101 O14        5.8733    2.2268   10.0904 O.2       2 RES2    0.0000
    102 N7         6.6100    1.2369   10.0217 N.pl3     2 RES2    0.0000
    103 O15        7.7101    1.3011    9.7162 O.2       2 RES2    0.0000
    104 C38        5.9666   -0.0831   10.3223 C.ar      2 RES2    0.0000
    105 C39        5.6408   -0.9409    9.3197 C.ar      2 RES2    0.0000
    106 H45        5.8523   -0.7479    8.4130 H         2 RES2    0.0000
    107 C40        4.9812   -2.1148    9.6795 C.ar      2 RES2    0.0000
    108 H46        4.7378   -2.7607    9.0270 H         2 RES2    0.0000
    109 C41        4.6917   -2.3136   11.0211 C.ar      2 RES2    0.0000
    110 N8         5.0642   -1.4576   12.0030 N.ar      2 RES2    0.0000
    111 C42        5.7106   -0.3678   11.6480 C.ar      2 RES2    0.0000
    112 O16        6.1331    0.4991   12.6010 O.3       2 RES2    0.0000
    113 C43        5.7396    0.2536   13.9507 C.3       2 RES2    0.0000
    114 H47        6.2467    0.8602   14.5472 H         2 RES2    0.0000
    115 H48        5.9799   -0.6750   14.1906 H         2 RES2    0.0000
    116 C44        4.2411    0.4580   14.1970 C.2       2 RES2    0.0000
    117 O17        3.7334    0.0521   15.2092 O.2       2 RES2    0.0000
    118 O18        3.6733    1.1212   13.2119 O.3       2 RES2    0.0000
    119 C45        2.2162    1.3735   13.1831 C.3       2 RES2    0.0000
    120 C46        1.5264    0.0190   13.1703 C.3       2 RES2    0.0000
    121 H49        1.9017   -0.5312   12.4507 H         2 RES2    0.0000
    122 H50        0.5670    0.1429   13.0200 H         2 RES2    0.0000
    123 H51        1.6676   -0.4278   14.0307 H         2 RES2    0.0000
    124 C47        2.0348    2.0576   11.8607 C.3       2 RES2    0.0000
    125 H52        2.5530    2.8893   11.8479 H         2 RES2    0.0000
    126 H53        1.0858    2.2612   11.7263 H         2 RES2    0.0000
    127 H54        2.3464    1.4686   11.1411 H         2 RES2    0.0000
    128 C48        1.8059    2.2191   14.3569 C.3       2 RES2    0.0000
    129 H55        1.9409    1.7143   15.1868 H         2 RES2    0.0000
    130 H56        0.8589    2.4570   14.2721 H         2 RES2    0.0000
    131 H57        2.3471    3.0341   14.3793 H         2 RES2    0.0000
    132 C49        3.9164   -3.5258   11.4193 C.2       2 RES2    0.0000
    133 O19        3.4594   -4.3046   10.5702 O.2       2 RES2    0.0000
    134 N9         3.7463   -3.6910   12.7514 N.am      2 RES2    0.0000
    135 H58        4.1020   -3.0722   13.2663 H         2 RES2    0.0000
    136 C50        3.0864   -4.7028   13.3942 C.ar      2 RES2    0.0000
    137 C51        2.3859   -5.7265   12.8105 C.ar      2 RES2    0.0000
    138 H59        2.3352   -5.7755   11.8623 H         2 RES2    0.0000
    139 C52        1.7604   -6.6774   13.5701 C.ar      2 RES2    0.0000
    140 H60        1.2795   -7.3868   13.1607 H         2 RES2    0.0000
    141 C53        1.8450   -6.5807   14.9581 C.ar      2 RES2    0.0000
    142 N10        2.5304   -5.5951   15.5658 N.ar      2 RES2    0.0000
    143 C54        3.1269   -4.6842   14.8270 C.ar      2 RES2    0.0000
    144 O20        3.8146   -3.6846   15.3915 O.3       2 RES2    0.0000
    145 C55        3.8115   -3.5955   16.8403 C.3       2 RES2    0.0000
    146 H61        3.9106   -4.5145   17.2225 H         2 RES2    0.0000
    147 C56        2.5165   -2.9920   17.3440 C.3       2 RES2    0.0000
    148 H62        1.7475   -3.5409   17.0466 H         2 RES2    0.0000
    149 H63        2.4057   -2.0767   16.9810 H         2 RES2    0.0000
    150 C57        2.5647   -2.9459   18.8776 C.3       2 RES2    0.0000
    151 H64        2.5876   -3.8684   19.2358 H         2 RES2    0.0000
    152 H65        1.7478   -2.5052   19.2214 H         2 RES2    0.0000
    153 C58        3.8078   -2.1759   19.3685 C.3       2 RES2    0.0000
    154 H66        3.7172   -1.2190   19.1239 H         2 RES2    0.0000
    155 H67        3.8622   -2.2349   20.3552 H         2 RES2    0.0000
    156 C59        5.0707   -2.7289   18.7625 C.3       2 RES2    0.0000
    157 H68        5.2207   -3.6454   19.1031 H         2 RES2    0.0000
    158 H69        5.8391   -2.1708   19.0423 H         2 RES2    0.0000
    159 C60        5.0023   -2.7622   17.2529 C.3       2 RES2    0.0000
    160 H70        4.9093   -1.8418   16.8995 H         2 RES2    0.0000
    161 H71        5.8324   -3.1554   16.8851 H         2 RES2    0.0000
    162 C61        1.1644   -7.5757   15.8089 C.2       2 RES2    0.0000
    163 O21        0.4598   -8.4778   15.3659 O.2       2 RES2    0.0000
    164 N11        1.3482   -7.3901   17.1633 N.am      2 RES2    0.0000
    165 H72        1.8573   -6.7086   17.3904 H         2 RES2    0.0000
    166 C62        0.8444   -8.1266   18.1996 C.ar      2 RES2    0.0000
    167 C63        0.0772   -9.2647   18.0908 C.ar      2 RES2    0.0000
    168 H73       -0.1410   -9.6062   17.2321 H         2 RES2    0.0000
    169 C64       -0.3743   -9.9126   19.2262 C.ar      2 RES2    0.0000
    170 H74       -0.8836  -10.7122   19.1574 H         2 RES2    0.0000
    171 C65       -0.0693   -9.3727   20.4735 C.ar      2 RES2    0.0000
    172 N12        0.6804   -8.2666   20.6062 N.ar      2 RES2    0.0000
    173 C66        1.1261   -7.7071   19.5284 C.ar      2 RES2    0.0000
    174 O22        1.9386   -6.6170   19.6196 O.3       2 RES2    0.0000
    175 C67        2.4374   -6.3229   20.9021 C.3       2 RES2    0.0000
    176 H75        2.7773   -7.1647   21.2955 H         2 RES2    0.0000
    177 H76        3.2128   -5.7164   20.7949 H         2 RES2    0.0000
    178 C68        1.5632   -5.7382   21.8280 C.2       2 RES2    0.0000
    179 O23        1.8865   -5.7325   23.0833 O.2       2 RES2    0.0000
    180 O24        0.4413   -5.2697   21.3642 O.3       2 RES2    0.0000
    181 C69       -0.4985   -4.5551   22.3045 C.3       2 RES2    0.0000
    182 C70        0.1512   -3.2522   22.8082 C.3       2 RES2    0.0000
    183 H77        0.7673   -3.4571   23.5422 H         2 RES2    0.0000
    184 H78       -0.5477   -2.6425   23.1296 H         2 RES2    0.0000
    185 H79        0.6429   -2.8283   22.0758 H         2 RES2    0.0000
    186 C71       -1.0814   -5.4297   23.3167 C.3       2 RES2    0.0000
    187 H80       -2.0424   -5.5192   23.1552 H         2 RES2    0.0000
    188 H81       -0.9334   -5.0442   24.2058 H         2 RES2    0.0000
    189 H82       -0.6578   -6.3110   23.2688 H         2 RES2    0.0000
    190 C72       -1.6105   -4.1885   21.2971 C.3       2 RES2    0.0000
    191 H83       -1.2099   -3.7833   20.5007 H         2 RES2    0.0000
    192 H84       -2.2304   -3.5524   21.7112 H         2 RES2    0.0000
    193 H85       -2.0988   -4.9999   21.0412 H         2 RES2    0.0000
    194 C73       -0.5694   -9.9544   21.7240 C.2       2 RES2    0.0000
    195 O25       -0.4534   -9.4445   22.8226 O.2       2 RES2    0.0000
    196 O26       -1.1643  -11.1441   21.5593 O.3       2 RES2    0.0000
    197 C74       -1.7169  -11.7686   22.7443 C.3       2 RES2    0.0000
    198 H86       -2.0860  -12.6454   22.5108 H         2 RES2    0.0000
    199 H87       -2.4281  -11.2030   23.1105 H         2 RES2    0.0000
    200 H88       -1.0115  -11.8799   23.4159 H         2 RES2    0.0000
@<TRIPOS>BOND
     1    1    2 2
     2    2    3 2
     3    4    2 1
     4    5    4 ar
     5    6    5 1
     6    7    5 ar
     7    8    7 1
     8    9    7 ar
     9   10    9 ar
    10   11    4 ar
    11   12   11 1
    12   13   33 2
    13   14   12 1
    14   15   14 1
    15   16   14 1
    16   17   14 1
    17   18   17 2
    18   19   17 1
    19   20   19 1
    20   21   20 1
    21   22   21 1
    22   23   21 1
    23   24   21 1
    24   25   20 1
    25   26   25 1
    26   27   25 1
    27   28   25 1
    28   29   20 1
    29   30   29 1
    30   31   29 1
    31   32   29 1
    32   33    9 1
    33   34   33 1
    34   35   34 1
    35   36   34 1
    36   37   36 ar
    37   38   37 1
    38   39   37 ar
    39   40   39 1
    40   41   39 ar
    41   42   41 ar
    42   43   36 ar
    43   44   43 1
    44   45   44 1
    45   46   45 1
    46   47   45 1
    47   48   47 1
    48   49   47 1
    49   50   47 1
    50   51   50 1
    51   52   50 1
    52   53   50 1
    53   54   53 1
    54   55   53 1
    55   56   53 1
    56   57   56 1
    57   58   56 1
    58   59   45 1
    59   60   59 1
    60   61   59 1
    61   62   41 1
    62   63   62 2
    63   64   62 1
    64   65   64 1
    65   66   64 1
    66   67   66 ar
    67   68   67 1
    68   69   67 ar
    69   70   69 1
    70   71   69 ar
    71   72   71 ar
    72   73   66 ar
    73   74   73 1
    74   75   74 1
    75   76   75 1
    76   77   75 1
    77   78   75 1
    78   79   78 1
    79   80   78 2
    80   81   79 1
    81   82   81 1
    82   83   82 1
    83   84   82 1
    84   85   82 1
    85   86   81 1
    86   87   86 1
    87   88   86 1
    88   89   86 1
    89   90   81 1
    90   91   90 1
    91   92   90 1
    92   93   90 1
    93   94   71 1
    94   95   94 1
    95   96   94 2
    96   97   95 1
    97   98   97 1
    98   99   97 1
    99  100   97 1
   100  101  102 2
   101  102  103 2
   102  104  102 1
   103  105  104 ar
   104  106  105 1
   105  107  105 ar
   106  108  107 1
   107  109  107 ar
   108  110  109 ar
   109  111  104 ar
   110  112  111 1
   111  113  112 1
   112  114  113 1
   113  115  113 1
   114  116  113 1
   115  117  116 2
   116  118  116 1
   117  119  118 1
   118  120  119 1
   119  121  120 1
   120  122  120 1
   121  123  120 1
   122  124  119 1
   123  125  124 1
   124  126  124 1
   125  127  124 1
   126  128  119 1
   127  129  128 1
   128  130  128 1
   129  131  128 1
   130  132  109 1
   131  133  132 2
   132  134  132 1
   133  135  134 1
   134  136  134 1
   135  137  136 ar
   136  138  137 1
   137  139  137 ar
   138  140  139 1
   139  141  139 ar
   140  142  141 ar
   141  143  136 ar
   142  144  143 1
   143  145  144 1
   144  146  145 1
   145  147  145 1
   146  148  147 1
   147  149  147 1
   148  150  147 1
   149  151  150 1
   150  152  150 1
   151  153  150 1
   152  154  153 1
   153  155  153 1
   154  156  153 1
   155  157  156 1
   156  158  156 1
   157  159  145 1
   158  160  159 1
   159  161  159 1
   160  162  141 1
   161  163  162 2
   162  164  162 1
   163  165  164 1
   164  166  164 1
   165  167  166 ar
   166  168  167 1
   167  169  167 ar
   168  170  169 1
   169  171  169 ar
   170  172  171 ar
   171  173  166 ar
   172  174  173 1
   173  175  174 1
   174  176  175 1
   175  177  175 1
   176  178  175 1
   177  179  178 2
   178  180  178 1
   179  181  180 1
   180  182  181 1
   181  183  182 1
   182  184  182 1
   183  185  182 1
   184  186  181 1
   185  187  186 1
   186  188  186 1
   187  189  186 1
   188  190  181 1
   189  191  190 1
   190  192  190 1
   191  193  190 1
   192  194  171 1
   193  195  194 2
   194  196  194 1
   195  197  196 1
   196  198  197 1
   197  199  197 1
   198  200  197 1
   199   10   11 ar
   200   42   43 ar
   201   56   59 1
   202   72   73 ar
   203  110  111 ar
   204  142  143 ar
   205  156  159 1
   206  172  173 ar
@<TRIPOS>SUBSTRUCTURE
     1 RES1 1
     2 RES2 101

@<TRIPOS>CRYSIN
  16.0057   16.5652   17.9631 105.8650 104.0470 110.9240   2 1

