# MOL2 file generated by ConQuest
# Please check atom types

@<TRIPOS>MOLECULE
XULKUK
    30    32     2
SMALL
NO_CHARGES
****
Generated from CSD

@<TRIPOS>ATOM
      1 O1         2.2915    1.7299   13.3353 O.3       1 RES1    0.0000
      2 N1         3.6955    1.9416   13.2393 N.2       1 RES1    0.0000
      3 C1         4.2231    2.2881   14.3197 C.2       1 RES1    0.0000
      4 C2         3.4754    2.5584   15.5548 C.ar      1 RES1    0.0000
      5 C3         3.7970    1.9014   16.7605 C.ar      1 RES1    0.0000
      6 C4         3.0817    2.1826   17.9156 C.ar      1 RES1    0.0000
      7 C5         2.1128    3.0999   17.8889 C.ar      1 RES1    0.0000
      8 C6         1.7915    3.7585   16.7525 C.ar      1 RES1    0.0000
      9 C7         2.4732    3.4681   15.6055 C.ar      1 RES1    0.0000
     10 C8         5.6906    2.4730   14.3144 C.ar      1 RES1    0.0000
     11 C9         6.3092    3.4104   15.1306 C.ar      1 RES1    0.0000
     12 C10        7.6341    3.6045   15.1173 C.ar      1 RES1    0.0000
     13 C11        8.4288    2.8463   14.2823 C.ar      1 RES1    0.0000
     14 C12        7.8566    1.9048   13.4661 C.ar      1 RES1    0.0000
     15 C13        6.4950    1.7198   13.4927 C.ar      1 RES1    0.0000
     16 O2         3.9222    1.5508   10.5290 O.3       2 RES2    0.0000
     17 N2         2.5010    1.4311   10.5184 N.2       2 RES2    0.0000
     18 C14        1.9800    1.3575    9.3446 C.2       2 RES2    0.0000
     19 C15        0.5257    1.1298    9.3499 C.ar      2 RES2    0.0000
     20 C16       -0.0621    0.2201   10.2303 C.ar      2 RES2    0.0000
     21 C17       -1.4088    0.0368   10.2249 C.ar      2 RES2    0.0000
     22 C18       -2.2227    0.7457    9.3580 C.ar      2 RES2    0.0000
     23 C19       -1.6430    1.6169    8.4883 C.ar      2 RES2    0.0000
     24 C20       -0.2973    1.8311    8.4590 C.ar      2 RES2    0.0000
     25 C21        2.7197    1.4989    8.0802 C.ar      2 RES2    0.0000
     26 C22        2.2907    0.7766    6.9758 C.ar      2 RES2    0.0000
     27 C23        2.9012    0.8913    5.7594 C.ar      2 RES2    0.0000
     28 C24        3.9590    1.7257    5.5993 C.ar      2 RES2    0.0000
     29 C25        4.4089    2.4613    6.6637 C.ar      2 RES2    0.0000
     30 C26        3.8071    2.3542    7.9148 C.ar      2 RES2    0.0000
@<TRIPOS>BOND
     1    1    2 1
     2    2    3 2
     3    3    4 1
     4    4    5 ar
     5    5    6 ar
     6    6    7 ar
     7    7    8 ar
     8    8    9 ar
     9    9    4 ar
    10   10    3 1
    11   11   10 ar
    12   12   11 ar
    13   13   12 ar
    14   14   13 ar
    15   15   10 ar
    16   16   17 1
    17   17   18 2
    18   18   19 1
    19   19   20 ar
    20   20   21 ar
    21   21   22 ar
    22   22   23 ar
    23   23   24 ar
    24   24   19 ar
    25   25   18 1
    26   26   25 ar
    27   27   26 ar
    28   28   27 ar
    29   29   28 ar
    30   30   25 ar
    31   14   15 ar
    32   29   30 ar
@<TRIPOS>SUBSTRUCTURE
     1 RES1 1
     2 RES2 16

@<TRIPOS>CRYSIN
   9.4660    8.3690   26.7100  90.0000  92.8900  90.0000 231 1

