# MOL2 file generated by ConQuest
# Please check atom types

@<TRIPOS>MOLECULE
XUMDUE
    72    36     2
SMALL
NO_CHARGES
****
Generated from CSD

@<TRIPOS>ATOM
      1 O1         2.9200    0.5616   14.1468 O.3       1 RES1    0.0000
      2 C1         2.1171    0.3536   13.0331 C.ar      1 RES1    0.0000
      3 N1        -0.7215   -0.0316    9.9747 N.pl3     1 RES1    0.0000
      4 C2         1.6476   -0.9176   12.7058 C.ar      1 RES1    0.0000
      5 O2         4.7978    0.2013   12.9357 O.2       1 RES1    0.0000
      6 O3         4.7960    0.5234   15.1740 O.3       1 RES1    0.0000
      7 C3         0.7134   -1.0329   11.6865 C.ar      1 RES1    0.0000
      8 H1         0.3762   -1.8659   11.4469 H         1 RES1    0.0000
      9 C4         0.2922    0.1057   11.0343 C.ar      1 RES1    0.0000
     10 O4         1.4084   -3.2130   13.2374 O.2       1 RES1    0.0000
     11 O5         3.1104   -2.0821   14.1882 O.3       1 RES1    0.0000
     12 C5         0.7869    1.3670   11.3278 C.ar      1 RES1    0.0000
     13 H2         0.5079    2.1139   10.8488 H         1 RES1    0.0000
     14 O6         3.8627   -4.2240   13.9482 O.2       1 RES1    0.0000
     15 C6         1.7051    1.4822   12.3502 C.ar      1 RES1    0.0000
     16 H3         2.0461    2.3162   12.5802 H         1 RES1    0.0000
     17 C7         4.2535    0.4125   13.9778 C.2       1 RES1    0.0000
     18 O7         4.4843   -2.8821   15.6321 O.3       1 RES1    0.0000
     19 O8        -1.1969   -1.1107    9.7511 O.2       1 RES1    0.0000
     20 C8         6.2201    0.2960   15.2329 C.3       1 RES1    0.0000
     21 H4         6.6950    1.0156   14.7870 H         1 RES1    0.0000
     22 H5         6.4457   -0.5401   14.7960 H         1 RES1    0.0000
     23 O9        -1.0265    0.9729    9.3486 O.2       1 RES1    0.0000
     24 C9         6.5953    0.2441   16.6725 C.3       1 RES1    0.0000
     25 H6         7.5385    0.0850   16.7516 H         1 RES1    0.0000
     26 H7         6.1137   -0.4661   17.1030 H         1 RES1    0.0000
     27 H8         6.3762    1.0794   17.0910 H         1 RES1    0.0000
     28 C10        2.0105   -2.2059   13.3739 C.2       1 RES1    0.0000
     29 C11        3.8158   -3.2078   14.5476 C.2       1 RES1    0.0000
     30 C12        5.3608   -3.9334   16.1507 C.3       1 RES1    0.0000
     31 H9         6.2167   -3.9042   15.6946 H         1 RES1    0.0000
     32 H10        4.9618   -4.8033   15.9951 H         1 RES1    0.0000
     33 C13        5.5534   -3.7239   17.5865 C.3       1 RES1    0.0000
     34 H11        6.1325   -4.4057   17.9343 H         1 RES1    0.0000
     35 H12        4.7041   -3.7657   18.0330 H         1 RES1    0.0000
     36 H13        5.9499   -2.8618   17.7340 H         1 RES1    0.0000
     37 O10        2.9252   -0.5393   14.1523 Du        2 SUP2    0.0000
     38 C14        2.1252   -0.3441   13.0347 Du        2 SUP2    0.0000
     39 N2        -0.7203   -0.0016    9.9786 Du        2 SUP2    0.0000
     40 C15        1.6485    0.9227   12.7013 Du        2 SUP2    0.0000
     41 O11        4.8024   -0.1764   12.9420 Du        2 SUP2    0.0000
     42 O12        4.7959   -0.4866   15.1816 Du        2 SUP2    0.0000
     43 C16        0.7034    1.0243   11.6906 Du        2 SUP2    0.0000
     44 H14        0.3550    1.8525   11.4513 Du        2 SUP2    0.0000
     45 C17        0.2890   -0.1205   11.0447 Du        2 SUP2    0.0000
     46 O13        1.4216    3.2248   13.2141 Du        2 SUP2    0.0000
     47 O14        3.1052    2.0887   14.1875 Du        2 SUP2    0.0000
     48 C18        0.7664   -1.3825   11.3676 Du        2 SUP2    0.0000
     49 H15        0.4696   -2.1367   10.9116 Du        2 SUP2    0.0000
     50 O15        3.8839    4.2168   13.9258 Du        2 SUP2    0.0000
     51 C19        1.6928   -1.4833   12.3828 Du        2 SUP2    0.0000
     52 H16        2.0270   -2.3162   12.6280 Du        2 SUP2    0.0000
     53 C20        4.2623   -0.4314   13.9769 Du        2 SUP2    0.0000
     54 O16        4.4751    2.8981   15.6363 Du        2 SUP2    0.0000
     55 O17       -1.2925    1.0424    9.8216 Du        2 SUP2    0.0000
     56 C21        6.2247   -0.2976   15.2385 Du        2 SUP2    0.0000
     57 H17        6.4714    0.5393   14.8139 Du        2 SUP2    0.0000
     58 H18        6.6790   -1.0219   14.7780 Du        2 SUP2    0.0000
     59 O18       -1.0508   -1.0282    9.4015 Du        2 SUP2    0.0000
     60 C22        6.6074   -0.2834   16.6769 Du        2 SUP2    0.0000
     61 H19        7.5562   -0.1535   16.7546 Du        2 SUP2    0.0000
     62 H20        6.3611   -1.1140   17.0836 Du        2 SUP2    0.0000
     63 H21        6.1522    0.4393   17.1194 Du        2 SUP2    0.0000
     64 C23        2.0239    2.2178   13.3487 Du        2 SUP2    0.0000
     65 C24        3.8079    3.2161   14.5493 Du        2 SUP2    0.0000
     66 C25        5.3423    3.9641   16.1461 Du        2 SUP2    0.0000
     67 H22        6.1653    3.9940   15.6333 Du        2 SUP2    0.0000
     68 H23        4.8982    4.8214   16.0594 Du        2 SUP2    0.0000
     69 C26        5.6414    3.6956   17.5530 Du        2 SUP2    0.0000
     70 H24        6.2533    4.3585   17.8820 Du        2 SUP2    0.0000
     71 H25        6.0368    2.8256   17.6368 Du        2 SUP2    0.0000
     72 H26        4.8287    3.7287   18.0644 Du        2 SUP2    0.0000
@<TRIPOS>BOND
     1    1    2 1
     2    2    4 ar
     3    3    9 1
     4    4    7 ar
     5    5   17 2
     6    6   17 1
     7    7    8 1
     8    9    7 ar
     9   10   28 2
    10   11   28 1
    11   12    9 ar
    12   13   12 1
    13   14   29 2
    14   15    2 ar
    15   16   15 1
    16   17    1 1
    17   18   29 1
    18   19    3 2
    19   20    6 1
    20   21   20 1
    21   22   20 1
    22   23    3 2
    23   24   20 1
    24   25   24 1
    25   26   24 1
    26   27   24 1
    27   28    4 1
    28   29   11 1
    29   30   18 1
    30   31   30 1
    31   32   30 1
    32   33   30 1
    33   34   33 1
    34   35   33 1
    35   36   33 1
    36   12   15 ar
@<TRIPOS>SUBSTRUCTURE
     1 RES1 1
     2 SUP2 37

@<TRIPOS>CRYSIN
  12.3940    7.8730   15.5880  90.0000 106.4300  90.0000  14 1

