# MOL2 file generated by ConQuest
# Please check atom types

@<TRIPOS>MOLECULE
XUMYEL
    42    44     1
SMALL
NO_CHARGES
****
Generated from CSD

@<TRIPOS>ATOM
      1 N1         7.4555    6.1897    3.3672 N.2       1 RES1    0.0000
      2 N2         6.5462    5.2134    3.2957 N.3       1 RES1    0.0000
      3 C1         5.3897    5.6619    2.7402 C.2       1 RES1    0.0000
      4 C2         5.5562    6.9788    2.4314 C.2       1 RES1    0.0000
      5 C3         6.8547    7.2536    2.8469 C.2       1 RES1    0.0000
      6 N3         7.5482    8.5215    2.7620 N.pl3     1 RES1    0.0000
      7 O1         8.6778    8.5907    3.1858 O.2       1 RES1    0.0000
      8 O2         6.8991    9.4304    2.2697 O.2       1 RES1    0.0000
      9 N4         4.5792    7.8555    1.7743 N.pl3     1 RES1    0.0000
     10 O3         4.3609    7.6296    0.5928 O.2       1 RES1    0.0000
     11 O4         4.0496    8.7020    2.4448 O.2       1 RES1    0.0000
     12 N5         4.2037    4.8526    2.5733 N.pl3     1 RES1    0.0000
     13 O5         3.2379    5.4309    2.0852 O.2       1 RES1    0.0000
     14 O6         4.2396    3.6791    2.9205 O.2       1 RES1    0.0000
     15 C4         6.8621    3.8494    3.7776 C.3       1 RES1    0.0000
     16 H1         6.6608    3.1952    3.0625 H         1 RES1    0.0000
     17 H2         6.2884    3.6369    4.5559 H         1 RES1    0.0000
     18 C5         8.2861    3.7195    4.1714 C.2       1 RES1    0.0000
     19 N6         8.7556    3.8460    5.3778 N.2       1 RES1    0.0000
     20 N7        10.1123    3.5728    5.3353 N.2       1 RES1    0.0000
     21 C6        10.4067    3.2997    4.0802 C.2       1 RES1    0.0000
     22 N8         9.2955    3.3773    3.3081 N.pl3     1 RES1    0.0000
     23 N9         9.2740    3.1311    1.9204 N.3       1 RES1    0.0000
     24 H3         8.9644    3.7937    1.6686 H         1 RES1    0.0000
     25 H4         8.8657    2.4111    1.7204 H         1 RES1    0.0000
     26 C7        11.7784    3.0653    3.5641 C.3       1 RES1    0.0000
     27 H5        12.4312    3.2946    4.2720 H         1 RES1    0.0000
     28 H6        11.9399    3.6690    2.7972 H         1 RES1    0.0000
     29 N10       12.0113    1.6574    3.1299 N.pl3     1 RES1    0.0000
     30 N11       12.1237    0.7065    4.0709 N.2       1 RES1    0.0000
     31 C8        12.3552   -0.4047    3.3962 C.2       1 RES1    0.0000
     32 C9        12.3886   -0.2074    2.0064 C.2       1 RES1    0.0000
     33 C10       12.1475    1.1550    1.9007 C.2       1 RES1    0.0000
     34 N12       12.6241   -1.6271    4.1424 N.pl3     1 RES1    0.0000
     35 O7        12.0339   -1.7721    5.2006 O.2       1 RES1    0.0000
     36 O8        13.4444   -2.3943    3.6792 O.2       1 RES1    0.0000
     37 N13       12.6733   -1.1482    0.9462 N.pl3     1 RES1    0.0000
     38 O9        12.3599   -2.3083    1.1224 O.2       1 RES1    0.0000
     39 O10       13.1898   -0.6947   -0.0705 O.2       1 RES1    0.0000
     40 N14       12.0050    1.9306    0.6757 N.pl3     1 RES1    0.0000
     41 O11       12.5696    3.0097    0.6260 O.2       1 RES1    0.0000
     42 O12       11.3298    1.4399   -0.2042 O.2       1 RES1    0.0000
@<TRIPOS>BOND
     1    1    2 1
     2    2    3 1
     3    3    4 2
     4    4    5 1
     5    5    1 2
     6    6    5 1
     7    7    6 2
     8    8    6 2
     9    9    4 1
    10   10    9 2
    11   11    9 2
    12   12    3 1
    13   13   12 2
    14   14   12 2
    15   15    2 1
    16   16   15 1
    17   17   15 1
    18   18   15 1
    19   19   18 2
    20   20   19 1
    21   21   20 2
    22   22   18 1
    23   23   22 1
    24   24   23 1
    25   25   23 1
    26   26   21 1
    27   27   26 1
    28   28   26 1
    29   29   26 1
    30   30   29 1
    31   31   30 2
    32   32   31 1
    33   33   29 1
    34   34   31 1
    35   35   34 2
    36   36   34 2
    37   37   32 1
    38   38   37 2
    39   39   37 2
    40   40   33 1
    41   41   40 2
    42   42   40 2
    43   21   22 1
    44   32   33 2
@<TRIPOS>SUBSTRUCTURE
     1 RES1 1

@<TRIPOS>CRYSIN
  10.5646   16.8610   11.4862  90.0000 115.5400  90.0000 231 1

