# MOL2 file generated by ConQuest
# Please check atom types

@<TRIPOS>MOLECULE
XUQKAW
    43    46     1
SMALL
NO_CHARGES
****
Generated from CSD

@<TRIPOS>ATOM
      1 C1         8.4439    0.3886    3.8030 C.ar      1 RES1    0.0000
      2 H1         7.9136   -0.2849    4.1656 H         1 RES1    0.0000
      3 C2         8.9655    1.7233    2.1172 C.ar      1 RES1    0.0000
      4 C3        10.0297    2.2766    2.8165 C.ar      1 RES1    0.0000
      5 C4        10.2327    1.8074    4.1301 C.ar      1 RES1    0.0000
      6 C5        10.0245    3.2020    0.8935 C.2       1 RES1    0.0000
      7 H2        10.2464    3.7397    0.1677 H         1 RES1    0.0000
      8 C6         8.0603    2.0356   -0.2110 C.3       1 RES1    0.0000
      9 H3         7.4225    1.3493    0.0770 H         1 RES1    0.0000
     10 C7         7.2963    3.2125   -0.7854 C.3       1 RES1    0.0000
     11 H4         7.8529    4.0045   -0.8443 H         1 RES1    0.0000
     12 H5         6.5057    3.4142   -0.2613 H         1 RES1    0.0000
     13 C8         6.9333    2.6799   -2.1636 C.3       1 RES1    0.0000
     14 H6         6.7263    3.4023   -2.7927 H         1 RES1    0.0000
     15 C9         8.2159    1.9350   -2.5501 C.3       1 RES1    0.0000
     16 H7         7.9903    1.1426   -3.0812 H         1 RES1    0.0000
     17 C10        9.1976    2.7969   -3.3135 C.3       1 RES1    0.0000
     18 H8         8.7986    3.0690   -4.1550 H         1 RES1    0.0000
     19 H9         9.3880    3.5975   -2.8002 H         1 RES1    0.0000
     20 C11       11.7874    1.8395    6.0814 C.ar      1 RES1    0.0000
     21 C12       11.1847    0.9094    6.9359 C.ar      1 RES1    0.0000
     22 H10       10.3390    0.5766    6.7408 H         1 RES1    0.0000
     23 C13       11.8515    0.4856    8.0740 C.ar      1 RES1    0.0000
     24 H11       11.4554   -0.1321    8.6454 H         1 RES1    0.0000
     25 C14       13.1141    0.9885    8.3549 C.ar      1 RES1    0.0000
     26 C15       13.7189    1.9350    7.5389 C.ar      1 RES1    0.0000
     27 H12       14.5595    2.2738    7.7482 H         1 RES1    0.0000
     28 C16       13.0496    2.3630    6.4106 C.ar      1 RES1    0.0000
     29 H13       13.4376    3.0054    5.8618 H         1 RES1    0.0000
     30 N1         9.4194    0.8500    4.6014 N.ar      1 RES1    0.0000
     31 N2         8.1302    0.7618    2.5640 N.ar      1 RES1    0.0000
     32 N3         8.9633    2.3333    0.8876 N.3       1 RES1    0.0000
     33 N4        10.6966    3.2034    2.0206 N.2       1 RES1    0.0000
     34 N5        11.2365    2.3173    4.8932 N.pl3     1 RES1    0.0000
     35 H14       11.7140    2.9812    4.4556 H         1 RES1    0.0000
     36 N6        13.8463    0.4801    9.5049 N.pl3     1 RES1    0.0000
     37 O1         8.8373    1.5249   -1.2953 O.3       1 RES1    0.0000
     38 O2         5.8835    1.7219   -2.0882 O.3       1 RES1    0.0000
     39 H15        5.1386    2.2313   -2.1447 H         1 RES1    0.0000
     40 O3        10.4117    2.1042   -3.5710 O.3       1 RES1    0.0000
     41 H16       10.8022    1.9067   -2.8199 H         1 RES1    0.0000
     42 O4        13.2945   -0.3182   10.2430 O.2       1 RES1    0.0000
     43 O5        14.9928    0.8651    9.6863 O.2       1 RES1    0.0000
@<TRIPOS>BOND
     1    1    2 1
     2    3    4 ar
     3    4    5 ar
     4    5   30 ar
     5    6    7 1
     6    8    9 1
     7   10    8 1
     8   11   10 1
     9   12   10 1
    10   13   10 1
    11   14   13 1
    12   15   13 1
    13   16   15 1
    14   17   15 1
    15   18   17 1
    16   19   17 1
    17   20   21 ar
    18   21   22 1
    19   23   21 ar
    20   24   23 1
    21   25   23 ar
    22   26   25 ar
    23   27   26 1
    24   28   20 ar
    25   29   28 1
    26   30    1 ar
    27   31    1 ar
    28   32    3 1
    29   33    4 1
    30   34    5 1
    31   35   34 1
    32   36   25 1
    33   37    8 1
    34   38   13 1
    35   39   38 1
    36   40   17 1
    37   41   40 1
    38   42   36 2
    39   43   36 2
    40    3   31 ar
    41    6   32 1
    42    6   33 2
    43    8   32 1
    44   15   37 1
    45   20   34 1
    46   26   28 ar
@<TRIPOS>SUBSTRUCTURE
     1 RES1 1

@<TRIPOS>CRYSIN
  11.5346    4.5724   15.5302  90.0000 103.4584  90.0000   4 1

