# MOL2 file generated by ConQuest
# Please check atom types

@<TRIPOS>MOLECULE
XUQMUR
    52    56     1
SMALL
NO_CHARGES
****
Generated from CSD

@<TRIPOS>ATOM
      1 N1         6.1874    2.3164    9.0432 N.3       1 RES1    0.0000
      2 N2         6.9064    3.2111    9.8172 N.2       1 RES1    0.0000
      3 N3         4.9073    0.3861    7.3059 N.pl3     1 RES1    0.0000
      4 O1         5.4797   -0.0500    8.3033 O.2       1 RES1    0.0000
      5 O2         4.4082   -0.3607    6.4904 O.2       1 RES1    0.0000
      6 O3         3.1632    5.2341    4.4142 O.2       1 RES1    0.0000
      7 C1         8.3999    3.4731   11.7288 C.3       1 RES1    0.0000
      8 C2         9.3059    4.5243   11.0625 C.3       1 RES1    0.0000
      9 C3        10.7274    3.8809   11.0619 C.3       1 RES1    0.0000
     10 N4         3.1781    4.0331    4.6561 N.pl3     1 RES1    0.0000
     11 C4         5.2907    4.0944    7.7070 C.ar      1 RES1    0.0000
     12 C5         4.8259    1.8094    7.1114 C.ar      1 RES1    0.0000
     13 O4         2.5906    3.1965    3.9852 O.2       1 RES1    0.0000
     14 C6        10.4972    2.3992   11.3891 C.3       1 RES1    0.0000
     15 C7         5.4580    2.7223    7.9898 C.ar      1 RES1    0.0000
     16 C8         4.0818    2.2438    6.0254 C.ar      1 RES1    0.0000
     17 C9         9.3095    2.4020   12.3433 C.3       1 RES1    0.0000
     18 C10        7.5420    2.6617   10.7807 C.2       1 RES1    0.0000
     19 C11        7.5955    1.2006   11.1319 C.3       1 RES1    0.0000
     20 C12        4.5547    4.5089    6.6425 C.ar      1 RES1    0.0000
     21 C13       11.5310    4.6911   12.1052 C.3       1 RES1    0.0000
     22 C14        3.9577    3.5766    5.8005 C.ar      1 RES1    0.0000
     23 C15        8.4785    1.1245   12.3739 C.3       1 RES1    0.0000
     24 C16        9.4420    5.7907   11.8754 C.3       1 RES1    0.0000
     25 C17        8.2767    6.6789   12.1523 C.3       1 RES1    0.0000
     26 C18        9.3470    7.1370   11.2165 C.3       1 RES1    0.0000
     27 C19       10.5360    5.5143   12.8750 C.3       1 RES1    0.0000
     28 C20       11.7079    1.6128   11.8739 C.3       1 RES1    0.0000
     29 H1         7.8092    3.8847   12.3975 H         1 RES1    0.0000
     30 H2         8.9443    4.7139   10.1490 H         1 RES1    0.0000
     31 H3         5.6801    4.7319    8.2721 H         1 RES1    0.0000
     32 H4        11.1380    3.9613   10.1737 H         1 RES1    0.0000
     33 H5         4.4191    5.4380    6.4830 H         1 RES1    0.0000
     34 H6         7.4768    6.4114   11.7990 H         1 RES1    0.0000
     35 H7         7.9715    0.7376   10.3642 H         1 RES1    0.0000
     36 H8         9.6561    2.6349   13.2422 H         1 RES1    0.0000
     37 H9         3.6929    1.6419    5.4873 H         1 RES1    0.0000
     38 H10       10.1873    1.9724   10.5837 H         1 RES1    0.0000
     39 H11        6.2271    1.4752    9.1972 H         1 RES1    0.0000
     40 H12        7.8932    1.1582   13.1694 H         1 RES1    0.0000
     41 H13       10.8705    6.2867   13.2658 H         1 RES1    0.0000
     42 H14       12.0849    4.1506   12.6448 H         1 RES1    0.0000
     43 H15        8.9901    0.3125   12.4307 H         1 RES1    0.0000
     44 H16        6.7168    0.8247   11.2711 H         1 RES1    0.0000
     45 H17        9.0950    7.1174   10.2250 H         1 RES1    0.0000
     46 H18       12.3998    1.6825   11.2529 H         1 RES1    0.0000
     47 H19       12.1609    5.3028   11.6705 H         1 RES1    0.0000
     48 H20       12.0158    1.9529   12.7840 H         1 RES1    0.0000
     49 H21        8.2373    7.0874   13.0517 H         1 RES1    0.0000
     50 H22       11.4759    0.6535   11.9274 H         1 RES1    0.0000
     51 H23        9.9671    7.8385   11.5420 H         1 RES1    0.0000
     52 H24       10.1197    5.0279   13.6298 H         1 RES1    0.0000
@<TRIPOS>BOND
     1    1    2 1
     2    2   18 2
     3    3    4 2
     4    5    3 2
     5    6   10 2
     6    7    8 1
     7    8    9 1
     8    9   14 1
     9   10   13 2
    10   11   15 ar
    11   12    3 1
    12   14   17 1
    13   15    1 1
    14   16   12 ar
    15   17    7 1
    16   18    7 1
    17   19   18 1
    18   20   11 ar
    19   21    9 1
    20   22   10 1
    21   23   17 1
    22   24    8 1
    23   25   24 1
    24   26   24 1
    25   27   21 1
    26   28   14 1
    27   29    7 1
    28   30    8 1
    29   31   11 1
    30   32    9 1
    31   33   20 1
    32   34   25 1
    33   35   19 1
    34   36   17 1
    35   37   16 1
    36   38   14 1
    37   39    1 1
    38   40   23 1
    39   41   27 1
    40   42   21 1
    41   43   23 1
    42   44   19 1
    43   45   26 1
    44   46   28 1
    45   47   21 1
    46   48   28 1
    47   49   25 1
    48   50   28 1
    49   51   26 1
    50   52   27 1
    51   12   15 ar
    52   16   22 ar
    53   19   23 1
    54   20   22 ar
    55   24   27 1
    56   25   26 1
@<TRIPOS>SUBSTRUCTURE
     1 RES1 1

@<TRIPOS>CRYSIN
  11.7150   15.0220   10.7310  90.0000  93.8440  90.0000  14 1

