# MOL2 file generated by ConQuest
# Please check atom types

@<TRIPOS>MOLECULE
XUQMUT
    50    50     1
SMALL
USER_CHARGES
****
Generated from CSD

@<TRIPOS>ATOM
      1 O1         3.8687    5.7432    5.1627 O.2       1 RES1   -1.0000
      2 O2         1.7050    2.2529    7.0495 O.3       1 RES1    0.0000
      3 N1         2.8218    5.0292    5.1637 N.pl3     1 RES1    1.0000
      4 O3         0.5725    3.1095    5.3412 O.2       1 RES1    0.0000
      5 C1         2.7489    3.9626    5.9291 C.2       1 RES1    0.0000
      6 C2         1.5445    3.1123    6.0342 C.2       1 RES1    0.0000
      7 O4         2.8715    4.1608    2.6275 O.3       1 RES1    0.0000
      8 O5         3.4910    5.2966    8.3553 O.2       1 RES1    0.0000
      9 C3         3.9934    3.6398    6.6846 C.3       1 RES1    0.0000
     10 H1         4.7448    3.6582    6.0709 H         1 RES1    0.0000
     11 H2         3.9218    2.7369    7.0326 H         1 RES1    0.0000
     12 O6         5.5499    4.4393    8.1937 O.3       1 RES1    0.0000
     13 C4         4.2789    4.5750    7.8248 C.2       1 RES1    0.0000
     14 C5         0.6302    1.3158    7.2379 C.3       1 RES1    0.0000
     15 H3         0.4564    0.8583    6.4120 H         1 RES1    0.0000
     16 H4        -0.1597    1.7864    7.5155 H         1 RES1    0.0000
     17 H5         0.8760    0.6781    7.9121 H         1 RES1    0.0000
     18 C6         1.7403    5.5075    4.2357 C.3       1 RES1    0.0000
     19 H6         0.9781    4.8936    4.2882 H         1 RES1    0.0000
     20 C7         1.2870    6.9097    4.6689 C.3       1 RES1    0.0000
     21 H7         2.0563    7.5145    4.6094 H         1 RES1    0.0000
     22 C8         2.3270    5.4474    2.8416 C.3       1 RES1    0.0000
     23 H8         1.6358    5.6269    2.1843 H         1 RES1    0.0000
     24 H9         3.0201    6.1191    2.7454 H         1 RES1    0.0000
     25 C9         4.4574    2.9907    1.2790 C.ar      1 RES1    0.0000
     26 C10        5.6423    1.2073    0.1408 C.ar      1 RES1    0.0000
     27 H10        5.7196    0.6123   -0.5701 H         1 RES1    0.0000
     28 C11        0.1987    7.4309    3.7498 C.3       1 RES1    0.0000
     29 H11        0.5510    7.5334    2.8634 H         1 RES1    0.0000
     30 H12       -0.1110    8.2806    4.0711 H         1 RES1    0.0000
     31 H13       -0.5322    6.8085    3.7349 H         1 RES1    0.0000
     32 C12        5.4261    2.9570    2.2289 C.ar      1 RES1    0.0000
     33 H14        5.3749    3.5359    2.9546 H         1 RES1    0.0000
     34 C13        0.8110    6.8843    6.1066 C.3       1 RES1    0.0000
     35 H15        0.0232    6.3401    6.1730 H         1 RES1    0.0000
     36 H16        0.6069    7.7782    6.3921 H         1 RES1    0.0000
     37 H17        1.5000    6.5196    6.6658 H         1 RES1    0.0000
     38 C14        6.4635    2.0972    2.1357 C.ar      1 RES1    0.0000
     39 H18        7.1142    2.0962    2.8000 H         1 RES1    0.0000
     40 C15        3.3021    3.9236    1.3008 C.3       1 RES1    0.0000
     41 H19        3.5573    4.7644    0.8894 H         1 RES1    0.0000
     42 H20        2.5720    3.5465    0.7863 H         1 RES1    0.0000
     43 C16        6.5761    1.2384    1.1006 C.ar      1 RES1    0.0000
     44 H21        7.3072    0.6652    1.0530 H         1 RES1    0.0000
     45 C17        4.5329    2.0892    0.2171 C.ar      1 RES1    0.0000
     46 H22        3.8663    2.0667   -0.4313 H         1 RES1    0.0000
     47 C18        5.9711    5.1970    9.3349 C.3       1 RES1    0.0000
     48 H23        5.7842    6.1277    9.1882 H         1 RES1    0.0000
     49 H24        6.9143    5.0777    9.4687 H         1 RES1    0.0000
     50 H25        5.4967    4.8944   10.1132 H         1 RES1    0.0000
@<TRIPOS>BOND
     1    1    3 1
     2    2    6 1
     3    3    5 2
     4    4    6 2
     5    5    6 1
     6    7   22 1
     7    8   13 2
     8    9    5 1
     9   10    9 1
    10   11    9 1
    11   12   13 1
    12   13    9 1
    13   14    2 1
    14   15   14 1
    15   16   14 1
    16   17   14 1
    17   18    3 1
    18   19   18 1
    19   20   18 1
    20   21   20 1
    21   22   18 1
    22   23   22 1
    23   24   22 1
    24   25   32 ar
    25   26   27 1
    26   28   20 1
    27   29   28 1
    28   30   28 1
    29   31   28 1
    30   32   33 1
    31   34   20 1
    32   35   34 1
    33   36   34 1
    34   37   34 1
    35   38   32 ar
    36   39   38 1
    37   40    7 1
    38   41   40 1
    39   42   40 1
    40   43   26 ar
    41   44   43 1
    42   45   25 ar
    43   46   45 1
    44   47   12 1
    45   48   47 1
    46   49   47 1
    47   50   47 1
    48   25   40 1
    49   26   45 ar
    50   38   43 ar
@<TRIPOS>SUBSTRUCTURE
     1 RES1 1

@<TRIPOS>CRYSIN
   6.5131    7.9315    9.9540  90.8900  94.2800 112.4400   1 1

