# MOL2 file generated by ConQuest
# Please check atom types

@<TRIPOS>MOLECULE
XUQMON
   256   256     4
SMALL
USER_CHARGES
****
Generated from CSD

@<TRIPOS>ATOM
      1 O1         5.2470    3.4236    1.2414 O.2       1 RES1    0.0000
      2 O2         7.3828    8.0763    2.3234 O.3       1 RES1    0.0000
      3 O3         6.5762    3.7239    3.0051 O.3       1 RES1    0.0000
      4 O4         3.2077    6.7408    2.7294 O.2       1 RES1   -1.0000
      5 O5         7.1650    6.2960    1.0286 O.2       1 RES1    0.0000
      6 N1         3.7058    5.5853    2.5363 N.pl3     1 RES1    1.0000
      7 C1         5.0116    5.3541    2.6075 C.2       1 RES1    0.0000
      8 C2         2.8585    1.9575    2.6563 C.ar      1 RES1    0.0000
      9 C3         3.4585   -0.2042    5.7348 C.3       1 RES1    0.0000
     10 H1         3.2499   -1.0193    5.1929 H         1 RES1    0.0000
     11 C4         2.7252    4.4606    2.2745 C.3       1 RES1    0.0000
     12 H2         2.8561    4.3086    1.3298 H         1 RES1    0.0000
     13 C5         2.8699    3.2576    3.2148 C.ar      1 RES1    0.0000
     14 C6         2.6346    1.6768    1.1919 C.3       1 RES1    0.0000
     15 H3         2.8399    2.3128    0.7118 H         1 RES1    0.0000
     16 C7         3.0007    3.4133    4.5924 C.ar      1 RES1    0.0000
     17 C8         3.1886    1.0063    4.8677 C.ar      1 RES1    0.0000
     18 C9         2.9718    4.7479    5.3142 C.3       1 RES1    0.0000
     19 H4         2.8457    5.4632    4.6267 H         1 RES1    0.0000
     20 C10        5.8870    6.4685    3.0501 C.3       1 RES1    0.0000
     21 H5         6.3902    6.1841    3.8534 H         1 RES1    0.0000
     22 H6         5.3204    7.2407    3.3066 H         1 RES1    0.0000
     23 C11        4.9281   -0.2518    6.0924 C.3       1 RES1    0.0000
     24 H7         5.4620   -0.2928    5.2706 H         1 RES1    0.0000
     25 H8         5.1051   -1.0464    6.6392 H         1 RES1    0.0000
     26 H9         5.1674    0.5530    6.5971 H         1 RES1    0.0000
     27 C12        6.8666    6.9078    1.9859 C.2       1 RES1    0.0000
     28 C13        1.7962    4.8421    6.3156 C.3       1 RES1    0.0000
     29 H10        0.9552    4.6462    5.8497 H         1 RES1    0.0000
     30 H11        1.7589    5.7457    6.6909 H         1 RES1    0.0000
     31 H12        1.9276    4.1920    7.0371 H         1 RES1    0.0000
     32 C14        4.2927    5.0258    6.0406 C.3       1 RES1    0.0000
     33 H13        4.4098    4.3767    6.7653 H         1 RES1    0.0000
     34 H14        4.2774    5.9323    6.4127 H         1 RES1    0.0000
     35 H15        5.0366    4.9465    5.4064 H         1 RES1    0.0000
     36 C15        3.1533    2.2886    5.3844 C.ar      1 RES1    0.0000
     37 H16        3.2388    2.4033    6.3253 H         1 RES1    0.0000
     38 C16        3.0313    0.8766    3.5111 C.ar      1 RES1    0.0000
     39 H17        3.0404    0.0037    3.1384 H         1 RES1    0.0000
     40 C17        3.5213    0.5512    0.6471 C.3       1 RES1    0.0000
     41 H18        3.2676   -0.2966    1.0677 H         1 RES1    0.0000
     42 H19        4.4595    0.7489    0.8509 H         1 RES1    0.0000
     43 H20        3.4037    0.4831   -0.3235 H         1 RES1    0.0000
     44 C18        2.6008   -0.2499    6.9983 C.3       1 RES1    0.0000
     45 H21        2.7943    0.5334    7.5548 H         1 RES1    0.0000
     46 H22        2.8043   -1.0660    7.5030 H         1 RES1    0.0000
     47 H23        1.6519   -0.2481    6.7492 H         1 RES1    0.0000
     48 C19        1.2971    5.0062    2.2583 C.3       1 RES1    0.0000
     49 H24        1.2359    5.7439    1.6177 H         1 RES1    0.0000
     50 H25        1.0624    5.3317    3.1546 H         1 RES1    0.0000
     51 H26        0.6771    4.2928    1.9995 H         1 RES1    0.0000
     52 C20        8.3756    8.6144    1.4171 C.3       1 RES1    0.0000
     53 H27        7.9300    8.9977    0.6341 H         1 RES1    0.0000
     54 H28        8.9800    7.8973    1.1324 H         1 RES1    0.0000
     55 H29        8.8907    9.3120    1.8733 H         1 RES1    0.0000
     56 C21        5.5863    4.0605    2.1788 C.2       1 RES1    0.0000
     57 C22        1.1602    1.3364    0.9415 C.3       1 RES1    0.0000
     58 H30        1.0077    1.2301   -0.0194 H         1 RES1    0.0000
     59 H31        0.5950    2.0601    1.2845 H         1 RES1    0.0000
     60 H32        0.9345    0.5008    1.4042 H         1 RES1    0.0000
     61 C23        7.2415    2.4816    2.6757 C.3       1 RES1    0.0000
     62 H33        7.5670    2.5208    1.7504 H         1 RES1    0.0000
     63 H34        6.6080    1.7384    2.7663 H         1 RES1    0.0000
     64 H35        7.9972    2.3436    3.2840 H         1 RES1    0.0000
     65 O6        11.5489    3.2287   18.2803 O.2       2 RES2    0.0000
     66 O7        13.7331   -0.1529   19.3600 O.2       2 RES2   -1.0000
     67 O8        10.8334    3.1223   20.3928 O.3       2 RES2    0.0000
     68 O9        10.6586   -0.1819   17.8714 O.3       2 RES2    0.0000
     69 N2        13.2960    1.0538   19.2989 N.pl3     2 RES2    1.0000
     70 O10       10.2267   -1.7981   19.3280 O.2       2 RES2    0.0000
     71 C24       15.7546    1.8568   22.7304 C.3       2 RES2    0.0000
     72 H36       15.8180    0.9858   23.1756 H         2 RES2    0.0000
     73 H37       15.7855    2.5693   23.4021 H         2 RES2    0.0000
     74 H38       16.5040    1.9613   22.1079 H         2 RES2    0.0000
     75 C25       14.2634    5.6833   21.4097 C.ar      2 RES2    0.0000
     76 C26       14.3045    2.1338   18.9132 C.3       2 RES2    0.0000
     77 H39       13.9969    2.2849   17.9891 H         2 RES2    0.0000
     78 C27       14.3218    3.2492   21.2094 C.ar      2 RES2    0.0000
     79 C28       14.2644    3.3630   19.8075 C.ar      2 RES2    0.0000
     80 C29       14.4341    1.9407   21.9584 C.3       2 RES2    0.0000
     81 H40       14.4185    1.1984   21.2893 H         2 RES2    0.0000
     82 C30       14.1415    4.8794   17.7180 C.3       2 RES2    0.0000
     83 H41       13.8452    4.2527   17.3097 H         2 RES2    0.0000
     84 C31       13.2380    1.7430   22.9203 C.3       2 RES2    0.0000
     85 H42       13.2789    0.8459   23.3115 H         2 RES2    0.0000
     86 H43       12.3993    1.8447   22.4250 H         2 RES2    0.0000
     87 H44       13.2782    2.4136   23.6350 H         2 RES2    0.0000
     88 C32       11.4712    2.6542   19.3254 C.2       2 RES2    0.0000
     89 C33       11.2103    0.2182   20.1142 C.3       2 RES2    0.0000
     90 H45       10.4526    0.6034   20.6196 H         2 RES2    0.0000
     91 H46       11.7572   -0.3078   20.7490 H         2 RES2    0.0000
     92 C34       12.0425    1.3318   19.5904 C.2       2 RES2    0.0000
     93 C35       13.2818    6.0768   17.3356 C.3       2 RES2    0.0000
     94 H47       12.4158    6.0153   17.7918 H         2 RES2    0.0000
     95 H48       13.1425    6.0824   16.3649 H         2 RES2    0.0000
     96 H49       13.7344    6.9031   17.6074 H         2 RES2    0.0000
     97 C36       14.3090    4.4093   21.9675 C.ar      2 RES2    0.0000
     98 H50       14.3319    4.3310   22.9135 H         2 RES2    0.0000
     99 C37       15.6891    1.5089   18.8656 C.3       2 RES2    0.0000
    100 H51       16.3334    2.1664   18.5262 H         2 RES2    0.0000
    101 H52       15.6772    0.7293   18.2739 H         2 RES2    0.0000
    102 H53       15.9532    1.2292   19.7686 H         2 RES2    0.0000
    103 C38       12.9353    6.9721   23.0591 C.3       2 RES2    0.0000
    104 H54       12.8621    6.1738   23.6253 H         2 RES2    0.0000
    105 H55       12.1756    7.0057   22.4411 H         2 RES2    0.0000
    106 H56       12.9321    7.7732   23.6253 H         2 RES2    0.0000
    107 C39       14.1863    4.6360   19.2060 C.ar      2 RES2    0.0000
    108 C40       10.0980   -0.9690   16.8147 C.3       2 RES2    0.0000
    109 H57        9.2016   -1.2693   17.0735 H         2 RES2    0.0000
    110 H58       10.6686   -1.7477   16.6497 H         2 RES2    0.0000
    111 H59       10.0389   -0.4271   15.9993 H         2 RES2    0.0000
    112 C41       15.4494    7.0225   23.1335 C.3       2 RES2    0.0000
    113 H60       15.4901    6.2512   23.7353 H         2 RES2    0.0000
    114 H61       15.4057    7.8478   23.6577 H         2 RES2    0.0000
    115 H62       16.2505    7.0374   22.5673 H         2 RES2    0.0000
    116 C42       10.2863    4.4569   20.2831 C.3       2 RES2    0.0000
    117 H63        9.8052    4.6817   21.1049 H         2 RES2    0.0000
    118 H64        9.6694    4.4961   19.5228 H         2 RES2    0.0000
    119 H65       11.0152    5.0985   20.1440 H         2 RES2    0.0000
    120 C43       14.2308    6.9162   22.2664 C.3       2 RES2    0.0000
    121 H66       14.2345    7.7051   21.6517 H         2 RES2    0.0000
    122 C44       14.2157    5.7607   20.0433 C.ar      2 RES2    0.0000
    123 H67       14.2036    6.6215   19.6425 H         2 RES2    0.0000
    124 C45       15.5335    5.0025   17.1317 C.3       2 RES2    0.0000
    125 H68       15.9713    5.7998   17.4974 H         2 RES2    0.0000
    126 H69       15.4722    5.0799   16.1579 H         2 RES2    0.0000
    127 H70       16.0574    4.2070   17.3647 H         2 RES2    0.0000
    128 C46       10.6652   -0.7097   19.0795 C.2       2 RES2    0.0000
    129 O11        3.7933    3.3639   18.6055 O.2       3 RES3    0.0000
    130 O12        5.9281   -0.0783   19.5347 O.2       3 RES3   -1.0000
    131 O13        3.0500    3.1764   20.6940 O.3       3 RES3    0.0000
    132 O14        2.9183   -0.1520   18.2007 O.3       3 RES3    0.0000
    133 N3         5.5125    1.1266   19.4765 N.pl3     3 RES3    1.0000
    134 C47        6.8786    5.7709   21.3712 C.ar      3 RES3    0.0000
    135 C48        6.9132    4.5082   21.9510 C.ar      3 RES3    0.0000
    136 H71        7.0268    4.4457   22.8909 H         3 RES3    0.0000
    137 C49        6.5029    2.1655   18.9792 C.3       3 RES3    0.0000
    138 H72        6.2277    2.3035   18.0991 H         3 RES3    0.0000
    139 C50        6.3579    4.8971   17.7293 C.3       3 RES3    0.0000
    140 H73        6.0556    4.2247   17.2773 H         3 RES3    0.0000
    141 C51        4.2895    1.4250   19.8596 C.2       3 RES3    0.0000
    142 C52        7.0587    7.0421   22.1694 C.3       3 RES3    0.0000
    143 H74        6.8994    7.8115   21.5514 H         3 RES3    0.0000
    144 C53        7.8621    1.4968   18.8132 C.3       3 RES3    0.0000
    145 H75        8.1981    1.2180   19.6910 H         3 RES3    0.0000
    146 H76        8.4909    2.1310   18.4098 H         3 RES3    0.0000
    147 H77        7.7716    0.7125   18.2318 H         3 RES3    0.0000
    148 C54        6.9050    2.0256   21.9988 C.3       3 RES3    0.0000
    149 H78        6.8163    1.2693   21.3508 H         3 RES3    0.0000
    150 C55        8.2713    1.9240   22.6786 C.3       3 RES3    0.0000
    151 H79        8.3674    2.6486   23.3309 H         3 RES3    0.0000
    152 H80        8.9778    1.9967   22.0043 H         3 RES3    0.0000
    153 H81        8.3445    1.0604   23.1368 H         3 RES3    0.0000
    154 C56        6.5326    4.6844   19.2274 C.ar      3 RES3    0.0000
    155 C57        5.7689    1.9156   23.0332 C.3       3 RES3    0.0000
    156 H82        5.7993    1.0343   23.4603 H         3 RES3    0.0000
    157 H83        4.9047    2.0303   22.5867 H         3 RES3    0.0000
    158 H84        5.8783    2.6122   23.7159 H         3 RES3    0.0000
    159 C58        6.6061    3.4161   19.8489 C.ar      3 RES3    0.0000
    160 O15        2.5530   -1.7421   19.6813 O.2       3 RES3    0.0000
    161 C59        6.7915    3.3415   21.2246 C.ar      3 RES3    0.0000
    162 C60        3.4988    0.3162   20.4319 C.3       3 RES3    0.0000
    163 H85        2.7422    0.6976   20.9431 H         3 RES3    0.0000
    164 H86        4.0675   -0.1865   21.0661 H         3 RES3    0.0000
    165 C61        3.7034    2.7661   19.6263 C.2       3 RES3    0.0000
    166 C62        7.7105    4.9875   17.0250 C.3       3 RES3    0.0000
    167 H87        8.1830    5.7924   17.3226 H         3 RES3    0.0000
    168 H88        7.5712    5.0332   16.0543 H         3 RES3    0.0000
    169 H89        8.2465    4.1958   17.2418 H         3 RES3    0.0000
    170 C63        2.9530   -0.6444   19.4063 C.2       3 RES3    0.0000
    171 C64        5.5085    6.1253   17.3971 C.3       3 RES3    0.0000
    172 H90        4.6826    6.1029   17.9212 H         3 RES3    0.0000
    173 H91        5.2887    6.1207   16.4426 H         3 RES3    0.0000
    174 H92        6.0121    6.9385   17.6106 H         3 RES3    0.0000
    175 C65        6.6922    5.8241   20.0084 C.ar      3 RES3    0.0000
    176 H93        6.6725    6.6737   19.5842 H         3 RES3    0.0000
    177 C66        2.4369    4.4933   20.5937 C.3       3 RES3    0.0000
    178 H94        1.9660    4.7003   21.4252 H         3 RES3    0.0000
    179 H95        1.8004    4.5007   19.8463 H         3 RES3    0.0000
    180 H96        3.1315    5.1657   20.4351 H         3 RES3    0.0000
    181 C67        8.4971    7.1465   22.6741 C.3       3 RES3    0.0000
    182 H97        8.6834    6.4051   23.2856 H         3 RES3    0.0000
    183 H98        8.6178    7.9980   23.1432 H         3 RES3    0.0000
    184 H99        9.1136    7.1036   21.9138 H         3 RES3    0.0000
    185 C68        2.3548   -0.9783   17.1609 C.3       3 RES3    0.0000
    186 H100       1.4493   -1.2534   17.4165 H         3 RES3    0.0000
    187 H101       2.9148   -1.7738   17.0347 H         3 RES3    0.0000
    188 H102       2.3192   -0.4710   16.3229 H         3 RES3    0.0000
    189 C69        6.0573    7.1484   23.2953 C.3       3 RES3    0.0000
    190 H103       6.2001    6.4135   23.9262 H         3 RES3    0.0000
    191 H104       5.1498    7.0943   22.9297 H         3 RES3    0.0000
    192 H105       6.1740    8.0045   23.7547 H         3 RES3    0.0000
    193 O16       11.7101    6.7856    4.1980 O.2       4 RES4   -1.0000
    194 O17       14.9397    7.0626    4.2922 O.3       4 RES4    0.0000
    195 O18       14.0895    3.2828    5.7488 O.3       4 RES4    0.0000
    196 O19       14.0804    3.4842    3.5296 O.2       4 RES4    0.0000
    197 N4        12.1206    5.5853    4.1158 N.pl3     4 RES4    1.0000
    198 C70        9.8415    4.6126    5.8588 C.3       4 RES4    0.0000
    199 H106      10.1766    5.4035    5.3482 H         4 RES4    0.0000
    200 O20       14.5627    8.2526    6.1396 O.2       4 RES4    0.0000
    201 C71       10.3139    0.9335    5.1952 C.ar      4 RES4    0.0000
    202 C72       10.9670    3.3340    3.9020 C.ar      4 RES4    0.0000
    203 C73       11.3164    2.1002    3.3028 C.ar      4 RES4    0.0000
    204 C74       10.2752    3.3648    5.1308 C.ar      4 RES4    0.0000
    205 C75       11.3567    4.6369    3.2002 C.3       4 RES4    0.0000
    206 H107      11.9333    4.5418    2.4525 H         4 RES4    0.0000
    207 C76       10.3974    4.6900    7.2720 C.3       4 RES4    0.0000
    208 H108       9.9797    3.9971    7.8266 H         4 RES4    0.0000
    209 H109      10.2043    5.5723    7.6519 H         4 RES4    0.0000
    210 H110      11.3679    4.5502    7.2507 H         4 RES4    0.0000
    211 C77       10.9740    0.9242    3.9751 C.ar      4 RES4    0.0000
    212 H111      11.2023    0.0895    3.5817 H         4 RES4    0.0000
    213 C78       15.7671    8.1239    3.7693 C.3       4 RES4    0.0000
    214 H112      16.2002    7.8236    2.9443 H         4 RES4    0.0000
    215 H113      16.4521    8.3589    4.4293 H         4 RES4    0.0000
    216 H114      15.2119    8.9091    3.5817 H         4 RES4    0.0000
    217 C79       13.1092    5.1787    4.8762 C.2       4 RES4    0.0000
    218 C80        9.9865   -0.3572    5.9177 C.3       4 RES4    0.0000
    219 H115      10.3837   -1.1070    5.3870 H         4 RES4    0.0000
    220 C81       10.1951    5.3774    2.5910 C.3       4 RES4    0.0000
    221 H116      10.5273    6.1430    2.0772 H         4 RES4    0.0000
    222 H117       9.5993    5.6945    3.3034 H         4 RES4    0.0000
    223 H118       9.6996    4.7758    1.9963 H         4 RES4    0.0000
    224 C82       11.9977    1.9902    1.9429 C.3       4 RES4    0.0000
    225 H119      12.5524    2.6579    1.8669 H         4 RES4    0.0000
    226 C83        9.9767    2.1506    5.7358 C.ar      4 RES4    0.0000
    227 H120       9.5166    2.1627    6.5680 H         4 RES4    0.0000
    228 C84       12.8753    0.7563    1.8119 C.3       4 RES4    0.0000
    229 H121      13.3811    0.8020    0.9706 H         4 RES4    0.0000
    230 H122      12.3138   -0.0466    1.8119 H         4 RES4    0.0000
    231 H123      13.5004    0.7172    2.5657 H         4 RES4    0.0000
    232 C85       10.5741   -0.4141    7.2798 C.3       4 RES4    0.0000
    233 H124      11.5376   -0.2481    7.2280 H         4 RES4    0.0000
    234 H125      10.4148   -1.3010    7.6648 H         4 RES4    0.0000
    235 H126      10.1543    0.2686    7.8427 H         4 RES4    0.0000
    236 C86        8.3017    4.6872    5.9015 C.3       4 RES4    0.0000
    237 H127       7.9445    4.5763    4.9955 H         4 RES4    0.0000
    238 H128       8.0266    5.5583    6.2541 H         4 RES4    0.0000
    239 H129       7.9556    3.9747    6.4774 H         4 RES4    0.0000
    240 C87       14.3971    7.2817    5.4809 C.2       4 RES4    0.0000
    241 C88       13.5738    6.1104    5.9274 C.3       4 RES4    0.0000
    242 H130      14.1051    5.5928    6.5842 H         4 RES4    0.0000
    243 H131      12.7779    6.4573    6.4030 H         4 RES4    0.0000
    244 C89       10.9753    2.0331    0.8208 C.3       4 RES4    0.0000
    245 H132      11.4377    2.0900   -0.0421 H         4 RES4    0.0000
    246 H133      10.3976    2.8165    0.9350 H         4 RES4    0.0000
    247 H134      10.4292    1.2189    0.8445 H         4 RES4    0.0000
    248 C90       13.7960    3.8964    4.6345 C.2       4 RES4    0.0000
    249 C91        8.4770   -0.5680    5.9500 C.3       4 RES4    0.0000
    250 H135       8.0530    0.1800    6.4224 H         4 RES4    0.0000
    251 H136       8.2743   -1.4054    6.4159 H         4 RES4    0.0000
    252 H137       8.1329   -0.6127    5.0344 H         4 RES4    0.0000
    253 C92       14.7601    2.0060    5.5779 C.3       4 RES4    0.0000
    254 H138      15.5615    2.1291    5.0279 H         4 RES4    0.0000
    255 H139      14.1538    1.3756    5.1347 H         4 RES4    0.0000
    256 H140      15.0168    1.6516    6.4547 H         4 RES4    0.0000
@<TRIPOS>BOND
     1    1   56 2
     2    2   27 1
     3    3   56 1
     4    4    6 1
     5    5   27 2
     6    6    7 2
     7    7   20 1
     8    8   13 ar
     9    9   10 1
    10   11    6 1
    11   12   11 1
    12   13   11 1
    13   14    8 1
    14   15   14 1
    15   16   13 ar
    16   17    9 1
    17   18   16 1
    18   19   18 1
    19   20   21 1
    20   22   20 1
    21   23    9 1
    22   24   23 1
    23   25   23 1
    24   26   23 1
    25   27   20 1
    26   28   18 1
    27   29   28 1
    28   30   28 1
    29   31   28 1
    30   32   18 1
    31   33   32 1
    32   34   32 1
    33   35   32 1
    34   36   16 ar
    35   37   36 1
    36   38    8 ar
    37   39   38 1
    38   40   14 1
    39   41   40 1
    40   42   40 1
    41   43   40 1
    42   44    9 1
    43   45   44 1
    44   46   44 1
    45   47   44 1
    46   48   11 1
    47   49   48 1
    48   50   48 1
    49   51   48 1
    50   52    2 1
    51   53   52 1
    52   54   52 1
    53   55   52 1
    54   56    7 1
    55   57   14 1
    56   58   57 1
    57   59   57 1
    58   60   57 1
    59   61    3 1
    60   62   61 1
    61   63   61 1
    62   64   61 1
    63   65   88 2
    64   66   69 1
    65   67   88 1
    66   68  108 1
    67   69   76 1
    68   70  128 2
    69   71   72 1
    70   73   71 1
    71   74   71 1
    72   75   97 ar
    73   76   77 1
    74   78   79 ar
    75   79   76 1
    76   80   71 1
    77   81   80 1
    78   82   83 1
    79   84   80 1
    80   85   84 1
    81   86   84 1
    82   87   84 1
    83   88   92 1
    84   89   90 1
    85   91   89 1
    86   92   69 2
    87   93   82 1
    88   94   93 1
    89   95   93 1
    90   96   93 1
    91   97   78 ar
    92   98   97 1
    93   99   76 1
    94  100   99 1
    95  101   99 1
    96  102   99 1
    97  103  104 1
    98  105  103 1
    99  106  103 1
   100  107   79 ar
   101  108  109 1
   102  110  108 1
   103  111  108 1
   104  112  113 1
   105  114  112 1
   106  115  112 1
   107  116   67 1
   108  117  116 1
   109  118  116 1
   110  119  116 1
   111  120   75 1
   112  121  120 1
   113  122   75 ar
   114  123  122 1
   115  124   82 1
   116  125  124 1
   117  126  124 1
   118  127  124 1
   119  128   68 1
   120  129  165 2
   121  130  133 1
   122  131  165 1
   123  132  170 1
   124  133  137 1
   125  134  135 ar
   126  135  136 1
   127  137  138 1
   128  139  140 1
   129  141  133 2
   130  142  134 1
   131  143  142 1
   132  144  137 1
   133  145  144 1
   134  146  144 1
   135  147  144 1
   136  148  149 1
   137  150  148 1
   138  151  150 1
   139  152  150 1
   140  153  150 1
   141  154  139 1
   142  155  148 1
   143  156  155 1
   144  157  155 1
   145  158  155 1
   146  159  137 1
   147  160  170 2
   148  161  135 ar
   149  162  141 1
   150  163  162 1
   151  164  162 1
   152  165  141 1
   153  166  139 1
   154  167  166 1
   155  168  166 1
   156  169  166 1
   157  170  162 1
   158  171  139 1
   159  172  171 1
   160  173  171 1
   161  174  171 1
   162  175  134 ar
   163  176  175 1
   164  177  131 1
   165  178  177 1
   166  179  177 1
   167  180  177 1
   168  181  142 1
   169  182  181 1
   170  183  181 1
   171  184  181 1
   172  185  132 1
   173  186  185 1
   174  187  185 1
   175  188  185 1
   176  189  142 1
   177  190  189 1
   178  191  189 1
   179  192  189 1
   180  193  197 1
   181  194  213 1
   182  195  248 1
   183  196  248 2
   184  197  205 1
   185  198  199 1
   186  200  240 2
   187  201  211 ar
   188  202  203 ar
   189  203  211 ar
   190  204  198 1
   191  205  202 1
   192  206  205 1
   193  207  198 1
   194  208  207 1
   195  209  207 1
   196  210  207 1
   197  211  212 1
   198  213  214 1
   199  215  213 1
   200  216  213 1
   201  217  197 2
   202  218  201 1
   203  219  218 1
   204  220  205 1
   205  221  220 1
   206  222  220 1
   207  223  220 1
   208  224  203 1
   209  225  224 1
   210  226  201 ar
   211  227  226 1
   212  228  224 1
   213  229  228 1
   214  230  228 1
   215  231  228 1
   216  232  218 1
   217  233  232 1
   218  234  232 1
   219  235  232 1
   220  236  198 1
   221  237  236 1
   222  238  236 1
   223  239  236 1
   224  240  194 1
   225  241  217 1
   226  242  241 1
   227  243  241 1
   228  244  224 1
   229  245  244 1
   230  246  244 1
   231  247  244 1
   232  248  217 1
   233  249  218 1
   234  250  249 1
   235  251  249 1
   236  252  249 1
   237  253  195 1
   238  254  253 1
   239  255  253 1
   240  256  253 1
   241   17   36 ar
   242   17   38 ar
   243   78   80 1
   244   82  107 1
   245   89   92 1
   246   89  128 1
   247  103  120 1
   248  107  122 ar
   249  112  120 1
   250  148  161 1
   251  154  159 ar
   252  154  175 ar
   253  159  161 ar
   254  202  204 ar
   255  204  226 ar
   256  240  241 1
@<TRIPOS>SUBSTRUCTURE
     1 RES1 1
     2 RES2 65
     3 RES3 129
     4 RES4 193

@<TRIPOS>CRYSIN
  15.5530    9.3260   32.4440  90.0000  94.2550  90.0000   4 1

