# MOL2 file generated by ConQuest
# Please check atom types

@<TRIPOS>MOLECULE
XUQNAA
    84    87     1
SMALL
NO_CHARGES
****
Generated from CSD

@<TRIPOS>ATOM
      1 O1        11.0036    3.7047   11.1803 O.3       1 RES1    0.0000
      2 O2        16.8407    2.7857    9.6613 O.3       1 RES1    0.0000
      3 O3        20.3665    2.6778    8.7929 O.3       1 RES1    0.0000
      4 O4        20.0264    4.8962    8.4517 O.3       1 RES1    0.0000
      5 O5        16.7981    4.0907   12.1646 O.3       1 RES1    0.0000
      6 O6        15.7848    4.7157   14.1901 O.3       1 RES1    0.0000
      7 O7        12.1697    5.5705   10.8244 O.2       1 RES1    0.0000
      8 O8        14.0532    3.7195    9.0389 O.3       1 RES1    0.0000
      9 O9        15.3906    5.5045    9.3345 O.2       1 RES1    0.0000
     10 O10       16.9354   -0.0242   11.3923 O.3       1 RES1    0.0000
     11 O11       18.7125    0.3944   10.0291 O.3       1 RES1    0.0000
     12 N1        15.6621    3.2601   11.7317 N.3       1 RES1    0.0000
     13 C1         9.3520    5.3770   11.8046 C.3       1 RES1    0.0000
     14 H1         8.4581    5.6840   11.6371 H         1 RES1    0.0000
     15 H2         9.9665    6.1072   11.6986 H         1 RES1    0.0000
     16 H3         9.4102    5.0357   12.6998 H         1 RES1    0.0000
     17 C2         9.6905    4.3065   10.8466 C.3       1 RES1    0.0000
     18 C3        12.1096    4.4162   11.1424 C.2       1 RES1    0.0000
     19 C4        13.2832    3.6014   11.5974 C.3       1 RES1    0.0000
     20 H4        13.2383    2.7262   11.1816 H         1 RES1    0.0000
     21 H5        13.2231    3.4749   12.5571 H         1 RES1    0.0000
     22 C5        14.6359    4.2376   11.2646 C.3       1 RES1    0.0000
     23 C6        16.1726    2.2714   10.8267 C.3       1 RES1    0.0000
     24 H6        15.4233    1.7142   10.5286 H         1 RES1    0.0000
     25 C7        18.2503    2.8071    9.9122 C.3       1 RES1    0.0000
     26 H7        18.4719    3.6144   10.4213 H         1 RES1    0.0000
     27 C8        18.9653    2.8564    8.5825 C.3       1 RES1    0.0000
     28 H8        18.6165    2.1681    7.9779 H         1 RES1    0.0000
     29 C9        21.0332    3.9214    8.5930 C.3       1 RES1    0.0000
     30 C10       21.8066    4.2116    9.8808 C.3       1 RES1    0.0000
     31 H9        21.1884    4.4069   10.5888 H         1 RES1    0.0000
     32 H10       22.3841    4.9650    9.7447 H         1 RES1    0.0000
     33 H11       22.3325    3.4442   10.1190 H         1 RES1    0.0000
     34 C11       21.9119    3.8135    7.3654 C.3       1 RES1    0.0000
     35 H12       22.4739    4.5883    7.3052 H         1 RES1    0.0000
     36 H13       21.3599    3.7577    6.5815 H         1 RES1    0.0000
     37 H14       22.4568    3.0257    7.4296 H         1 RES1    0.0000
     38 C12       18.8918    4.2320    7.9269 C.3       1 RES1    0.0000
     39 H15       18.9427    4.1632    6.9610 H         1 RES1    0.0000
     40 H16       18.0746    4.6925    8.1690 H         1 RES1    0.0000
     41 C13       16.1821    5.1222   12.9131 C.3       1 RES1    0.0000
     42 H17       16.7807    5.8942   12.9785 H         1 RES1    0.0000
     43 C14       16.8743    4.3678   15.0332 C.3       1 RES1    0.0000
     44 H18       17.5133    5.0961   15.0698 H         1 RES1    0.0000
     45 H19       17.3263    3.5810   14.6877 H         1 RES1    0.0000
     46 C15       16.3309    4.0888   16.4086 C.3       1 RES1    0.0000
     47 H20       15.7225    3.3466   16.3681 H         1 RES1    0.0000
     48 H21       15.8687    4.8645   16.7332 H         1 RES1    0.0000
     49 H22       17.0542    3.8767   17.0028 H         1 RES1    0.0000
     50 C16       14.9403    5.4914   12.1148 C.3       1 RES1    0.0000
     51 H23       15.1119    6.2597   11.5481 H         1 RES1    0.0000
     52 H24       14.1980    5.6961   12.7063 H         1 RES1    0.0000
     53 C17        9.6781    4.8162    9.4280 C.3       1 RES1    0.0000
     54 H25       10.3604    5.4812    9.3207 H         1 RES1    0.0000
     55 H26        8.8225    5.2031    9.2343 H         1 RES1    0.0000
     56 H27        9.8431    4.0869    8.8247 H         1 RES1    0.0000
     57 C18       14.7483    4.5836    9.7656 C.2       1 RES1    0.0000
     58 C19       13.8880    3.8702    7.5683 C.3       1 RES1    0.0000
     59 C20       15.2242    3.7102    6.8891 C.3       1 RES1    0.0000
     60 H28       15.8202    4.4013    7.1888 H         1 RES1    0.0000
     61 H29       15.1107    3.7763    5.9389 H         1 RES1    0.0000
     62 H30       15.5934    2.8517    7.1076 H         1 RES1    0.0000
     63 C21       12.9465    2.7485    7.2398 C.3       1 RES1    0.0000
     64 H31       12.7340    2.7736    6.3041 H         1 RES1    0.0000
     65 H32       12.1403    2.8452    7.7541 H         1 RES1    0.0000
     66 H33       13.3616    1.9095    7.4505 H         1 RES1    0.0000
     67 C22       13.2610    5.2050    7.2764 C.3       1 RES1    0.0000
     68 H34       13.8573    5.9053    7.5500 H         1 RES1    0.0000
     69 H35       12.4343    5.2822    7.7567 H         1 RES1    0.0000
     70 H36       13.0911    5.2794    6.3342 H         1 RES1    0.0000
     71 C23       17.2022    1.3589   11.5258 C.3       1 RES1    0.0000
     72 H37       17.2945    1.6035   12.4707 H         1 RES1    0.0000
     73 C24       17.6318   -0.5171   10.2394 C.3       1 RES1    0.0000
     74 C25       18.5214    1.5859   10.7799 C.3       1 RES1    0.0000
     75 H38       19.2641    1.7430   11.4015 H         1 RES1    0.0000
     76 C26       18.1949   -1.8733   10.5679 C.3       1 RES1    0.0000
     77 H39       18.6579   -1.8323   11.4081 H         1 RES1    0.0000
     78 H40       18.8089   -2.1402    9.8782 H         1 RES1    0.0000
     79 H41       17.4807   -2.5113   10.6254 H         1 RES1    0.0000
     80 C27       16.7296   -0.5571    9.0367 C.3       1 RES1    0.0000
     81 H42       17.2048   -0.9320    8.2920 H         1 RES1    0.0000
     82 H43       16.4462    0.3339    8.8194 H         1 RES1    0.0000
     83 H44       15.9620   -1.0994    9.2304 H         1 RES1    0.0000
     84 C28        8.7531    3.1615   11.0037 C.3       1 RES1    0.0000
@<TRIPOS>BOND
     1    1   17 1
     2    2   23 1
     3    3   27 1
     4    4   29 1
     5    5   12 1
     6    6   41 1
     7    7   18 2
     8    8   57 1
     9    9   57 2
    10   10   71 1
    11   11   73 1
    12   12   22 1
    13   13   14 1
    14   15   13 1
    15   16   13 1
    16   17   13 1
    17   18    1 1
    18   19   18 1
    19   20   19 1
    20   21   19 1
    21   22   19 1
    22   23   12 1
    23   24   23 1
    24   25    2 1
    25   26   25 1
    26   27   25 1
    27   28   27 1
    28   29    3 1
    29   30   29 1
    30   31   30 1
    31   32   30 1
    32   33   30 1
    33   34   29 1
    34   35   34 1
    35   36   34 1
    36   37   34 1
    37   38    4 1
    38   39   38 1
    39   40   38 1
    40   41    5 1
    41   42   41 1
    42   43    6 1
    43   44   43 1
    44   45   43 1
    45   46   43 1
    46   47   46 1
    47   48   46 1
    48   49   46 1
    49   50   22 1
    50   51   50 1
    51   52   50 1
    52   53   17 1
    53   54   53 1
    54   55   53 1
    55   56   53 1
    56   57   22 1
    57   58    8 1
    58   59   58 1
    59   60   59 1
    60   61   59 1
    61   62   59 1
    62   63   58 1
    63   64   63 1
    64   65   63 1
    65   66   63 1
    66   67   58 1
    67   68   67 1
    68   69   67 1
    69   70   67 1
    70   71   23 1
    71   72   71 1
    72   73   10 1
    73   74   11 1
    74   75   74 1
    75   76   73 1
    76   77   76 1
    77   78   76 1
    78   79   76 1
    79   80   73 1
    80   81   80 1
    81   82   80 1
    82   83   80 1
    83   84   17 1
    84   25   74 1
    85   27   38 1
    86   41   50 1
    87   71   74 1
@<TRIPOS>SUBSTRUCTURE
     1 RES1 1

@<TRIPOS>CRYSIN
  26.5845    9.3012   14.1691  90.0000 112.5360  90.0000   5 1

