# MOL2 file generated by ConQuest
# Please check atom types

@<TRIPOS>MOLECULE
XUQTUZ
    40    41     1
SMALL
NO_CHARGES
****
Generated from CSD

@<TRIPOS>ATOM
      1 N1         1.9498   11.9000   19.6905 N.pl3     1 RES1    0.0000
      2 O1         0.9309   11.9680   20.3450 O.2       1 RES1    0.0000
      3 O2         3.0453   12.2031   20.1061 O.2       1 RES1    0.0000
      4 C1         1.8522   11.4227   18.2933 C.3       1 RES1    0.0000
      5 H1         1.7206   10.4609   18.2912 H         1 RES1    0.0000
      6 H2         2.6856   11.6096   17.8315 H         1 RES1    0.0000
      7 C2         0.6859   12.0969   17.5284 C.3       1 RES1    0.0000
      8 H3        -0.1594   11.8108   17.9339 H         1 RES1    0.0000
      9 C3         0.7823   13.6055   17.6287 C.ar      1 RES1    0.0000
     10 C4         1.8579   14.2868   17.0686 C.ar      1 RES1    0.0000
     11 H4         2.5086   13.8208   16.5948 H         1 RES1    0.0000
     12 C5         1.9606   15.6608   17.2172 C.ar      1 RES1    0.0000
     13 H5         2.6913   16.1084   16.8558 H         1 RES1    0.0000
     14 C6         1.0036   16.3705   17.8897 C.ar      1 RES1    0.0000
     15 H6         1.0779   17.2940   17.9740 H         1 RES1    0.0000
     16 C7        -0.0692   15.7076   18.4358 C.ar      1 RES1    0.0000
     17 H7        -0.7227   16.1821   18.8975 H         1 RES1    0.0000
     18 C8        -0.1736   14.3435   18.3013 C.ar      1 RES1    0.0000
     19 H8        -0.9065   13.9058   18.6707 H         1 RES1    0.0000
     20 C9         0.7347   11.5856   16.0769 C.3       1 RES1    0.0000
     21 H9         1.5816   11.8830   15.6814 H         1 RES1    0.0000
     22 C10       -0.3852   12.1890   15.2738 C.2       1 RES1    0.0000
     23 O3        -1.4971   12.3462   15.7737 O.2       1 RES1    0.0000
     24 C11       -0.1866   12.5006   13.8163 C.ar      1 RES1    0.0000
     25 C12        0.9672   12.1068   13.1337 C.ar      1 RES1    0.0000
     26 H10        1.6531   11.6720   13.5874 H         1 RES1    0.0000
     27 C13        1.0841   12.3646   11.7846 C.ar      1 RES1    0.0000
     28 H11        1.8301   12.0629   11.3168 H         1 RES1    0.0000
     29 C14        0.1010   13.0658   11.1261 C.ar      1 RES1    0.0000
     30 H12        0.1923   13.2485   10.2187 H         1 RES1    0.0000
     31 C15       -1.0211   13.5035   11.8027 C.ar      1 RES1    0.0000
     32 H13       -1.6786   13.9894   11.3590 H         1 RES1    0.0000
     33 C16       -1.1539   13.2131   13.1377 C.ar      1 RES1    0.0000
     34 H14       -1.9112   13.5007   13.5955 H         1 RES1    0.0000
     35 C17        0.6728   10.0656   15.9644 C.2       1 RES1    0.0000
     36 O4         1.6338    9.4608   15.5509 O.2       1 RES1    0.0000
     37 C18       -0.5565    9.3447   16.4081 C.3       1 RES1    0.0000
     38 H15       -0.5435    8.4494   16.0628 H         1 RES1    0.0000
     39 H16       -1.3332    9.8036   16.0769 H         1 RES1    0.0000
     40 H17       -0.5849    9.3192   17.3657 H         1 RES1    0.0000
@<TRIPOS>BOND
     1    1    2 2
     2    3    1 2
     3    4    1 1
     4    5    4 1
     5    6    4 1
     6    7    4 1
     7    8    7 1
     8    9    7 1
     9   10    9 ar
    10   11   10 1
    11   12   10 ar
    12   13   12 1
    13   14   12 ar
    14   15   14 1
    15   16   14 ar
    16   17   16 1
    17   18    9 ar
    18   19   18 1
    19   20    7 1
    20   21   20 1
    21   22   20 1
    22   23   22 2
    23   24   22 1
    24   25   24 ar
    25   26   25 1
    26   27   25 ar
    27   28   27 1
    28   29   27 ar
    29   30   29 1
    30   31   29 ar
    31   32   31 1
    32   33   24 ar
    33   34   33 1
    34   35   20 1
    35   36   35 2
    36   37   35 1
    37   38   37 1
    38   39   37 1
    39   40   37 1
    40   16   18 ar
    41   31   33 ar
@<TRIPOS>SUBSTRUCTURE
     1 RES1 1

@<TRIPOS>CRYSIN
   5.6730   14.1650   20.0760  90.0000  90.0000  90.0000  19 1

