# MOL2 file generated by ConQuest
# Please check atom types

@<TRIPOS>MOLECULE
XURBOC
    55    57     1
SMALL
NO_CHARGES
****
Generated from CSD

@<TRIPOS>ATOM
      1 C1        10.5690    0.8742   14.8650 C.2       1 RES1    0.0000
      2 H1        11.4846    0.9068   15.0245 H         1 RES1    0.0000
      3 C2         9.7273    1.4747   15.7950 C.2       1 RES1    0.0000
      4 H2         8.8225    1.5110   15.5819 H         1 RES1    0.0000
      5 C3        10.1077    2.0222   17.0041 C.2       1 RES1    0.0000
      6 C4        11.4578    2.0998   17.5060 C.2       1 RES1    0.0000
      7 C5         9.3086    2.6525   18.0080 C.2       1 RES1    0.0000
      8 C6         7.8413    2.7539   18.1147 C.ar      1 RES1    0.0000
      9 C7         7.2494    3.8522   18.7211 C.ar      1 RES1    0.0000
     10 H3         7.7764    4.5643   19.0020 H         1 RES1    0.0000
     11 C8         5.8829    3.8949   18.9111 C.ar      1 RES1    0.0000
     12 H4         5.5016    4.6359   19.3220 H         1 RES1    0.0000
     13 C9         5.0853    2.8700   18.5064 C.ar      1 RES1    0.0000
     14 H5         4.1655    2.9076   18.6400 H         1 RES1    0.0000
     15 C10        5.6545    1.7815   17.8995 C.ar      1 RES1    0.0000
     16 H6         5.1162    1.0776   17.6161 H         1 RES1    0.0000
     17 C11        7.0211    1.7186   17.7040 C.ar      1 RES1    0.0000
     18 H7         7.3942    0.9721   17.2928 H         1 RES1    0.0000
     19 C12       10.1339    0.2276   13.7101 C.2       1 RES1    0.0000
     20 C13       11.0600   -0.4758   12.8871 C.2       1 RES1    0.0000
     21 H8        11.9670   -0.4308   13.0879 H         1 RES1    0.0000
     22 C14       10.6616   -1.1995   11.8352 C.2       1 RES1    0.0000
     23 C15        8.7749    0.1552   13.2824 C.2       1 RES1    0.0000
     24 H9         8.1240    0.6217   13.7564 H         1 RES1    0.0000
     25 C16        8.4133   -0.5690   12.2137 C.2       1 RES1    0.0000
     26 C17       11.4902   -2.0498   10.9048 C.3       1 RES1    0.0000
     27 C18       12.9585   -1.9933   11.2789 C.3       1 RES1    0.0000
     28 H10       13.4639   -2.5409   10.6747 H         1 RES1    0.0000
     29 H11       13.0727   -2.3161   12.1752 H         1 RES1    0.0000
     30 H12       13.2681   -1.0864   11.2237 H         1 RES1    0.0000
     31 C19       11.3149   -1.5190    9.4752 C.3       1 RES1    0.0000
     32 H13       11.8313   -2.0548    8.8695 H         1 RES1    0.0000
     33 H14       11.6156   -0.6079    9.4336 H         1 RES1    0.0000
     34 H15       10.3881   -1.5612    9.2299 H         1 RES1    0.0000
     35 C20       10.9959   -3.4951   10.9843 C.3       1 RES1    0.0000
     36 H16       11.5131   -4.0431   10.3901 H         1 RES1    0.0000
     37 H17       10.0713   -3.5319   10.7286 H         1 RES1    0.0000
     38 H18       11.0920   -3.8170   11.8838 H         1 RES1    0.0000
     39 C21        7.0353   -0.7944   11.6553 C.3       1 RES1    0.0000
     40 C22        6.9901   -0.3178   10.1950 C.3       1 RES1    0.0000
     41 H19        6.1109   -0.4622    9.8378 H         1 RES1    0.0000
     42 H20        7.6309   -0.8101    9.6778 H         1 RES1    0.0000
     43 H21        7.1997    0.6192   10.1578 H         1 RES1    0.0000
     44 C23        6.7336   -2.2985   11.7313 C.3       1 RES1    0.0000
     45 H22        5.8553   -2.4668   11.3820 H         1 RES1    0.0000
     46 H23        6.7757   -2.5874   12.6450 H         1 RES1    0.0000
     47 H24        7.3817   -2.7820   11.2136 H         1 RES1    0.0000
     48 C24        5.9936   -0.0214   12.4614 C.3       1 RES1    0.0000
     49 H25        5.1217   -0.1821   12.0943 H         1 RES1    0.0000
     50 H26        6.1897    0.9169   12.4210 H         1 RES1    0.0000
     51 H27        6.0149   -0.3153   13.3758 H         1 RES1    0.0000
     52 N1        10.0352    3.1331   18.9808 N.2       1 RES1    0.0000
     53 O1         9.3463   -1.2468   11.4921 O.3       1 RES1    0.0000
     54 O2        11.4060    2.8270   18.6775 O.3       1 RES1    0.0000
     55 O3        12.5229    1.6651   17.1173 O.2       1 RES1    0.0000
@<TRIPOS>BOND
     1    1    2 1
     2    3    1 1
     3    4    3 1
     4    5    3 2
     5    6    5 1
     6    7    5 1
     7    8    7 1
     8    9    8 ar
     9   10    9 1
    10   11    9 ar
    11   12   11 1
    12   13   11 ar
    13   14   13 1
    14   15   13 ar
    15   16   15 1
    16   17    8 ar
    17   18   17 1
    18   19    1 2
    19   20   19 1
    20   21   20 1
    21   22   20 2
    22   23   19 1
    23   24   23 1
    24   25   23 2
    25   26   22 1
    26   27   26 1
    27   28   27 1
    28   29   27 1
    29   30   27 1
    30   31   26 1
    31   32   31 1
    32   33   31 1
    33   34   31 1
    34   35   26 1
    35   36   35 1
    36   37   35 1
    37   38   35 1
    38   39   25 1
    39   40   39 1
    40   41   40 1
    41   42   40 1
    42   43   40 1
    43   44   39 1
    44   45   44 1
    45   46   44 1
    46   47   44 1
    47   48   39 1
    48   49   48 1
    49   50   48 1
    50   51   48 1
    51   52    7 2
    52   53   22 1
    53   54    6 1
    54   55    6 2
    55   15   17 ar
    56   25   53 1
    57   52   54 1
@<TRIPOS>SUBSTRUCTURE
     1 RES1 1

@<TRIPOS>CRYSIN
  10.3400   12.5600   16.8430  90.0000  91.1200  90.0000 231 1

