# MOL2 file generated by ConQuest
# Please check atom types

@<TRIPOS>MOLECULE
XURHEY
    50    52     1
SMALL
NO_CHARGES
****
Generated from CSD

@<TRIPOS>ATOM
      1 C1         2.6689    5.1719    2.2072 C.3       1 RES1    0.0000
      2 C2         2.8962    3.7222    2.6941 C.3       1 RES1    0.0000
      3 H1         3.7254    3.3922    2.3141 H         1 RES1    0.0000
      4 H2         2.9983    3.7297    3.6582 H         1 RES1    0.0000
      5 C3         1.7676    2.7552    2.3257 C.3       1 RES1    0.0000
      6 H3         1.7316    2.6424    1.3626 H         1 RES1    0.0000
      7 H4         1.9311    1.8879    2.7281 H         1 RES1    0.0000
      8 C4         0.4802    3.3047    2.8185 C.2       1 RES1    0.0000
      9 C5         0.1698    4.6616    2.2810 C.3       1 RES1    0.0000
     10 H5        -0.6751    4.9645    2.6474 H         1 RES1    0.0000
     11 H6         0.0747    4.6086    1.3169 H         1 RES1    0.0000
     12 C6         1.2756    5.6913    2.6309 C.3       1 RES1    0.0000
     13 H7         1.0984    6.4804    2.0779 H         1 RES1    0.0000
     14 C7         1.1678    6.1509    4.0693 C.3       1 RES1    0.0000
     15 H8         1.7730    5.6176    4.6096 H         1 RES1    0.0000
     16 H9         0.2657    5.9758    4.3822 H         1 RES1    0.0000
     17 C8         1.4835    7.6265    4.2996 C.3       1 RES1    0.0000
     18 H10        0.8964    8.1506    3.7320 H         1 RES1    0.0000
     19 H11        1.2619    7.8419    5.2190 H         1 RES1    0.0000
     20 C9         2.9118    8.0780    4.0440 C.3       1 RES1    0.0000
     21 H12        3.4622    7.7958    4.7914 H         1 RES1    0.0000
     22 H13        2.9271    9.0479    4.0187 H         1 RES1    0.0000
     23 C10        3.5387    7.5525    2.7602 C.3       1 RES1    0.0000
     24 H14        4.3936    7.9881    2.6134 H         1 RES1    0.0000
     25 H15        2.9621    7.7578    2.0079 H         1 RES1    0.0000
     26 C11        3.7430    6.0442    2.8518 C.3       1 RES1    0.0000
     27 H16        3.7885    5.8077    3.8020 H         1 RES1    0.0000
     28 C12        2.7756    5.2387    0.6667 C.3       1 RES1    0.0000
     29 H17        2.7225    6.1544    0.3820 H         1 RES1    0.0000
     30 H18        2.0562    4.7399    0.2731 H         1 RES1    0.0000
     31 H19        3.6137    4.8643    0.3868 H         1 RES1    0.0000
     32 C13        6.1156    5.9505    2.9242 C.2       1 RES1    0.0000
     33 C14        7.3564    5.4523    2.2642 C.ar      1 RES1    0.0000
     34 C15        7.3295    4.5452    1.2168 C.ar      1 RES1    0.0000
     35 H20        6.5204    4.2239    0.8912 H         1 RES1    0.0000
     36 C16        8.5228    4.1262    0.6653 C.ar      1 RES1    0.0000
     37 C17        9.7455    4.5733    1.1165 C.ar      1 RES1    0.0000
     38 H21       10.5420    4.2884    0.7299 H         1 RES1    0.0000
     39 C18        9.7315    5.4604    2.1664 C.ar      1 RES1    0.0000
     40 C19        8.5708    5.9089    2.7499 C.ar      1 RES1    0.0000
     41 H22        8.6007    6.5092    3.4599 H         1 RES1    0.0000
     42 N1         8.4884    3.2171   -0.4893 N.pl3     1 RES1    0.0000
     43 N2        11.0188    5.9611    2.6822 N.pl3     1 RES1    0.0000
     44 O1        -0.2413    2.7149    3.5999 O.2       1 RES1    0.0000
     45 O2         5.0244    5.6502    2.2295 O.3       1 RES1    0.0000
     46 O3         6.1287    6.5590    3.9652 O.2       1 RES1    0.0000
     47 O4         7.4204    2.6937   -0.7653 O.2       1 RES1    0.0000
     48 O5         9.5185    3.0521   -1.1202 O.2       1 RES1    0.0000
     49 O6        12.0388    5.4562    2.2606 O.2       1 RES1    0.0000
     50 O7        10.9922    6.8485    3.5165 O.2       1 RES1    0.0000
@<TRIPOS>BOND
     1    1    2 1
     2    2    3 1
     3    4    2 1
     4    5    2 1
     5    6    5 1
     6    7    5 1
     7    8    5 1
     8    9    8 1
     9   10    9 1
    10   11    9 1
    11   12    1 1
    12   13   12 1
    13   14   12 1
    14   15   14 1
    15   16   14 1
    16   17   14 1
    17   18   17 1
    18   19   17 1
    19   20   17 1
    20   21   20 1
    21   22   20 1
    22   23   20 1
    23   24   23 1
    24   25   23 1
    25   26    1 1
    26   27   26 1
    27   28    1 1
    28   29   28 1
    29   30   28 1
    30   31   28 1
    31   32   33 1
    32   33   34 ar
    33   34   35 1
    34   36   34 ar
    35   37   36 ar
    36   38   37 1
    37   39   37 ar
    38   40   33 ar
    39   41   40 1
    40   42   36 1
    41   43   39 1
    42   44    8 2
    43   45   26 1
    44   46   32 2
    45   47   42 2
    46   48   42 2
    47   49   43 2
    48   50   43 2
    49    9   12 1
    50   23   26 1
    51   32   45 1
    52   39   40 ar
@<TRIPOS>SUBSTRUCTURE
     1 RES1 1

@<TRIPOS>CRYSIN
  16.6110   11.5186    9.8507  90.0000  99.3850  90.0000  14 1

