# MOL2 file generated by ConQuest
# Please check atom types

@<TRIPOS>MOLECULE
XUSHUQ
    46    49     1
SMALL
NO_CHARGES
****
Generated from CSD

@<TRIPOS>ATOM
      1 C1         1.7389    3.0124    4.1665 C.ar      1 RES1    0.0000
      2 N1         1.0121    3.2871    3.0641 N.ar      1 RES1    0.0000
      3 C2         1.1248    4.4813    2.4603 C.ar      1 RES1    0.0000
      4 H1         0.5802    4.6051    1.6927 H         1 RES1    0.0000
      5 N2         1.8884    5.5076    2.7884 N.ar      1 RES1    0.0000
      6 C3         2.6042    5.2239    3.8900 C.ar      1 RES1    0.0000
      7 C4         2.5691    4.0477    4.6382 C.ar      1 RES1    0.0000
      8 N3         3.4238    4.1825    5.7271 N.2       1 RES1    0.0000
      9 C5         3.9351    5.3879    5.5851 C.2       1 RES1    0.0000
     10 H2         4.5675    5.7501    6.1938 H         1 RES1    0.0000
     11 N4         3.4888    6.0721    4.5041 N.pl3     1 RES1    0.0000
     12 C6         3.9492    7.3609    3.9569 C.3       1 RES1    0.0000
     13 H3         3.1505    7.8660    3.6303 H         1 RES1    0.0000
     14 C7         4.8617    7.1144    2.7868 C.3       1 RES1    0.0000
     15 H4         5.6601    6.6335    3.0904 H         1 RES1    0.0000
     16 H5         5.1274    7.9716    2.3930 H         1 RES1    0.0000
     17 H6         4.3937    6.5771    2.1138 H         1 RES1    0.0000
     18 C8         4.6253    8.1870    5.0338 C.3       1 RES1    0.0000
     19 H7         4.0282    8.2685    5.8057 H         1 RES1    0.0000
     20 H8         4.8282    9.0794    4.6815 H         1 RES1    0.0000
     21 H9         5.4571    7.7483    5.3087 H         1 RES1    0.0000
     22 C9         1.5856    1.6803    4.7978 C.ar      1 RES1    0.0000
     23 C10        2.2231    1.4478    6.0262 C.ar      1 RES1    0.0000
     24 H10        2.7851    2.1230    6.3885 H         1 RES1    0.0000
     25 C11        2.0588    0.2707    6.7251 C.ar      1 RES1    0.0000
     26 H11        2.5044    0.1429    7.5543 H         1 RES1    0.0000
     27 C12        1.2442   -0.7244    6.2167 C.ar      1 RES1    0.0000
     28 H12        1.1120   -1.5283    6.7065 H         1 RES1    0.0000
     29 C13        0.6272   -0.5463    5.0051 C.ar      1 RES1    0.0000
     30 H13        0.0795   -1.2416    4.6600 H         1 RES1    0.0000
     31 C14        0.7821    0.6319    4.2605 C.ar      1 RES1    0.0000
     32 N5         0.0970    0.8180    3.0723 N.pl3     1 RES1    0.0000
     33 H14        0.6506    1.3533    2.5692 H         1 RES1    0.0000
     34 C15       -0.3696   -0.1449    2.1743 C.ar      1 RES1    0.0000
     35 C16       -1.3623    0.2676    1.2853 C.ar      1 RES1    0.0000
     36 H15       -1.7337    1.1390    1.3519 H         1 RES1    0.0000
     37 C17       -1.7987   -0.6017    0.3079 C.ar      1 RES1    0.0000
     38 C18       -1.3176   -1.8855    0.1819 C.ar      1 RES1    0.0000
     39 H16       -1.6473   -2.4731   -0.4869 H         1 RES1    0.0000
     40 C19       -0.3364   -2.2860    1.0669 C.ar      1 RES1    0.0000
     41 H17        0.0203   -3.1633    0.9996 H         1 RES1    0.0000
     42 C20        0.1355   -1.4378    2.0422 C.ar      1 RES1    0.0000
     43 H18        0.8157   -1.7376    2.6336 H         1 RES1    0.0000
     44 N6        -2.8244   -0.1288   -0.6321 N.pl3     1 RES1    0.0000
     45 O1        -3.2060   -0.8955   -1.5074 O.2       1 RES1    0.0000
     46 O2        -3.2531    1.0142   -0.5018 O.2       1 RES1    0.0000
@<TRIPOS>BOND
     1    1    2 ar
     2    2    3 ar
     3    3    4 1
     4    5    3 ar
     5    6    5 ar
     6    7    1 ar
     7    8    7 1
     8    9    8 2
     9   10    9 1
    10   11    6 1
    11   12   11 1
    12   13   12 1
    13   14   12 1
    14   15   14 1
    15   16   14 1
    16   17   14 1
    17   18   12 1
    18   19   18 1
    19   20   18 1
    20   21   18 1
    21   22    1 1
    22   23   22 ar
    23   24   23 1
    24   25   23 ar
    25   26   25 1
    26   27   25 ar
    27   28   27 1
    28   29   27 ar
    29   30   29 1
    30   31   22 ar
    31   32   31 1
    32   33   32 1
    33   34   32 1
    34   35   34 ar
    35   36   35 1
    36   37   35 ar
    37   38   37 ar
    38   39   38 1
    39   40   38 ar
    40   41   40 1
    41   42   34 ar
    42   43   42 1
    43   44   37 1
    44   45   44 2
    45   46   44 2
    46    6    7 ar
    47    9   11 1
    48   29   31 ar
    49   40   42 ar
@<TRIPOS>SUBSTRUCTURE
     1 RES1 1

@<TRIPOS>CRYSIN
  12.4390   10.0614   14.7780  90.0000 104.2880  90.0000  14 1

