# MOL2 file generated by ConQuest
# Please check atom types

@<TRIPOS>MOLECULE
XUSPIL
    47    48     1
SMALL
NO_CHARGES
****
Generated from CSD

@<TRIPOS>ATOM
      1 O1         2.0754    5.8416    2.6923 O.3       1 RES1    0.0000
      2 C1         1.3600    5.1990    3.6589 C.ar      1 RES1    0.0000
      3 O2         0.1340    9.2509    3.2115 O.3       1 RES1    0.0000
      4 C2         0.3436    5.8465    4.3848 C.ar      1 RES1    0.0000
      5 C3        -0.3495    5.1345    5.3762 C.ar      1 RES1    0.0000
      6 C4        -0.0605    3.8075    5.6780 C.ar      1 RES1    0.0000
      7 C5         0.9564    3.2045    4.9331 C.ar      1 RES1    0.0000
      8 N1         2.0505    2.2364    2.0710 N.3       1 RES1    0.0000
      9 C6         1.6471    3.8570    3.9162 C.ar      1 RES1    0.0000
     10 C7        -0.0181    7.2379    4.1340 C.2       1 RES1    0.0000
     11 N2         0.6721    7.9771    3.3479 N.2       1 RES1    0.0000
     12 C8        -0.7903    3.0491    6.7941 C.3       1 RES1    0.0000
     13 C9        -0.0754    3.3144    8.1191 C.3       1 RES1    0.0000
     14 C10       -0.8073    1.5442    6.5193 C.3       1 RES1    0.0000
     15 C11       -2.2457    3.5056    6.9302 C.3       1 RES1    0.0000
     16 C12        2.6759    3.0992    3.1083 C.3       1 RES1    0.0000
     17 C13        1.4047    3.0595    1.0262 C.3       1 RES1    0.0000
     18 C14        0.7572    2.1779   -0.0321 C.3       1 RES1    0.0000
     19 C15        1.7843    1.2549   -0.6721 C.3       1 RES1    0.0000
     20 C16        2.5044    0.4582    0.4108 C.3       1 RES1    0.0000
     21 C17        3.0907    1.3804    1.4710 C.3       1 RES1    0.0000
     22 H1        -1.0745    5.5993    5.8806 H         1 RES1    0.0000
     23 H2         1.1979    2.2584    5.1434 H         1 RES1    0.0000
     24 H3        -0.8199    7.6269    4.5881 H         1 RES1    0.0000
     25 H4        -0.5448    2.8245    8.8555 H         1 RES1    0.0000
     26 H5        -0.0810    4.2947    8.3153 H         1 RES1    0.0000
     27 H6         0.8699    2.9935    8.0583 H         1 RES1    0.0000
     28 H7        -1.2932    1.0790    7.2574 H         1 RES1    0.0000
     29 H8         0.1266    1.2051    6.4620 H         1 RES1    0.0000
     30 H9        -1.2820    1.3732    5.6517 H         1 RES1    0.0000
     31 H10       -2.6858    2.9943    7.6682 H         1 RES1    0.0000
     32 H11       -2.2677    4.4851    7.1486 H         1 RES1    0.0000
     33 H12       -2.7301    3.3451    6.0738 H         1 RES1    0.0000
     34 H13        3.2799    3.7569    2.6598 H         1 RES1    0.0000
     35 H14        3.2093    2.5226    3.7272 H         1 RES1    0.0000
     36 H15        2.0933    3.6385    0.5927 H         1 RES1    0.0000
     37 H16        0.7024    3.6325    1.4481 H         1 RES1    0.0000
     38 H17        0.3555    2.7593   -0.7391 H         1 RES1    0.0000
     39 H18        0.0401    1.6271    0.3958 H         1 RES1    0.0000
     40 H19        2.4491    1.7969   -1.1836 H         1 RES1    0.0000
     41 H20        1.3202    0.6227   -1.2943 H         1 RES1    0.0000
     42 H21        3.2381   -0.0703   -0.0075 H         1 RES1    0.0000
     43 H22        1.8500   -0.1630    0.8460 H         1 RES1    0.0000
     44 H23        3.7866    1.9616    1.0467 H         1 RES1    0.0000
     45 H24        3.5130    0.8269    2.1872 H         1 RES1    0.0000
     46 H25        1.8069    6.6097    2.6617 H         1 RES1    0.0000
     47 H26        0.7560    9.7146    2.8643 H         1 RES1    0.0000
@<TRIPOS>BOND
     1    1    2 1
     2    2    4 ar
     3    3   11 1
     4    4    5 ar
     5    5    6 ar
     6    6    7 ar
     7    7    9 ar
     8    8   16 1
     9    9    2 ar
    10   10    4 1
    11   11   10 2
    12   12    6 1
    13   13   12 1
    14   14   12 1
    15   15   12 1
    16   16    9 1
    17   17    8 1
    18   18   17 1
    19   19   18 1
    20   20   19 1
    21   21    8 1
    22   22    5 1
    23   23    7 1
    24   24   10 1
    25   25   13 1
    26   26   13 1
    27   27   13 1
    28   28   14 1
    29   29   14 1
    30   30   14 1
    31   31   15 1
    32   32   15 1
    33   33   15 1
    34   34   16 1
    35   35   16 1
    36   36   17 1
    37   37   17 1
    38   38   18 1
    39   39   18 1
    40   40   19 1
    41   41   19 1
    42   42   20 1
    43   43   20 1
    44   44   21 1
    45   45   21 1
    46   46    1 1
    47   47    3 1
    48   20   21 1
@<TRIPOS>SUBSTRUCTURE
     1 RES1 1

@<TRIPOS>CRYSIN
  20.1661    8.5773   20.6403  90.0000 114.6610  90.0000  15 1

