# MOL2 file generated by ConQuest
# Please check atom types

@<TRIPOS>MOLECULE
XUSQUX
   157   166     3
SMALL
NO_CHARGES
****
Generated from CSD

@<TRIPOS>ATOM
      1 C1         6.2777    5.7627    4.0081 C.ar      1 RES1    0.0000
      2 C2        -1.1839    1.4542   11.2362 C.3       2 RES2    0.0000
      3 H1        -1.3948    1.9513   12.0304 H         2 RES2    0.0000
      4 H2        -0.5749    1.9606   10.6954 H         2 RES2    0.0000
      5 H3        -0.7773    0.6196   11.4802 H         2 RES2    0.0000
      6 C3        -3.4585    0.4092   11.2906 C.3       2 RES2    0.0000
      7 H4        -3.0882   -0.4462   11.5175 H         2 RES2    0.0000
      8 H5        -4.2686    0.2844   10.7902 H         2 RES2    0.0000
      9 H6        -3.6516    0.8982   12.0941 H         2 RES2    0.0000
     10 C4         1.8833    6.7649    7.5406 C.ar      2 RES2    0.0000
     11 H7         2.7419    6.4170    7.4613 H         2 RES2    0.0000
     12 C5         3.4780    8.7463   -1.0754 C.3       3 RES3    0.0000
     13 H8         3.2051    8.6538   -1.9908 H         3 RES3    0.0000
     14 H9         4.4367    8.7683   -1.0273 H         3 RES3    0.0000
     15 H10        3.1205    9.5624   -0.7164 H         3 RES3    0.0000
     16 C6         0.0750    1.2728    6.7402 C.3       2 RES2    0.0000
     17 H11        0.3552    2.0947    7.1505 H         2 RES2    0.0000
     18 H12        0.4179    1.2300    5.8450 H         2 RES2    0.0000
     19 H13        0.4099    0.5306    7.2484 H         2 RES2    0.0000
     20 C7        -1.3386    3.1952    5.0291 C.3       2 RES2    0.0000
     21 H14       -1.8451    3.9362    4.6903 H         2 RES2    0.0000
     22 H15       -1.1522    2.5825    4.3142 H         2 RES2    0.0000
     23 H16       -0.5152    3.5142    5.4021 H         2 RES2    0.0000
     24 C8        -0.7059    5.5523    2.1649 C.3       3 RES3    0.0000
     25 H17        0.1184    5.1916    1.8043 H         3 RES3    0.0000
     26 H18       -1.3216    4.8228    2.3358 H         3 RES3    0.0000
     27 C9         3.5455    6.2759   -0.7677 C.3       3 RES3    0.0000
     28 H19        3.1654    5.5476   -0.2704 H         3 RES3    0.0000
     29 H20        4.4979    6.2863   -0.6450 H         3 RES3    0.0000
     30 H21        3.3445    6.1649   -1.7002 H         3 RES3    0.0000
     31 C10       -0.4446    6.3464    3.4222 C.3       3 RES3    0.0000
     32 H22        0.3413    6.0031    3.8760 H         3 RES3    0.0000
     33 H23       -1.2026    6.2771    4.0236 H         3 RES3    0.0000
     34 C11       -3.0297    2.4750    9.8406 C.3       2 RES2    0.0000
     35 H24       -3.9988    2.4819    9.8748 H         2 RES2    0.0000
     36 H25       -2.6879    3.2611   10.2960 H         2 RES2    0.0000
     37 C12       -2.5346    2.4068    8.4202 C.2       2 RES2    0.0000
     38 C13        0.4749    8.6480    7.8576 C.ar      2 RES2    0.0000
     39 H26        0.3798    9.5636    7.9944 H         2 RES2    0.0000
     40 C14       -2.1423    2.4842    6.1092 C.3       2 RES2    0.0000
     41 O1         3.0261   16.2383    5.2063 O.2       3 RES3    0.0000
     42 C15       -2.4612    1.1872   10.4514 C.3       2 RES2    0.0000
     43 C16       -3.4290    1.8912    5.4938 C.3       2 RES2    0.0000
     44 H27       -4.1830    2.0427    6.0843 H         2 RES2    0.0000
     45 H28       -3.6161    2.3132    4.6406 H         2 RES2    0.0000
     46 C17        2.4522   10.0549    4.0749 C.2       3 RES3    0.0000
     47 C18        3.2017    7.7741    1.2340 C.3       3 RES3    0.0000
     48 H29        3.6936    7.0262    1.6070 H         3 RES3    0.0000
     49 H30        3.6915    8.5925    1.4065 H         3 RES3    0.0000
     50 C19       -1.9770    0.0289    5.9025 C.3       2 RES2    0.0000
     51 H31       -1.5670   -0.8011    5.8201 H         2 RES2    0.0000
     52 C20       -1.3076    6.5499    1.2277 C.3       3 RES3    0.0000
     53 H32       -2.2488    6.6794    1.4236 H         3 RES3    0.0000
     54 H33       -1.2186    6.2540    0.3077 H         3 RES3    0.0000
     55 C21        1.2648    8.1752    3.1564 C.3       3 RES3    0.0000
     56 H34        1.7013    7.6620    3.8682 H         3 RES3    0.0000
     57 O2        -2.7778    6.0609    7.2608 O.2       2 RES2    0.0000
     58 C22       -1.1284    8.7382    3.8371 C.3       3 RES3    0.0000
     59 H35       -0.8605    8.7116    4.7587 H         3 RES3    0.0000
     60 H36       -2.0391    8.4446    3.7610 H         3 RES3    0.0000
     61 H37       -1.0543    9.6364    3.5092 H         3 RES3    0.0000
     62 C23       -1.2142    9.0781    0.9294 C.3       3 RES3    0.0000
     63 H38       -0.6977    9.8491    1.1734 H         3 RES3    0.0000
     64 H39       -2.0928    9.1474    1.3101 H         3 RES3    0.0000
     65 H40       -1.2843    9.0284   -0.0264 H         3 RES3    0.0000
     66 O3         2.6765   16.2927    3.1036 O.2       3 RES3    0.0000
     67 C24       -0.2239    7.8157    3.0150 C.3       3 RES3    0.0000
     68 O4        -1.7651   -0.8265    9.2578 O.2       2 RES2    0.0000
     69 C25        0.7835    5.9418    7.4986 C.ar      2 RES2    0.0000
     70 H41        0.8994    5.0251    7.3851 H         2 RES2    0.0000
     71 C26        2.9619    7.5799   -0.2782 C.3       3 RES3    0.0000
     72 C27       -0.4776    6.4516    7.6229 C.ar      2 RES2    0.0000
     73 C28       -2.5051    3.3709    7.3028 C.3       2 RES2    0.0000
     74 H42       -3.3720    3.8102    7.1800 H         2 RES2    0.0000
     75 C29        1.4321    7.5394   -0.3947 C.2       3 RES3    0.0000
     76 O5         3.9681    8.4654    7.7690 O.2       2 RES2    0.0000
     77 C30       -0.5351    7.8296    1.4531 C.3       3 RES3    0.0000
     78 C31       -0.6253    7.8180    7.8063 C.ar      2 RES2    0.0000
     79 H43       -1.4782    8.1799    7.8980 H         2 RES2    0.0000
     80 C32       -2.0290    0.3641    9.2159 C.2       2 RES2    0.0000
     81 O6         2.6706   10.2017    7.6291 O.2       2 RES2    0.0000
     82 O7         0.8534    7.3753   -1.4578 O.2       3 RES3    0.0000
     83 C33        1.8020   12.2813    3.1766 C.ar      3 RES3    0.0000
     84 H44        1.2361   11.8687    2.5643 H         3 RES3    0.0000
     85 C34        1.8223    7.8458    1.8028 C.2       3 RES3    0.0000
     86 C35        1.9210   13.6616    3.1859 C.ar      3 RES3    0.0000
     87 H45        1.4792   14.1807    2.5534 H         3 RES3    0.0000
     88 C36        3.3801   13.5136    5.0617 C.ar      3 RES3    0.0000
     89 H46        3.8878   13.9437    5.7114 H         3 RES3    0.0000
     90 C37        3.3049   12.1461    5.0322 C.ar      3 RES3    0.0000
     91 H47        3.7829   11.6409    5.6492 H         3 RES3    0.0000
     92 C38       -1.4705    1.2161    6.7029 C.3       2 RES2    0.0000
     93 N1         2.8052   15.7054    4.1728 N.pl3     3 RES3    0.0000
     94 O8         3.2158    9.3185    4.6204 O.2       3 RES3    0.0000
     95 N2         2.8762    8.9821    7.7022 N.pl3     2 RES2    0.0000
     96 C39        1.6887    8.0920    7.7006 C.ar      2 RES2    0.0000
     97 O9        -1.4467    4.3327    7.5778 O.3       2 RES2    0.0000
     98 C40       -1.6906    5.6158    7.4815 C.2       2 RES2    0.0000
     99 C41       -1.9908    1.2647    8.1016 C.2       2 RES2    0.0000
    100 C42        2.6930   14.2373    4.1277 C.ar      3 RES3    0.0000
    101 O10        1.4243    9.6168    3.3429 O.3       3 RES3    0.0000
    102 C43        0.8571    7.7198    0.9029 C.2       3 RES3    0.0000
    103 C44        2.5194   11.5172    4.0764 C.ar      3 RES3    0.0000
    104 C45       10.2521   -0.1642    3.6895 C.3       1 RES1    0.0000
    105 H48       10.9817   -0.4797    3.1517 H         1 RES1    0.0000
    106 H49        9.5068   -0.7630    3.6009 H         1 RES1    0.0000
    107 H50       10.5243   -0.1283    4.6095 H         1 RES1    0.0000
    108 C46        6.3870   -0.2693    0.2269 C.3       1 RES1    0.0000
    109 H51        6.8825   -0.7237    0.9263 H         1 RES1    0.0000
    110 H52        5.9766   -0.9306   -0.3528 H         1 RES1    0.0000
    111 C47        7.9169    3.0542   -0.5206 C.3       1 RES1    0.0000
    112 H53        7.8836    3.8483    0.0171 H         1 RES1    0.0000
    113 H54        7.3777    3.1767   -1.3055 H         1 RES1    0.0000
    114 H55        8.8237    2.8819   -0.7802 H         1 RES1    0.0000
    115 C48       10.9191    2.2808    3.5107 C.3       1 RES1    0.0000
    116 H56       11.1030    2.3085    4.4525 H         1 RES1    0.0000
    117 H57       10.6035    3.1397    3.2201 H         1 RES1    0.0000
    118 H58       11.7230    2.0577    3.0336 H         1 RES1    0.0000
    119 C49        5.0868    3.1455    0.3031 C.3       1 RES1    0.0000
    120 H59        4.2532    3.2021    0.7771 H         1 RES1    0.0000
    121 H60        4.9204    2.9097   -0.6123 H         1 RES1    0.0000
    122 H61        5.5338    3.9940    0.3388 H         1 RES1    0.0000
    123 C50        7.2398    0.6208   -0.5206 C.3       1 RES1    0.0000
    124 H62        6.8438    0.8184   -1.3847 H         1 RES1    0.0000
    125 H63        8.1076    0.2127   -0.6667 H         1 RES1    0.0000
    126 C51        6.1411    6.3118    5.2653 C.ar      1 RES1    0.0000
    127 H64        6.0305    5.7546    6.0020 H         1 RES1    0.0000
    128 C52        5.3279    0.6890    0.8237 C.3       1 RES1    0.0000
    129 H65        4.5552    0.7375    0.2393 H         1 RES1    0.0000
    130 H66        5.0391    0.3699    1.6924 H         1 RES1    0.0000
    131 O11        6.2371   10.6040    3.5605 O.2       1 RES1    0.0000
    132 O12        6.4161   10.3485    5.6492 O.2       1 RES1    0.0000
    133 C53        9.8464    1.2196    3.2294 C.3       1 RES1    0.0000
    134 C54        9.6028    1.1930    1.7080 C.2       1 RES1    0.0000
    135 N3         6.3377    9.9011    4.5442 N.pl3     1 RES1    0.0000
    136 C55        7.3835    1.8739    0.2828 C.3       1 RES1    0.0000
    137 C56        6.4635    6.5788    2.9248 C.ar      1 RES1    0.0000
    138 H67        6.5820    6.2066    2.0810 H         1 RES1    0.0000
    139 C57        6.2324    4.2737    3.9024 C.2       1 RES1    0.0000
    140 C58        8.5027    1.6774    3.8495 C.3       1 RES1    0.0000
    141 H68        8.1332    0.9965    4.4323 H         1 RES1    0.0000
    142 H69        8.6086    2.5027    4.3484 H         1 RES1    0.0000
    143 O13       10.4412    0.9040    0.8921 O.2       1 RES1    0.0000
    144 C59        6.1650    7.6620    5.4378 C.ar      1 RES1    0.0000
    145 H70        6.0736    8.0388    6.2833 H         1 RES1    0.0000
    146 C60        6.2627    2.4149    2.4337 C.3       1 RES1    0.0000
    147 H71        5.6224    1.9779    3.0336 H         1 RES1    0.0000
    148 C61        6.3243    8.4400    4.3453 C.ar      1 RES1    0.0000
    149 C62        5.9751    2.0692    0.9558 C.3       1 RES1    0.0000
    150 O14        6.1782    3.5316    4.8457 O.2       1 RES1    0.0000
    151 C63        7.6477    1.8797    2.6327 C.2       1 RES1    0.0000
    152 C64        6.4753    7.9498    3.0740 C.ar      1 RES1    0.0000
    153 H72        6.5783    8.5163    2.3452 H         1 RES1    0.0000
    154 C65        8.2320    1.6369    1.4888 C.2       1 RES1    0.0000
    155 O15        6.2806    3.8472    2.6373 O.3       1 RES1    0.0000
    156 C66       -3.2046    0.4347    5.3073 C.3       2 RES2    0.0000
    157 H73       -3.7888   -0.1353    4.8613 H         2 RES2    0.0000
@<TRIPOS>BOND
     1    1  126 ar
     2    2    3 1
     3    4    2 1
     4    5    2 1
     5    6    7 1
     6    8    6 1
     7    9    6 1
     8   10   11 1
     9   12   13 1
    10   14   12 1
    11   15   12 1
    12   16   17 1
    13   18   16 1
    14   19   16 1
    15   20   21 1
    16   22   20 1
    17   23   20 1
    18   24   25 1
    19   26   24 1
    20   27   28 1
    21   29   27 1
    22   30   27 1
    23   31   24 1
    24   32   31 1
    25   33   31 1
    26   34   35 1
    27   36   34 1
    28   37   34 1
    29   38   39 1
    30   40   20 1
    31   41   93 2
    32   42    2 1
    33   43   40 1
    34   44   43 1
    35   45   43 1
    36   46   94 2
    37   47   48 1
    38   49   47 1
    39   50   51 1
    40   52   24 1
    41   53   52 1
    42   54   52 1
    43   55   56 1
    44   57   98 2
    45   58   59 1
    46   60   58 1
    47   61   58 1
    48   62   63 1
    49   64   62 1
    50   65   62 1
    51   66   93 2
    52   67   31 1
    53   68   80 2
    54   69   10 ar
    55   70   69 1
    56   71   12 1
    57   72   69 ar
    58   73   37 1
    59   74   73 1
    60   75   71 1
    61   76   95 2
    62   77   52 1
    63   78   38 ar
    64   79   78 1
    65   80   42 1
    66   81   95 2
    67   82   75 2
    68   83   84 1
    69   85   47 1
    70   86   83 ar
    71   87   86 1
    72   88   89 1
    73   90   88 ar
    74   91   90 1
    75   92   16 1
    76   93  100 1
    77   95   96 1
    78   96   10 ar
    79   97   73 1
    80   98   72 1
    81   99   37 2
    82  100   86 ar
    83  101   46 1
    84  102   75 1
    85  103   46 1
    86  104  105 1
    87  106  104 1
    88  107  104 1
    89  108  109 1
    90  110  108 1
    91  111  112 1
    92  113  111 1
    93  114  111 1
    94  115  116 1
    95  117  115 1
    96  118  115 1
    97  119  120 1
    98  121  119 1
    99  122  119 1
   100  123  108 1
   101  124  123 1
   102  125  123 1
   103  126  127 1
   104  128  108 1
   105  129  128 1
   106  130  128 1
   107  131  135 2
   108  132  135 2
   109  133  104 1
   110  134  133 1
   111  135  148 1
   112  136  111 1
   113  137    1 ar
   114  138  137 1
   115  139    1 1
   116  140  133 1
   117  141  140 1
   118  142  140 1
   119  143  134 2
   120  144  126 ar
   121  145  144 1
   122  146  147 1
   123  148  144 ar
   124  149  119 1
   125  150  139 2
   126  151  140 1
   127  152  137 ar
   128  153  152 1
   129  154  134 1
   130  155  139 1
   131  156   43 1
   132  157  156 1
   133    6   42 1
   134   27   71 1
   135   34   42 1
   136   38   96 ar
   137   40   73 1
   138   40   92 1
   139   47   71 1
   140   50  156 1
   141   50   92 1
   142   55   85 1
   143   55   67 1
   144   55  101 1
   145   58   67 1
   146   62   77 1
   147   67   77 1
   148   72   78 ar
   149   77  102 1
   150   80   99 1
   151   83  103 ar
   152   85  102 2
   153   88  100 ar
   154   90  103 ar
   155   92   99 1
   156   97   98 1
   157  115  133 1
   158  123  136 1
   159  128  149 1
   160  136  154 1
   161  136  149 1
   162  146  155 1
   163  146  149 1
   164  146  151 1
   165  148  152 ar
   166  151  154 2
@<TRIPOS>SUBSTRUCTURE
     1 RES1 1
     2 RES2 2
     3 RES3 12

@<TRIPOS>CRYSIN
  17.4500   11.5600   17.5830  90.0000 117.8870  90.0000   4 1

