# MOL2 file generated by ConQuest
# Please check atom types

@<TRIPOS>MOLECULE
XUSSUB
    30    31     1
SMALL
NO_CHARGES
****
Generated from CSD

@<TRIPOS>ATOM
      1 O1         7.2208    1.1317    2.9823 O.3       1 RES1    0.0000
      2 O2         9.9494    0.5692    2.3538 O.3       1 RES1    0.0000
      3 O3        12.0106    1.3168    1.9231 O.2       1 RES1    0.0000
      4 O4         4.9562    0.4847    2.1968 O.3       1 RES1    0.0000
      5 N1         5.6817    1.2963    1.2910 N.2       1 RES1    0.0000
      6 C1         9.4579    4.0767   -0.4723 C.ar      1 RES1    0.0000
      7 C2         8.1628    3.8785   -0.9000 C.ar      1 RES1    0.0000
      8 C3         9.8981    3.4418    0.6667 C.ar      1 RES1    0.0000
      9 C4         7.3058    3.0706   -0.1923 C.ar      1 RES1    0.0000
     10 C5         9.0537    2.6153    1.3889 C.ar      1 RES1    0.0000
     11 C6         7.7337    2.4366    0.9807 C.ar      1 RES1    0.0000
     12 C7         9.4963    1.9328    2.6507 C.3       1 RES1    0.0000
     13 C8         6.8281    1.6004    1.7720 C.2       1 RES1    0.0000
     14 C9         8.3422    1.7913    3.5969 C.3       1 RES1    0.0000
     15 C10       11.2266    0.4132    1.9774 C.2       1 RES1    0.0000
     16 C11       11.5206   -1.0068    1.6376 C.3       1 RES1    0.0000
     17 C12        3.6559    0.2661    1.6662 C.3       1 RES1    0.0000
     18 H1        10.0301    4.6347   -0.9496 H         1 RES1    0.0000
     19 H2         7.8656    4.2966   -1.6762 H         1 RES1    0.0000
     20 H3        10.7734    3.5696    0.9546 H         1 RES1    0.0000
     21 H4         6.4354    2.9437   -0.4948 H         1 RES1    0.0000
     22 H5        10.2179    2.4431    3.0743 H         1 RES1    0.0000
     23 H6         8.6260    1.2818    4.3721 H         1 RES1    0.0000
     24 H7         8.0682    2.6703    3.9011 H         1 RES1    0.0000
     25 H8        11.1357   -1.5818    2.3038 H         1 RES1    0.0000
     26 H9        12.4715   -1.1395    1.6111 H         1 RES1    0.0000
     27 H10       11.1440   -1.2155    0.7792 H         1 RES1    0.0000
     28 H11        3.1566    1.0853    1.6950 H         1 RES1    0.0000
     29 H12        3.2051   -0.4027    2.1873 H         1 RES1    0.0000
     30 H13        3.7283   -0.0332    0.7567 H         1 RES1    0.0000
@<TRIPOS>BOND
     1    1   13 1
     2    2   12 1
     3    3   15 2
     4    4    5 1
     5    5   13 2
     6    6    7 ar
     7    7    9 ar
     8    8    6 ar
     9    9   11 ar
    10   10    8 ar
    11   11   10 ar
    12   12   10 1
    13   13   11 1
    14   14    1 1
    15   15    2 1
    16   16   15 1
    17   17    4 1
    18   18    6 1
    19   19    7 1
    20   20    8 1
    21   21    9 1
    22   22   12 1
    23   23   14 1
    24   24   14 1
    25   25   16 1
    26   26   16 1
    27   27   16 1
    28   28   17 1
    29   29   17 1
    30   30   17 1
    31   12   14 1
@<TRIPOS>SUBSTRUCTURE
     1 RES1 1

@<TRIPOS>CRYSIN
  11.6840    8.0870   12.8130  90.0000 102.1150  90.0000 231 1

