# MOL2 file generated by ConQuest
# Please check atom types

@<TRIPOS>MOLECULE
XUTNUV
    36    36     1
SMALL
NO_CHARGES
****
Generated from CSD

@<TRIPOS>ATOM
      1 O1        -4.3597   -0.7253   13.5932 O.3       1 RES1    0.0000
      2 O2        -5.0211   -3.9304   15.0390 O.3       1 RES1    0.0000
      3 O3        -6.2522   -3.7487   13.1743 O.2       1 RES1    0.0000
      4 O4        -2.9312   -4.2534   14.2703 O.3       1 RES1    0.0000
      5 O5        -1.8621   -2.9101   12.8190 O.2       1 RES1    0.0000
      6 O6        -0.9682   -2.1329   18.6550 O.2       1 RES1    0.0000
      7 O7        -1.8790   -0.2764   19.2836 O.2       1 RES1    0.0000
      8 N1        -1.7433   -1.1934   18.4690 N.pl3     1 RES1    0.0000
      9 C1        -3.7334   -0.7928   14.7962 C.ar      1 RES1    0.0000
     10 C2        -3.4932   -2.0887   15.2871 C.ar      1 RES1    0.0000
     11 C3        -2.8508   -2.2789   16.5193 C.ar      1 RES1    0.0000
     12 C4        -2.4853   -1.1196   17.2121 C.ar      1 RES1    0.0000
     13 C5        -2.7463    0.1545   16.7449 C.ar      1 RES1    0.0000
     14 C6        -3.3601    0.3269   15.5265 C.ar      1 RES1    0.0000
     15 C7        -4.5883    0.5559   13.0110 C.3       1 RES1    0.0000
     16 C8        -3.9427   -3.2393   14.4148 C.3       1 RES1    0.0000
     17 C9        -6.1449   -4.1525   14.2879 C.2       1 RES1    0.0000
     18 C10       -7.1648   -4.9048   15.0464 C.3       1 RES1    0.0000
     19 C11       -1.9143   -3.9545   13.4136 C.2       1 RES1    0.0000
     20 C12       -0.9241   -5.0570   13.3629 C.3       1 RES1    0.0000
     21 C13       -2.6264   -3.6703   17.0692 C.3       1 RES1    0.0000
     22 H1        -2.5080    0.8945   17.2553 H         1 RES1    0.0000
     23 H2        -3.5228    1.1818   15.1973 H         1 RES1    0.0000
     24 H3        -4.2182   -2.9086   13.5338 H         1 RES1    0.0000
     25 H4        -5.1518    1.0746   13.5908 H         1 RES1    0.0000
     26 H5        -5.0192    0.4488   12.1602 H         1 RES1    0.0000
     27 H6        -3.7495    1.0078   12.8922 H         1 RES1    0.0000
     28 H7        -7.5868   -4.3209   15.6797 H         1 RES1    0.0000
     29 H8        -6.7453   -5.6331   15.5110 H         1 RES1    0.0000
     30 H9        -7.8247   -5.2496   14.4416 H         1 RES1    0.0000
     31 H10       -0.1831   -4.7969   12.8114 H         1 RES1    0.0000
     32 H11       -1.3367   -5.8412   12.9944 H         1 RES1    0.0000
     33 H12       -0.6117   -5.2472   14.2515 H         1 RES1    0.0000
     34 H13       -1.7565   -3.9816   16.8062 H         1 RES1    0.0000
     35 H14       -3.2971   -4.2635   16.7230 H         1 RES1    0.0000
     36 H15       -2.6822   -3.6485   18.0277 H         1 RES1    0.0000
@<TRIPOS>BOND
     1    1    9 1
     2    2   16 1
     3    3   17 2
     4    4   16 1
     5    5   19 2
     6    6    8 2
     7    7    8 2
     8    8   12 1
     9    9   10 ar
    10   10   11 ar
    11   11   12 ar
    12   12   13 ar
    13   13   14 ar
    14   14    9 ar
    15   15    1 1
    16   16   10 1
    17   17    2 1
    18   18   17 1
    19   19    4 1
    20   20   19 1
    21   21   11 1
    22   22   13 1
    23   23   14 1
    24   24   16 1
    25   25   15 1
    26   26   15 1
    27   27   15 1
    28   28   18 1
    29   29   18 1
    30   30   18 1
    31   31   20 1
    32   32   20 1
    33   33   20 1
    34   34   21 1
    35   35   21 1
    36   36   21 1
@<TRIPOS>SUBSTRUCTURE
     1 RES1 1

@<TRIPOS>CRYSIN
  14.9870    7.7645   24.4126  90.0000 103.2330  90.0000  15 1

