# MOL2 file generated by ConQuest
# Please check atom types

@<TRIPOS>MOLECULE
XUTWEQ
    37    38     1
SMALL
NO_CHARGES
****
Generated from CSD

@<TRIPOS>ATOM
      1 O1        -4.1327    6.4804    7.1439 O.3       1 RES1    0.0000
      2 O2        -4.9779    5.0522    8.6269 O.2       1 RES1    0.0000
      3 O3        -5.4982    0.4999    3.4275 O.2       1 RES1    0.0000
      4 O4        -4.6118    1.9352    2.1022 O.2       1 RES1    0.0000
      5 O5        -2.9762   11.5056    7.9740 O.2       1 RES1    0.0000
      6 N1        -5.0171    1.5930    3.2001 N.pl3     1 RES1    0.0000
      7 C1        -4.6452    5.3102    7.5127 C.2       1 RES1    0.0000
      8 C2        -4.7239    4.3571    6.3666 C.ar      1 RES1    0.0000
      9 C3        -5.1640    3.0600    6.6147 C.ar      1 RES1    0.0000
     10 H1        -5.3929    2.8073    7.4799 H         1 RES1    0.0000
     11 C4        -5.2636    2.1459    5.5826 C.ar      1 RES1    0.0000
     12 H2        -5.5600    1.2784    5.7389 H         1 RES1    0.0000
     13 C5        -4.9114    2.5564    4.3168 C.ar      1 RES1    0.0000
     14 C6        -4.4823    3.8315    4.0320 C.ar      1 RES1    0.0000
     15 H3        -4.2624    4.0796    3.1631 H         1 RES1    0.0000
     16 C7        -4.3877    4.7344    5.0761 C.ar      1 RES1    0.0000
     17 H4        -4.0958    5.6018    4.9105 H         1 RES1    0.0000
     18 C8        -4.0385    7.5528    8.1309 C.3       1 RES1    0.0000
     19 H5        -4.2569    7.1968    9.0175 H         1 RES1    0.0000
     20 C9        -5.0344    8.6487    7.7698 C.3       1 RES1    0.0000
     21 H6        -5.9277    8.3530    8.0427 H         1 RES1    0.0000
     22 C10       -4.6733    9.9165    8.5850 C.3       1 RES1    0.0000
     23 H7        -4.6538    9.6561    9.5296 H         1 RES1    0.0000
     24 C11       -3.2732   10.3451    8.2136 C.2       1 RES1    0.0000
     25 C12       -2.2755    9.2768    8.1675 C.2       1 RES1    0.0000
     26 H8        -1.3732    9.5010    8.1742 H         1 RES1    0.0000
     27 C13       -2.6229    8.0021    8.1180 C.2       1 RES1    0.0000
     28 H9        -1.9522    7.3592    8.0722 H         1 RES1    0.0000
     29 C14       -5.0698    8.9545    6.3015 C.2       1 RES1    0.0000
     30 H10       -4.2609    9.1424    5.8820 H         1 RES1    0.0000
     31 C15       -6.1500    8.9772    5.5683 C.2       1 RES1    0.0000
     32 H11       -7.0560    8.7503    5.9953 H         1 RES1    0.0000
     33 H12       -6.1392    9.2062    4.5751 H         1 RES1    0.0000
     34 C16       -5.6987   11.0171    8.4487 C.3       1 RES1    0.0000
     35 H13       -5.4325   11.7708    8.9806 H         1 RES1    0.0000
     36 H14       -5.7601   11.2827    7.5280 H         1 RES1    0.0000
     37 H15       -6.5528   10.6985    8.7499 H         1 RES1    0.0000
@<TRIPOS>BOND
     1    1    7 1
     2    2    7 2
     3    3    6 2
     4    4    6 2
     5    5   24 2
     6    6   13 1
     7    7    8 1
     8    8    9 ar
     9    9   10 1
    10   11    9 ar
    11   12   11 1
    12   13   11 ar
    13   14   13 ar
    14   15   14 1
    15   16    8 ar
    16   17   16 1
    17   18    1 1
    18   19   18 1
    19   20   18 1
    20   21   20 1
    21   22   20 1
    22   23   22 1
    23   24   22 1
    24   25   24 1
    25   26   25 1
    26   27   18 1
    27   28   27 1
    28   29   20 1
    29   30   29 1
    30   31   29 2
    31   32   31 1
    32   33   31 1
    33   34   22 1
    34   35   34 1
    35   36   34 1
    36   37   34 1
    37   14   16 ar
    38   25   27 2
@<TRIPOS>SUBSTRUCTURE
     1 RES1 1

@<TRIPOS>CRYSIN
   7.2989   10.8489   10.8706 106.5360 108.1560 103.3110   2 1

