# MOL2 file generated by ConQuest
# Please check atom types

@<TRIPOS>MOLECULE
XUVCOG
    48    49     1
SMALL
USER_CHARGES
****
Generated from CSD

@<TRIPOS>ATOM
      1 O1         2.8605    0.6366    5.2146 O.2       1 RES1    0.0000
      2 O2         0.8855    4.5388    6.7765 O.2       1 RES1   -1.0000
      3 O3         5.4479    0.7164    9.4081 O.3       1 RES1    0.0000
      4 O4         4.1252    1.6051   11.4716 O.3       1 RES1    0.0000
      5 N1         2.1840    1.7472    5.2623 N.3       1 RES1    0.0000
      6 N2         1.1977    3.5485    6.0307 N.pl3     1 RES1    1.0000
      7 C1         2.0261    2.5110    6.3533 C.2       1 RES1    0.0000
      8 C2         1.5593    2.3668    4.0363 C.3       1 RES1    0.0000
      9 C3         0.5170    3.3040    4.7128 C.3       1 RES1    0.0000
     10 C4         2.5845    2.2614    7.6779 C.ar      1 RES1    0.0000
     11 C5         3.8026    1.5780    7.8330 C.ar      1 RES1    0.0000
     12 C6         4.2854    1.3768    9.1116 C.ar      1 RES1    0.0000
     13 C7         3.5779    1.8405   10.2354 C.ar      1 RES1    0.0000
     14 C8         2.3440    2.4971   10.1042 C.ar      1 RES1    0.0000
     15 C9         1.8795    2.6988    8.8056 C.ar      1 RES1    0.0000
     16 C10        0.9614    1.2908    3.1432 C.3       1 RES1    0.0000
     17 C11        2.6738    3.1216    3.3023 C.3       1 RES1    0.0000
     18 C12       -0.7995    2.5921    5.0512 C.3       1 RES1    0.0000
     19 C13        0.2600    4.6175    3.9951 C.3       1 RES1    0.0000
     20 C14        1.5383    2.9511   11.3360 C.3       1 RES1    0.0000
     21 C15        2.3856    3.8907   12.2075 C.3       1 RES1    0.0000
     22 C16        0.2607    3.6979   10.9294 C.3       1 RES1    0.0000
     23 C17        1.1181    1.7199   12.1585 C.3       1 RES1    0.0000
     24 H1         5.7753    0.3207    8.7063 H         1 RES1    0.0000
     25 H2         4.8444    1.1613   11.2883 H         1 RES1    0.0000
     26 H3         4.2779    1.2434    7.0572 H         1 RES1    0.0000
     27 H4         1.0593    3.1475    8.6578 H         1 RES1    0.0000
     28 H5         0.4117    0.6330    3.6407 H         1 RES1    0.0000
     29 H6         0.4029    1.7467    2.4687 H         1 RES1    0.0000
     30 H7         1.6772    0.7713    2.6891 H         1 RES1    0.0000
     31 H8         3.3841    2.4589    3.0379 H         1 RES1    0.0000
     32 H9         3.0236    3.8280    3.8736 H         1 RES1    0.0000
     33 H10        2.3162    3.4946    2.4736 H         1 RES1    0.0000
     34 H11       -0.5975    1.7482    5.5177 H         1 RES1    0.0000
     35 H12       -1.3329    3.2245    5.6274 H         1 RES1    0.0000
     36 H13       -1.3186    2.3905    4.2448 H         1 RES1    0.0000
     37 H14       -0.0126    4.4008    3.0840 H         1 RES1    0.0000
     38 H15       -0.4097    5.1277    4.4877 H         1 RES1    0.0000
     39 H16        1.0992    5.1479    3.9160 H         1 RES1    0.0000
     40 H17        1.8808    4.1690   13.0134 H         1 RES1    0.0000
     41 H18        2.6101    4.7559   11.6956 H         1 RES1    0.0000
     42 H19        3.2116    3.4757   12.5115 H         1 RES1    0.0000
     43 H20       -0.3543    3.1417   10.3654 H         1 RES1    0.0000
     44 H21       -0.2379    3.9469   11.7193 H         1 RES1    0.0000
     45 H22        0.4674    4.5365   10.4501 H         1 RES1    0.0000
     46 H23        0.5814    1.0740   11.5922 H         1 RES1    0.0000
     47 H24        1.9349    1.2269   12.5077 H         1 RES1    0.0000
     48 H25        0.5635    1.9983   12.9499 H         1 RES1    0.0000
@<TRIPOS>BOND
     1    1    5 1
     2    2    6 1
     3    3   12 1
     4    4   13 1
     5    5    7 1
     6    6    7 2
     7    7   10 1
     8    8    5 1
     9    9    6 1
    10   10   11 ar
    11   11   12 ar
    12   12   13 ar
    13   13   14 ar
    14   14   15 ar
    15   15   10 ar
    16   16    8 1
    17   17    8 1
    18   18    9 1
    19   19    9 1
    20   20   14 1
    21   21   20 1
    22   22   20 1
    23   23   20 1
    24   24    3 1
    25   25    4 1
    26   26   11 1
    27   27   15 1
    28   28   16 1
    29   29   16 1
    30   30   16 1
    31   31   17 1
    32   32   17 1
    33   33   17 1
    34   34   18 1
    35   35   18 1
    36   36   18 1
    37   37   19 1
    38   38   19 1
    39   39   19 1
    40   40   21 1
    41   41   21 1
    42   42   21 1
    43   43   22 1
    44   44   22 1
    45   45   22 1
    46   46   23 1
    47   47   23 1
    48   48   23 1
    49    8    9 1
@<TRIPOS>SUBSTRUCTURE
     1 RES1 1

@<TRIPOS>CRYSIN
   6.8165   10.0414   12.7020  86.4150  78.7370  76.5020   2 1

