# MOL2 file generated by ConQuest
# Please check atom types

@<TRIPOS>MOLECULE
XUVKUW
    33    34     1
SMALL
NO_CHARGES
****
Generated from CSD

@<TRIPOS>ATOM
      1 O1         2.8695    1.6996    4.5927 O.3       1 RES1    0.0000
      2 O2         3.7358    0.4396    2.9419 O.2       1 RES1    0.0000
      3 O3         6.1226    1.7897    0.3104 O.3       1 RES1    0.0000
      4 O4         4.2731    6.2913    0.6573 O.2       1 RES1    0.0000
      5 O5         6.4502    1.4365    2.5064 O.2       1 RES1    0.0000
      6 N1         4.0738    5.2143    1.3517 N.pl3     1 RES1    0.0000
      7 C1         3.4674    1.5123    3.4165 C.2       1 RES1    0.0000
      8 C2         3.7371    2.8201    2.7405 C.ar      1 RES1    0.0000
      9 C3         2.9208    3.9115    2.9661 C.ar      1 RES1    0.0000
     10 H1         2.2229    3.8320    3.6057 H         1 RES1    0.0000
     11 C4         3.0761    5.1234    2.2975 C.ar      1 RES1    0.0000
     12 C5         5.8525    1.9597    1.6013 C.2       1 RES1    0.0000
     13 C6         4.7615    2.9595    1.7954 C.ar      1 RES1    0.0000
     14 C7         4.8920    4.1501    1.1179 C.ar      1 RES1    0.0000
     15 H2         5.5768    4.2330    0.4650 H         1 RES1    0.0000
     16 C8         2.4695    0.4976    5.2854 C.3       1 RES1    0.0000
     17 H3         1.7309    0.0727    4.8022 H         1 RES1    0.0000
     18 H4         2.1778    0.7251    6.1930 H         1 RES1    0.0000
     19 H5         3.2285   -0.1204    5.3320 H         1 RES1    0.0000
     20 C9         2.1894    6.2651    2.6241 C.ar      1 RES1    0.0000
     21 N2         1.0658    5.8980    3.2662 N.ar      1 RES1    0.0000
     22 C10        7.3081    1.0155    0.0165 C.3       1 RES1    0.0000
     23 H6         7.3616    0.8545   -0.9484 H         1 RES1    0.0000
     24 H7         7.2636    0.1583    0.4887 H         1 RES1    0.0000
     25 H8         8.1019    1.5098    0.3096 H         1 RES1    0.0000
     26 C11        2.4906    7.6031    2.3669 C.ar      1 RES1    0.0000
     27 H9         3.2891    7.8401    1.9108 H         1 RES1    0.0000
     28 C12        0.2305    6.8651    3.6456 C.ar      1 RES1    0.0000
     29 H10       -0.5694    6.6115    4.0912 H         1 RES1    0.0000
     30 C13        1.6028    8.5786    2.7903 C.ar      1 RES1    0.0000
     31 H11        1.7916    9.4967    2.6347 H         1 RES1    0.0000
     32 C14        0.4526    8.2129    3.4342 C.ar      1 RES1    0.0000
     33 H12       -0.1737    8.8644    3.7266 H         1 RES1    0.0000
@<TRIPOS>BOND
     1    1    7 1
     2    2    7 2
     3    3   12 1
     4    4    6 1
     5    5   12 2
     6    6   11 ar
     7    7    8 1
     8    8    9 ar
     9    9   10 1
    10   11    9 ar
    11   12   13 1
    12   13    8 ar
    13   14    6 ar
    14   15   14 1
    15   16    1 1
    16   17   16 1
    17   18   16 1
    18   19   16 1
    19   20   11 1
    20   21   20 ar
    21   22    3 1
    22   23   22 1
    23   24   22 1
    24   25   22 1
    25   26   20 ar
    26   27   26 1
    27   28   21 ar
    28   29   28 1
    29   30   26 ar
    30   31   30 1
    31   32   28 ar
    32   33   32 1
    33   13   14 ar
    34   30   32 ar
@<TRIPOS>SUBSTRUCTURE
     1 RES1 1

@<TRIPOS>CRYSIN
   5.7678   10.6510   11.7170  70.3600  77.6610  87.2580   2 1

