# MOL2 file generated by ConQuest
# Please check atom types

@<TRIPOS>MOLECULE
XUVNUY
    22    22     1
SMALL
NO_CHARGES
****
Generated from CSD

@<TRIPOS>ATOM
      1 O1         4.5276    2.0653    2.3960 O.3       1 RES1    0.0000
      2 N1         4.2943    1.2852    1.2180 N.2       1 RES1    0.0000
      3 N2         2.9707    1.5451   -0.6789 N.pl3     1 RES1    0.0000
      4 H1         3.2735    0.7882   -1.0106 H         1 RES1    0.0000
      5 H2         2.3817    2.0181   -1.1315 H         1 RES1    0.0000
      6 C1         3.4092    1.9812    0.5218 C.2       1 RES1    0.0000
      7 C2         3.0468    3.1854    1.1969 C.2       1 RES1    0.0000
      8 H3         2.4280    3.8455    0.9074 H         1 RES1    0.0000
      9 C3         3.7657    3.1860    2.3282 C.2       1 RES1    0.0000
     10 C4         3.9254    4.1460    3.4752 C.3       1 RES1    0.0000
     11 C5         3.6971    3.4226    4.7982 C.3       1 RES1    0.0000
     12 H4         2.7689    3.1140    4.8466 H         1 RES1    0.0000
     13 H5         3.8758    4.0362    5.5408 H         1 RES1    0.0000
     14 H6         4.3010    2.6533    4.8576 H         1 RES1    0.0000
     15 C6         2.9401    5.2950    3.2979 C.3       1 RES1    0.0000
     16 H7         3.1263    5.7574    2.4540 H         1 RES1    0.0000
     17 H8         3.0353    5.9239    4.0425 H         1 RES1    0.0000
     18 H9         2.0260    4.9423    3.2823 H         1 RES1    0.0000
     19 C7         5.3541    4.6984    3.4392 C.3       1 RES1    0.0000
     20 H10        5.9919    3.9634    3.5547 H         1 RES1    0.0000
     21 H11        5.4716    5.3499    4.1611 H         1 RES1    0.0000
     22 H12        5.5138    5.1357    2.5771 H         1 RES1    0.0000
@<TRIPOS>BOND
     1    1    2 1
     2    2    6 2
     3    3    4 1
     4    5    3 1
     5    6    3 1
     6    7    6 1
     7    8    7 1
     8    9    1 1
     9   10    9 1
    10   11   10 1
    11   12   11 1
    12   13   11 1
    13   14   11 1
    14   15   10 1
    15   16   15 1
    16   17   15 1
    17   18   15 1
    18   19   10 1
    19   20   19 1
    20   21   19 1
    21   22   19 1
    22    7    9 2
@<TRIPOS>SUBSTRUCTURE
     1 RES1 1

@<TRIPOS>CRYSIN
   8.2727    8.9974   21.9700  90.0000  90.0000  90.0000  61 1

