# MOL2 file generated by ConQuest
# Please check atom types

@<TRIPOS>MOLECULE
XUWCID
    84    90     3
SMALL
NO_CHARGES
****
Generated from CSD

@<TRIPOS>ATOM
      1 O1        -5.1931    1.1015   13.4634 O.3       1 RES1    0.0000
      2 N1        -2.4413    2.2889   10.5991 N.ar      1 RES1    0.0000
      3 O2        -0.2405    2.8527   10.1497 O.3       1 RES1    0.0000
      4 C1        -2.8773    1.5874   12.8705 C.ar      1 RES1    0.0000
      5 O3        -3.6542    0.7241   14.9568 O.2       1 RES1    0.0000
      6 C2        -4.7068    1.8154   11.2160 C.ar      1 RES1    0.0000
      7 O4         0.9566    0.6797   18.1968 O.3       1 RES1    0.0000
      8 C3        -1.1994    2.4011   10.9892 C.ar      1 RES1    0.0000
      9 C4        -1.5278    1.6944   13.2465 C.ar      1 RES1    0.0000
     10 C5        -3.2924    1.9013   11.5521 C.ar      1 RES1    0.0000
     11 C6        -0.6720    2.1395   12.2401 C.ar      1 RES1    0.0000
     12 C7        -3.8765    1.1102   13.8454 C.2       1 RES1    0.0000
     13 C8        -0.9505    1.3703   14.5813 C.ar      1 RES1    0.0000
     14 C9        -5.6075    1.4548   12.1945 C.ar      1 RES1    0.0000
     15 C10       -5.2031    2.1228    9.9489 C.ar      1 RES1    0.0000
     16 H1        -4.6163    2.3581    9.2684 H         1 RES1    0.0000
     17 C11       -6.9681    1.4111   11.9641 C.ar      1 RES1    0.0000
     18 H2        -7.5563    1.1685   12.6412 H         1 RES1    0.0000
     19 C12        0.3520    0.8458   16.9807 C.ar      1 RES1    0.0000
     20 C13       -6.5518    2.0805    9.7000 C.ar      1 RES1    0.0000
     21 H3        -6.8734    2.2852    8.8513 H         1 RES1    0.0000
     22 C14       -7.4371    1.7345   10.7075 C.ar      1 RES1    0.0000
     23 H4        -8.3515    1.7207   10.5355 H         1 RES1    0.0000
     24 C15       -0.5275    1.9079   16.8905 C.ar      1 RES1    0.0000
     25 H5        -0.6778    2.4506   17.6298 H         1 RES1    0.0000
     26 C16        0.5702    0.0459   15.8930 C.ar      1 RES1    0.0000
     27 H6         1.1451   -0.6811   15.9570 H         1 RES1    0.0000
     28 C17       -1.1831    2.1629   15.7004 C.ar      1 RES1    0.0000
     29 H7        -1.7849    2.8702   15.6471 H         1 RES1    0.0000
     30 N2         0.9812    2.9205   10.9117 N.2       1 RES1    0.0000
     31 C18        0.7093    2.5045   12.1200 C.2       1 RES1    0.0000
     32 C19        2.0177   -0.2695   18.2727 C.3       1 RES1    0.0000
     33 H8         2.3673   -0.2885   19.1658 H         1 RES1    0.0000
     34 H9         2.7152   -0.0197   17.6617 H         1 RES1    0.0000
     35 H10        1.6870   -1.1401   18.0400 H         1 RES1    0.0000
     36 C20       -0.0677    0.3234   14.7009 C.ar      1 RES1    0.0000
     37 H11        0.1040   -0.2120   13.9607 H         1 RES1    0.0000
     38 C21        1.7910    2.5198   13.1369 C.3       1 RES1    0.0000
     39 H12        2.6063    2.8294   12.7324 H         1 RES1    0.0000
     40 H13        1.9203    1.6318   13.4798 H         1 RES1    0.0000
     41 H14        1.5472    3.1070   13.8559 H         1 RES1    0.0000
     42 O5         8.1657    1.4227    9.7513 O.3       2 RES2    0.0000
     43 N3         5.1083    1.6282   12.5398 N.ar      2 RES2    0.0000
     44 C22        7.4609    1.2807   12.0788 C.ar      2 RES2    0.0000
     45 C23        6.1336    1.5764   11.6768 C.ar      2 RES2    0.0000
     46 O6        12.7800    0.7139   15.9928 O.3       2 RES2    0.0000
     47 O7         9.6232    0.7671   11.2328 O.2       2 RES2    0.0000
     48 O8         4.5065    1.4067   14.7695 O.3       2 RES2    0.0000
     49 C24        7.7808    1.0964   13.4318 C.ar      2 RES2    0.0000
     50 C25        5.4324    1.3936   13.7857 C.ar      2 RES2    0.0000
     51 C26        6.8903    1.8066    9.3728 C.ar      2 RES2    0.0000
     52 C27        6.6930    1.1546   14.2996 C.ar      2 RES2    0.0000
     53 C28        9.1474    0.9376   14.0054 C.ar      2 RES2    0.0000
     54 C29        4.6000    2.2692    9.8217 C.ar      2 RES2    0.0000
     55 H15        3.8847    2.3188   10.4147 H         2 RES2    0.0000
     56 C30       11.5986    0.7161   15.3244 C.ar      2 RES2    0.0000
     57 C31        8.5026    1.1291   11.0453 C.2       2 RES2    0.0000
     58 C32        5.8521    1.8773   10.2855 C.ar      2 RES2    0.0000
     59 C33        6.4667    1.0228   15.7168 C.2       2 RES2    0.0000
     60 C34        9.8257    2.0558   14.4425 C.ar      2 RES2    0.0000
     61 H16        9.4588    2.8972   14.2934 H         2 RES2    0.0000
     62 N4         5.2100    1.1605   16.0008 N.2       2 RES2    0.0000
     63 C35        9.7400   -0.2921   14.2071 C.ar      2 RES2    0.0000
     64 H17        9.3144   -1.0599   13.8992 H         2 RES2    0.0000
     65 C36       10.9567   -0.4043   14.8595 C.ar      2 RES2    0.0000
     66 H18       11.3395   -1.2428   14.9839 H         2 RES2    0.0000
     67 C37       11.0301    1.9531   15.0913 C.ar      2 RES2    0.0000
     68 H19       11.4667    2.7231   15.3759 H         2 RES2    0.0000
     69 C38        5.4724    2.5096    7.6077 C.ar      2 RES2    0.0000
     70 H20        5.3435    2.7311    6.7137 H         2 RES2    0.0000
     71 C39        4.4090    2.5846    8.4954 C.ar      2 RES2    0.0000
     72 H21        3.5693    2.8469    8.1950 H         2 RES2    0.0000
     73 C40        7.4241    0.7460   16.8137 C.3       2 RES2    0.0000
     74 H22        6.9533    0.7154   17.6503 H         2 RES2    0.0000
     75 H23        8.0850    1.4409   16.8435 H         2 RES2    0.0000
     76 H24        7.8552   -0.0983   16.6567 H         2 RES2    0.0000
     77 C41        6.7043    2.1162    8.0325 C.ar      2 RES2    0.0000
     78 H25        7.4131    2.0550    7.4316 H         2 RES2    0.0000
     79 C42       13.5190   -0.5114   16.0610 C.3       2 RES2    0.0000
     80 H26       14.3304   -0.3686   16.5541 H         2 RES2    0.0000
     81 H27       13.7326   -0.8064   15.1731 H         2 RES2    0.0000
     82 H28       12.9908   -1.1794   16.5017 H         2 RES2    0.0000
     83 H29       -2.6910    2.4513    9.7925 Du        3 SUP3    0.0000
     84 H30        4.3023    1.8015   12.2948 Du        3 SUP3    0.0000
@<TRIPOS>BOND
     1    1   12 1
     2    2    8 ar
     3    3    8 1
     4    4    9 ar
     5    5   12 2
     6    6   10 1
     7    7   19 1
     8    8   11 ar
     9    9   11 ar
    10   10    2 ar
    11   11   31 1
    12   12    4 1
    13   13    9 1
    14   14    1 1
    15   15    6 ar
    16   16   15 1
    17   17   14 ar
    18   18   17 1
    19   19   24 ar
    20   20   15 ar
    21   21   20 1
    22   22   17 ar
    23   23   22 1
    24   24   25 1
    25   26   19 ar
    26   27   26 1
    27   28   13 ar
    28   29   28 1
    29   30    3 1
    30   31   30 2
    31   32    7 1
    32   33   32 1
    33   34   32 1
    34   35   32 1
    35   36   13 ar
    36   37   36 1
    37   38   31 1
    38   39   38 1
    39   40   38 1
    40   41   38 1
    41   42   51 1
    42   43   45 ar
    43   44   45 ar
    44   45   58 1
    45   46   56 1
    46   47   57 2
    47   48   50 1
    48   49   44 ar
    49   50   43 ar
    50   51   58 ar
    51   52   49 ar
    52   53   49 1
    53   54   55 1
    54   56   65 ar
    55   57   42 1
    56   58   54 ar
    57   59   52 1
    58   60   53 ar
    59   61   60 1
    60   62   48 1
    61   63   53 ar
    62   64   63 1
    63   65   63 ar
    64   66   65 1
    65   67   56 ar
    66   68   67 1
    67   69   70 1
    68   71   54 ar
    69   72   71 1
    70   73   59 1
    71   74   73 1
    72   75   73 1
    73   76   73 1
    74   77   51 ar
    75   78   77 1
    76   79   46 1
    77   80   79 1
    78   81   79 1
    79   82   79 1
    80    4   10 ar
    81    6   14 ar
    82   20   22 ar
    83   24   28 ar
    84   26   36 ar
    85   44   57 1
    86   50   52 ar
    87   59   62 2
    88   60   67 ar
    89   69   71 ar
    90   69   77 ar
@<TRIPOS>SUBSTRUCTURE
     1 RES1 1
     2 RES2 42
     3 SUP3 83

@<TRIPOS>CRYSIN
  20.1884    7.2848   24.5600  90.0000 111.8900  90.0000 231 1

