# MOL2 file generated by ConQuest
# Please check atom types

@<TRIPOS>MOLECULE
XUXFOM
    64    65     1
SMALL
NO_CHARGES
****
Generated from CSD

@<TRIPOS>ATOM
      1 C1        12.3436    4.0622    0.5318 C.2       1 RES1    0.0000
      2 C2        13.6086    4.0922   -1.5138 C.3       1 RES1    0.0000
      3 H1        13.0022    3.4647   -1.9596 H         1 RES1    0.0000
      4 C3        13.1969    5.5003   -1.8889 C.2       1 RES1    0.0000
      5 C4        12.1763    6.8606   -3.6949 C.3       1 RES1    0.0000
      6 C5        11.0883    7.6069   -2.9227 C.2       1 RES1    0.0000
      7 C6        11.3865    3.9478    2.8126 C.3       1 RES1    0.0000
      8 C7        11.0390    5.4114    2.9794 C.3       1 RES1    0.0000
      9 H2        11.8166    5.8934    3.2706 H         1 RES1    0.0000
     10 H3        10.3421    5.5025    3.6311 H         1 RES1    0.0000
     11 H4        10.7397    5.7668    2.1391 H         1 RES1    0.0000
     12 C8        12.0051    3.4059    4.0849 C.3       1 RES1    0.0000
     13 H5        12.2634    2.4908    3.9509 H         1 RES1    0.0000
     14 H6        11.3643    3.4558    4.7987 H         1 RES1    0.0000
     15 H7        12.7784    3.9267    4.3115 H         1 RES1    0.0000
     16 C9        10.2015    3.1149    2.3941 C.3       1 RES1    0.0000
     17 H8         9.8008    3.5003    1.6111 H         1 RES1    0.0000
     18 H9         9.5578    3.0938    3.1061 H         1 RES1    0.0000
     19 H10       10.4908    2.2210    2.1965 H         1 RES1    0.0000
     20 C10       15.0344    3.8123   -2.0034 C.3       1 RES1    0.0000
     21 H11       15.0900    4.0211   -2.9492 H         1 RES1    0.0000
     22 H12       15.6495    4.3987   -1.5342 H         1 RES1    0.0000
     23 C11       15.4627    2.3842   -1.7919 C.ar      1 RES1    0.0000
     24 C12       16.4643    2.0822   -0.9066 C.ar      1 RES1    0.0000
     25 H13       16.8933    2.7629   -0.4405 H         1 RES1    0.0000
     26 C13       16.8394    0.7574   -0.7030 C.ar      1 RES1    0.0000
     27 H14       17.5137    0.5541   -0.0965 H         1 RES1    0.0000
     28 C14       16.2177   -0.2476   -1.3954 C.ar      1 RES1    0.0000
     29 H15       16.4602   -1.1349   -1.2566 H         1 RES1    0.0000
     30 C15       15.2290    0.0700   -2.3036 C.ar      1 RES1    0.0000
     31 H16       14.8034   -0.6074   -2.7788 H         1 RES1    0.0000
     32 C16       14.8688    1.3715   -2.5102 C.ar      1 RES1    0.0000
     33 H17       14.2178    1.5747   -3.1423 H         1 RES1    0.0000
     34 C17       13.3913    7.7812   -3.8666 C.3       1 RES1    0.0000
     35 H18       13.7294    8.0288   -3.0035 H         1 RES1    0.0000
     36 H19       13.1310    8.5697   -4.3462 H         1 RES1    0.0000
     37 H20       14.0762    7.3192   -4.3567 H         1 RES1    0.0000
     38 C18       11.5839    6.5175   -5.0704 C.3       1 RES1    0.0000
     39 H21       12.2316    6.0289   -5.5847 H         1 RES1    0.0000
     40 H22       11.3552    7.3270   -5.5319 H         1 RES1    0.0000
     41 H23       10.7959    5.9811   -4.9541 H         1 RES1    0.0000
     42 C19        9.3416    7.4236   -1.1850 C.ar      1 RES1    0.0000
     43 C20        8.9781    6.6985   -0.0676 C.ar      1 RES1    0.0000
     44 H24        9.4539    5.9311    0.1554 H         1 RES1    0.0000
     45 C21        7.9194    7.0927    0.7241 C.ar      1 RES1    0.0000
     46 H25        7.6993    6.6041    1.4844 H         1 RES1    0.0000
     47 C22        7.1853    8.2176    0.3847 C.ar      1 RES1    0.0000
     48 H26        6.4638    8.4930    0.9036 H         1 RES1    0.0000
     49 C23        7.5501    8.9072   -0.7300 C.ar      1 RES1    0.0000
     50 C24        8.6055    8.5452   -1.5315 C.ar      1 RES1    0.0000
     51 H27        8.8206    9.0405   -2.2885 H         1 RES1    0.0000
     52 O1        12.4946    3.8297    1.8480 O.3       1 RES1    0.0000
     53 O2        11.3038    4.3556   -0.0439 O.2       1 RES1    0.0000
     54 O3        13.4678    6.4785   -1.1969 O.2       1 RES1    0.0000
     55 O4        10.8167    8.7544   -3.2398 O.2       1 RES1    0.0000
     56 O5         7.0669   10.6596   -2.1735 O.2       1 RES1    0.0000
     57 O6         5.8974   10.4975   -0.3636 O.2       1 RES1    0.0000
     58 N1        13.5129    3.8798   -0.0884 N.am      1 RES1    0.0000
     59 H28       14.2058    3.6369    0.3590 H         1 RES1    0.0000
     60 N2        12.5297    5.6018   -3.0529 N.am      1 RES1    0.0000
     61 H29       12.2957    4.8728   -3.4456 H         1 RES1    0.0000
     62 N3        10.4159    6.9450   -1.9646 N.am      1 RES1    0.0000
     63 H30       10.6695    6.1377   -1.8088 H         1 RES1    0.0000
     64 N4         6.7820   10.1032   -1.1166 N.pl3     1 RES1    0.0000
@<TRIPOS>BOND
     1    1   52 1
     2    2    3 1
     3    4    2 1
     4    5    6 1
     5    6   55 2
     6    7    8 1
     7    8    9 1
     8   10    8 1
     9   11    8 1
    10   12    7 1
    11   13   12 1
    12   14   12 1
    13   15   12 1
    14   16    7 1
    15   17   16 1
    16   18   16 1
    17   19   16 1
    18   20    2 1
    19   21   20 1
    20   22   20 1
    21   23   20 1
    22   24   23 ar
    23   25   24 1
    24   26   24 ar
    25   27   26 1
    26   28   26 ar
    27   29   28 1
    28   30   28 ar
    29   31   30 1
    30   32   23 ar
    31   33   32 1
    32   34    5 1
    33   35   34 1
    34   36   34 1
    35   37   34 1
    36   38    5 1
    37   39   38 1
    38   40   38 1
    39   41   38 1
    40   42   43 ar
    41   43   44 1
    42   45   43 ar
    43   46   45 1
    44   47   45 ar
    45   48   47 1
    46   49   47 ar
    47   50   42 ar
    48   51   50 1
    49   52    7 1
    50   53    1 2
    51   54    4 2
    52   56   64 2
    53   57   64 2
    54   58    1 1
    55   59   58 1
    56   60    4 1
    57   61   60 1
    58   62    6 1
    59   63   62 1
    60   64   49 1
    61    2   58 1
    62    5   60 1
    63   30   32 ar
    64   42   62 1
    65   49   50 ar
@<TRIPOS>SUBSTRUCTURE
     1 RES1 1

@<TRIPOS>CRYSIN
  14.7371   11.1049   15.1024  90.0000  92.7020  90.0000 231 1

