# MOL2 file generated by ConQuest
# Please check atom types

@<TRIPOS>MOLECULE
XUXFIG
   126   126     2
SMALL
NO_CHARGES
****
Generated from CSD

@<TRIPOS>ATOM
      1 C1         2.7916   14.1758    3.1471 C.ar      1 RES1    0.0000
      2 C2         3.2192   13.3786    4.2052 C.ar      1 RES1    0.0000
      3 H1         3.8591   12.7181    4.0666 H         1 RES1    0.0000
      4 C3         2.6847   13.5778    5.4577 C.ar      1 RES1    0.0000
      5 C4         1.7152   14.5286    5.7135 C.ar      1 RES1    0.0000
      6 H2         1.3531   14.6332    6.5636 H         1 RES1    0.0000
      7 C5         1.3046   15.3202    4.6519 C.ar      1 RES1    0.0000
      8 H3         0.6651   15.9785    4.8019 H         1 RES1    0.0000
      9 C6         1.8161   15.1584    3.3801 C.ar      1 RES1    0.0000
     10 H4         1.5173   15.6963    2.6834 H         1 RES1    0.0000
     11 C7         2.9122   14.3601    0.6922 C.2       1 RES1    0.0000
     12 C8         3.8266   14.0471   -0.5171 C.3       1 RES1    0.0000
     13 C9         3.9609   11.6438   -0.0602 C.2       1 RES1    0.0000
     14 C10        4.8854   10.4301   -0.0761 C.3       1 RES1    0.0000
     15 H5         5.7890   10.7133    0.1762 H         1 RES1    0.0000
     16 C11        4.3420    9.6857    2.1640 C.2       1 RES1    0.0000
     17 O1         3.8194    8.6243    2.8044 O.3       1 RES1    0.0000
     18 C12        2.9878   13.9552   -1.7889 C.3       1 RES1    0.0000
     19 H6         2.3233   13.2693   -1.6844 H         1 RES1    0.0000
     20 H7         3.5555   13.7401   -2.5322 H         1 RES1    0.0000
     21 H8         2.5548   14.7976   -1.9481 H         1 RES1    0.0000
     22 C13        4.8316   15.1831   -0.6387 C.3       1 RES1    0.0000
     23 H9         5.3999   15.1919    0.1352 H         1 RES1    0.0000
     24 H10        4.3638   16.0196   -0.7013 H         1 RES1    0.0000
     25 H11        5.3654   15.0555   -1.4264 H         1 RES1    0.0000
     26 C14        4.9188    9.8438   -1.5037 C.3       1 RES1    0.0000
     27 H12        4.0824    9.3849   -1.6776 H         1 RES1    0.0000
     28 H13        4.9981   10.5695   -2.1424 H         1 RES1    0.0000
     29 C15        6.0728    8.8685   -1.7128 C.3       1 RES1    0.0000
     30 H14        6.1714    8.3330   -0.8979 H         1 RES1    0.0000
     31 C16        5.7501    7.9147   -2.8755 C.3       1 RES1    0.0000
     32 H15        4.9662    7.4026   -2.6607 H         1 RES1    0.0000
     33 H16        6.4902    7.3204   -3.0175 H         1 RES1    0.0000
     34 H17        5.5906    8.4246   -3.6722 H         1 RES1    0.0000
     35 C17        7.3819    9.5923   -1.9617 C.3       1 RES1    0.0000
     36 H18        8.0944    8.9515   -2.0265 H         1 RES1    0.0000
     37 H19        7.5575   10.1939   -1.2354 H         1 RES1    0.0000
     38 H20        7.3223   10.0893   -2.7811 H         1 RES1    0.0000
     39 C18        3.6518    8.6112    4.2575 C.3       1 RES1    0.0000
     40 C19        2.5941    9.6448    4.6326 C.3       1 RES1    0.0000
     41 H21        2.4002    9.5792    5.5714 H         1 RES1    0.0000
     42 H22        1.7936    9.4802    4.1291 H         1 RES1    0.0000
     43 H23        2.9220   10.5246    4.4348 H         1 RES1    0.0000
     44 C20        3.1377    7.2116    4.5155 C.3       1 RES1    0.0000
     45 H24        3.0265    7.0812    5.4600 H         1 RES1    0.0000
     46 H25        3.7671    6.5711    4.1757 H         1 RES1    0.0000
     47 H26        2.2928    7.0943    4.0745 H         1 RES1    0.0000
     48 N1         3.1752   12.7564    6.5731 N.pl3     1 RES1    0.0000
     49 N2         4.5744   12.8132   -0.2914 N.am      1 RES1    0.0000
     50 H27        5.4339   12.8377   -0.3080 H         1 RES1    0.0000
     51 N3         4.4361    9.4189    0.8435 N.am      1 RES1    0.0000
     52 H28        4.2260    8.6394    0.5501 H         1 RES1    0.0000
     53 O2         4.1458   12.0364    6.3924 O.2       1 RES1    0.0000
     54 O3         2.5963   12.8257    7.6471 O.2       1 RES1    0.0000
     55 N4         3.3894   13.9602    1.8984 N.am      1 RES1    0.0000
     56 H29        4.1350   13.5309    1.8958 H         1 RES1    0.0000
     57 O4         1.8829   14.9938    0.5446 O.2       1 RES1    0.0000
     58 O5         2.7468   11.5631    0.1274 O.2       1 RES1    0.0000
     59 O6         4.6991   10.7416    2.6769 O.2       1 RES1    0.0000
     60 C21        4.9689    8.8465    4.9645 C.3       1 RES1    0.0000
     61 H30        4.8573    8.6955    5.9067 H         1 RES1    0.0000
     62 H31        5.2547    9.7511    4.8167 H         1 RES1    0.0000
     63 H32        5.6298    8.2415    4.6201 H         1 RES1    0.0000
     64 C22        8.3328   13.6239    0.6228 C.2       2 RES2    0.0000
     65 C23        9.1924   13.9666   -0.5876 C.3       2 RES2    0.0000
     66 C24        9.1552   16.4162   -0.3069 C.2       2 RES2    0.0000
     67 C25        9.9077   17.7226   -0.5671 C.3       2 RES2    0.0000
     68 H33        9.4728   18.1084   -1.3559 H         2 RES2    0.0000
     69 C26        9.7781   18.3487    1.8014 C.2       2 RES2    0.0000
     70 O7         9.4213   19.4283    2.5453 O.3       2 RES2    0.0000
     71 C27        9.4384   19.4167    4.0018 C.3       2 RES2    0.0000
     72 C28        8.1604   13.9021    3.0857 C.ar      2 RES2    0.0000
     73 C29        7.1802   12.9149    3.3119 C.ar      2 RES2    0.0000
     74 H34        6.8728   12.3874    2.6107 H         2 RES2    0.0000
     75 C30        6.6788   12.7394    4.5951 C.ar      2 RES2    0.0000
     76 H35        6.0293   12.0904    4.7417 H         2 RES2    0.0000
     77 C31        7.1157   13.4999    5.6589 C.ar      2 RES2    0.0000
     78 H36        6.7654   13.3814    6.5136 H         2 RES2    0.0000
     79 C32        8.0956   14.4462    5.4089 C.ar      2 RES2    0.0000
     80 C33        8.6314   14.6605    4.1518 C.ar      2 RES2    0.0000
     81 H37        9.2945   15.3002    4.0234 H         2 RES2    0.0000
     82 C34       10.3008   12.8885   -0.6626 C.3       2 RES2    0.0000
     83 H38       10.8313   12.9199    0.1364 H         2 RES2    0.0000
     84 H39       10.8595   13.0563   -1.4252 H         2 RES2    0.0000
     85 H40        9.8978   12.0212   -0.7456 H         2 RES2    0.0000
     86 C35        8.3471   13.9302   -1.8639 C.3       2 RES2    0.0000
     87 H41        7.6817   14.6220   -1.8264 H         2 RES2    0.0000
     88 H42        7.9169   13.0750   -1.9378 H         2 RES2    0.0000
     89 H43        8.9123   14.0708   -2.6266 H         2 RES2    0.0000
     90 C36       11.3688   17.5997   -0.9524 C.3       2 RES2    0.0000
     91 H44       11.4371   16.9874   -1.7026 H         2 RES2    0.0000
     92 H45       11.8490   17.2041   -0.2091 H         2 RES2    0.0000
     93 C37       12.0656   18.9128   -1.3354 C.3       2 RES2    0.0000
     94 H46       12.1111   19.4798   -0.5365 H         2 RES2    0.0000
     95 C38       11.3393   19.6833   -2.4209 C.3       2 RES2    0.0000
     96 H47       11.8484   20.4626   -2.6550 H         2 RES2    0.0000
     97 H48       10.4751   19.9507   -2.1003 H         2 RES2    0.0000
     98 H49       11.2344   19.1248   -3.1949 H         2 RES2    0.0000
     99 C39       13.4989   18.5929   -1.7798 C.3       2 RES2    0.0000
    100 H50       13.9606   18.1402   -1.0695 H         2 RES2    0.0000
    101 H51       13.9588   19.4088   -1.9912 H         2 RES2    0.0000
    102 H52       13.4756   18.0281   -2.5561 H         2 RES2    0.0000
    103 C40       10.8421   19.1977    4.5167 C.3       2 RES2    0.0000
    104 H53       10.8441   19.2575    5.4748 H         2 RES2    0.0000
    105 H54       11.4244   19.8685    4.1541 H         2 RES2    0.0000
    106 H55       11.1490   18.3289    4.2496 H         2 RES2    0.0000
    107 C41        8.9728   20.8254    4.3473 C.3       2 RES2    0.0000
    108 H56        8.9238   20.9204    5.3020 H         2 RES2    0.0000
    109 H57        8.1058   20.9783    3.9666 H         2 RES2    0.0000
    110 H58        9.5960   21.4641    3.9938 H         2 RES2    0.0000
    111 C42        8.4433   18.4055    4.5269 C.3       2 RES2    0.0000
    112 H59        8.3308   18.5288    5.4725 H         2 RES2    0.0000
    113 H60        8.7684   17.5180    4.3564 H         2 RES2    0.0000
    114 H61        7.5995   18.5270    4.0859 H         2 RES2    0.0000
    115 N5         9.8511   15.2619   -0.4437 N.am      2 RES2    0.0000
    116 H62       10.7101   15.2928   -0.4455 H         2 RES2    0.0000
    117 N6         9.6470   18.6699    0.4995 N.am      2 RES2    0.0000
    118 H63        9.3992   19.4668    0.2932 H         2 RES2    0.0000
    119 N7         8.6120   15.2242    6.5454 N.pl3     2 RES2    0.0000
    120 N8         8.7386   14.1275    1.8151 N.am      2 RES2    0.0000
    121 H64        9.4274   14.6426    1.7958 H         2 RES2    0.0000
    122 O8         7.3816   12.8457    0.5018 O.2       2 RES2    0.0000
    123 O9         7.9508   16.4155   -0.0667 O.2       2 RES2    0.0000
    124 O10       10.1518   17.2705    2.2425 O.2       2 RES2    0.0000
    125 O11        9.5538   15.9656    6.3631 O.2       2 RES2    0.0000
    126 O12        8.0616   15.0809    7.6465 O.2       2 RES2    0.0000
@<TRIPOS>BOND
     1    1    2 ar
     2    2    3 1
     3    4    2 ar
     4    5    4 ar
     5    6    5 1
     6    7    5 ar
     7    8    7 1
     8    9    1 ar
     9   10    9 1
    10   11   12 1
    11   12   18 1
    12   13   14 1
    13   14   15 1
    14   16   17 1
    15   17   39 1
    16   18   19 1
    17   20   18 1
    18   21   18 1
    19   22   12 1
    20   23   22 1
    21   24   22 1
    22   25   22 1
    23   26   14 1
    24   27   26 1
    25   28   26 1
    26   29   26 1
    27   30   29 1
    28   31   29 1
    29   32   31 1
    30   33   31 1
    31   34   31 1
    32   35   29 1
    33   36   35 1
    34   37   35 1
    35   38   35 1
    36   39   40 1
    37   40   41 1
    38   42   40 1
    39   43   40 1
    40   44   39 1
    41   45   44 1
    42   46   44 1
    43   47   44 1
    44   48    4 1
    45   49   12 1
    46   50   49 1
    47   51   14 1
    48   52   51 1
    49   53   48 2
    50   54   48 2
    51   55    1 1
    52   56   55 1
    53   57   11 2
    54   58   13 2
    55   59   16 2
    56   60   39 1
    57   61   60 1
    58   62   60 1
    59   63   60 1
    60   64   65 1
    61   65   82 1
    62   66   67 1
    63   67   68 1
    64   69   70 1
    65   70   71 1
    66   71  103 1
    67   72   73 ar
    68   73   74 1
    69   75   73 ar
    70   76   75 1
    71   77   75 ar
    72   78   77 1
    73   79   77 ar
    74   80   72 ar
    75   81   80 1
    76   82   83 1
    77   84   82 1
    78   85   82 1
    79   86   65 1
    80   87   86 1
    81   88   86 1
    82   89   86 1
    83   90   67 1
    84   91   90 1
    85   92   90 1
    86   93   90 1
    87   94   93 1
    88   95   93 1
    89   96   95 1
    90   97   95 1
    91   98   95 1
    92   99   93 1
    93  100   99 1
    94  101   99 1
    95  102   99 1
    96  103  104 1
    97  105  103 1
    98  106  103 1
    99  107   71 1
   100  108  107 1
   101  109  107 1
   102  110  107 1
   103  111   71 1
   104  112  111 1
   105  113  111 1
   106  114  111 1
   107  115   65 1
   108  116  115 1
   109  117   67 1
   110  118  117 1
   111  119   79 1
   112  120   64 1
   113  121  120 1
   114  122   64 2
   115  123   66 2
   116  124   69 2
   117  125  119 2
   118  126  119 2
   119    7    9 ar
   120   11   55 1
   121   13   49 1
   122   16   51 1
   123   66  115 1
   124   69  117 1
   125   72  120 1
   126   79   80 ar
@<TRIPOS>SUBSTRUCTURE
     1 RES1 1
     2 RES2 64

@<TRIPOS>CRYSIN
  10.8030   18.6839   11.7419  90.0000 104.5460  90.0000   4 1

