# MOL2 file generated by ConQuest
# Please check atom types

@<TRIPOS>MOLECULE
XUXMOS
    38    40     1
SMALL
NO_CHARGES
****
Generated from CSD

@<TRIPOS>ATOM
      1 O1         3.1418   -3.5373    5.7847 O.2       1 RES1    0.0000
      2 O2         7.4007   -2.4421    2.9330 O.2       1 RES1    0.0000
      3 O3         3.3046    2.0684    3.3919 O.2       1 RES1    0.0000
      4 O4         3.9064    0.5386    4.7969 O.2       1 RES1    0.0000
      5 O5         1.4096   -0.0934    2.7046 O.3       1 RES1    0.0000
      6 N1         3.6744    0.9318    3.6711 N.pl3     1 RES1    0.0000
      7 C1         3.9754   -3.5478    4.8974 C.2       1 RES1    0.0000
      8 C2         5.2249   -4.3058    5.0396 C.2       1 RES1    0.0000
      9 C3         6.3224   -3.9719    4.3573 C.2       1 RES1    0.0000
     10 C4         6.3514   -2.8150    3.4467 C.2       1 RES1    0.0000
     11 C5         5.0597   -2.1066    3.2244 C.2       1 RES1    0.0000
     12 C6         5.0735   -0.8595    2.7543 C.2       1 RES1    0.0000
     13 C7         3.8383   -0.0666    2.5279 C.3       1 RES1    0.0000
     14 C8         2.5541   -0.9140    2.4274 C.3       1 RES1    0.0000
     15 C9         2.4870   -1.5477    1.0213 C.3       1 RES1    0.0000
     16 C10        1.2421   -2.4064    0.8518 C.3       1 RES1    0.0000
     17 C11        1.1831   -3.4958    1.9127 C.3       1 RES1    0.0000
     18 C12        1.2677   -2.8882    3.3147 C.3       1 RES1    0.0000
     19 C13        2.5030   -2.0018    3.5066 C.3       1 RES1    0.0000
     20 C14        3.7866   -2.8345    3.5634 C.3       1 RES1    0.0000
     21 C15        1.0330    0.8563    1.7198 C.3       1 RES1    0.0000
     22 H1         5.2521   -5.0451    5.7533 H         1 RES1    0.0000
     23 H2         7.1801   -4.3724    4.4680 H         1 RES1    0.0000
     24 H3         5.8842   -0.4428    2.6193 H         1 RES1    0.0000
     25 H4         3.8937    0.4574    1.7645 H         1 RES1    0.0000
     26 H5         2.5293   -0.8417    0.4061 H         1 RES1    0.0000
     27 H6         3.3566   -2.0579    0.8741 H         1 RES1    0.0000
     28 H7         0.3915   -1.8767    0.8985 H         1 RES1    0.0000
     29 H8         1.2218   -2.8427   -0.0802 H         1 RES1    0.0000
     30 H9         1.9279   -4.1263    1.8030 H         1 RES1    0.0000
     31 H10        0.3403   -4.0589    1.7837 H         1 RES1    0.0000
     32 H11        1.2727   -3.5909    3.9127 H         1 RES1    0.0000
     33 H12        0.4585   -2.4283    3.4101 H         1 RES1    0.0000
     34 H13        2.4516   -1.5468    4.3360 H         1 RES1    0.0000
     35 H14        3.7208   -3.5438    2.9848 H         1 RES1    0.0000
     36 H15        0.4196    1.4680    2.1675 H         1 RES1    0.0000
     37 H16        0.5016    0.4777    1.0030 H         1 RES1    0.0000
     38 H17        1.6991    1.3429    1.3614 H         1 RES1    0.0000
@<TRIPOS>BOND
     1    1    7 2
     2    2   10 2
     3    3    6 2
     4    4    6 2
     5    5   14 1
     6    6   13 1
     7    7    8 1
     8    8    9 2
     9    9   10 1
    10   10   11 1
    11   11   12 2
    12   12   13 1
    13   13   14 1
    14   14   15 1
    15   15   16 1
    16   16   17 1
    17   17   18 1
    18   18   19 1
    19   19   14 1
    20   20    7 1
    21   21    5 1
    22   22    8 1
    23   23    9 1
    24   24   12 1
    25   25   13 1
    26   26   15 1
    27   27   15 1
    28   28   16 1
    29   29   16 1
    30   30   17 1
    31   31   17 1
    32   32   18 1
    33   33   18 1
    34   34   19 1
    35   35   20 1
    36   36   21 1
    37   37   21 1
    38   38   21 1
    39   11   20 1
    40   19   20 1
@<TRIPOS>SUBSTRUCTURE
     1 RES1 1

@<TRIPOS>CRYSIN
  32.5790    8.1242   10.5590  90.0000 105.9550  90.0000  15 1

