# MOL2 file generated by ConQuest
# Please check atom types

@<TRIPOS>MOLECULE
XUYRIU
    59    64     1
SMALL
USER_CHARGES
****
Generated from CSD

@<TRIPOS>ATOM
      1 C1         4.2264    7.6645    1.2568 C.ar      1 RES1    0.0000
      2 C2         4.5675    6.3708    1.5369 C.ar      1 RES1    0.0000
      3 H1         4.4669    6.0223    2.3934 H         1 RES1    0.0000
      4 C3         5.0702    5.5955    0.5043 C.ar      1 RES1    0.0000
      5 H2         5.3185    4.7154    0.6744 H         1 RES1    0.0000
      6 C4         5.2050    6.1035   -0.7647 C.ar      1 RES1    0.0000
      7 H3         5.5438    5.5630   -1.4421 H         1 RES1    0.0000
      8 C5         4.8419    7.4179   -1.0507 C.ar      1 RES1    0.0000
      9 H4         4.9205    7.7605   -1.9102 H         1 RES1    0.0000
     10 C6         4.3629    8.1887   -0.0227 C.ar      1 RES1    0.0000
     11 C7         3.5974    9.9315    1.3584 C.2       1 RES1   -1.0000
     12 C8         2.9467   11.2014    1.8575 C.3       1 RES1    0.0000
     13 C9         3.3514   12.4529    1.0120 C.3       1 RES1    0.0000
     14 H5         2.8673   12.3621    0.1641 H         1 RES1    0.0000
     15 C10        5.7822   12.2425    1.4902 C.ar      1 RES1    0.0000
     16 H6         5.5785   11.9058    2.3347 H         1 RES1    0.0000
     17 C11        7.1042   12.4227    1.1139 C.ar      1 RES1    0.0000
     18 H7         7.7906   12.2396    1.7145 H         1 RES1    0.0000
     19 C12        7.3909   12.8731   -0.1490 C.ar      1 RES1    0.0000
     20 H8         8.2753   12.9898   -0.4140 H         1 RES1    0.0000
     21 C13        6.3680   13.1522   -1.0191 C.ar      1 RES1    0.0000
     22 H9         6.5495   13.4476   -1.8816 H         1 RES1    0.0000
     23 C14        5.0820   12.9868   -0.6015 C.ar      1 RES1    0.0000
     24 H10        4.3853   13.1788   -1.1862 H         1 RES1    0.0000
     25 C15        2.8907   13.7813    1.6003 C.ar      1 RES1    0.0000
     26 C16        3.6360   14.5167    2.4983 C.ar      1 RES1    0.0000
     27 H11        4.4623   14.1904    2.7773 H         1 RES1    0.0000
     28 C17        3.1809   15.7307    2.9940 C.ar      1 RES1    0.0000
     29 H12        3.6966   16.2313    3.5841 H         1 RES1    0.0000
     30 C18        1.9597   16.1619    2.5891 C.ar      1 RES1    0.0000
     31 C19        1.1914   15.4663    1.7160 C.ar      1 RES1    0.0000
     32 H13        0.3563   15.7853    1.4616 H         1 RES1    0.0000
     33 C20        1.6687   14.2819    1.2133 C.ar      1 RES1    0.0000
     34 H14        1.1569   13.8094    0.5976 H         1 RES1    0.0000
     35 C21        3.1920   11.4142    3.3899 C.2       1 RES1    0.0000
     36 C22        0.9335   11.2929    3.0979 C.ar      1 RES1    0.0000
     37 C23        1.4281   11.1128    1.8199 C.ar      1 RES1    0.0000
     38 C24        0.5716   10.8469    0.7782 C.ar      1 RES1    0.0000
     39 H15        0.9075   10.7111   -0.0783 H         1 RES1    0.0000
     40 C25       -0.8002   10.7805    1.0086 C.ar      1 RES1    0.0000
     41 C26       -1.2580   10.9843    2.2971 C.ar      1 RES1    0.0000
     42 H16       -2.1748   10.9459    2.4551 H         1 RES1    0.0000
     43 C27       -0.4139   11.2442    3.3628 C.ar      1 RES1    0.0000
     44 H17       -0.7446   11.3815    4.2224 H         1 RES1    0.0000
     45 C28       -1.7761   10.4556   -0.0873 C.3       1 RES1    0.0000
     46 H18       -2.2849    9.6788    0.1581 H         1 RES1    0.0000
     47 H19       -1.2973   10.2828   -0.9002 H         1 RES1    0.0000
     48 H20       -2.3701   11.1984   -0.2168 H         1 RES1    0.0000
     49 C29        3.9186    9.6257    0.0105 C.2       1 RES1    0.0000
     50 C30        3.7098    8.7544    2.1401 C.2       1 RES1    0.0000
     51 N1         1.9787   11.5220    3.9854 N.am      1 RES1    0.0000
     52 H21        1.8746   11.6119    4.9013 H         1 RES1    0.0000
     53 N2         4.7964   12.5522    0.6367 N.pl3     1 RES1    1.0000
     54 N3         1.4364   17.4482    3.1069 N.pl3     1 RES1    0.0000
     55 O1         3.4361    8.5956    3.3493 O.2       1 RES1    0.0000
     56 O2         3.8696   10.3640   -1.0049 O.2       1 RES1    0.0000
     57 O3         4.2713   11.5112    3.9445 O.2       1 RES1    0.0000
     58 O4         0.3177   17.7908    2.7818 O.2       1 RES1    0.0000
     59 O5         2.1620   18.1112    3.8069 O.2       1 RES1    0.0000
@<TRIPOS>BOND
     1    1    2 ar
     2    2    3 1
     3    4    2 ar
     4    5    4 1
     5    6    4 ar
     6    7    6 1
     7    8    6 ar
     8    9    8 1
     9   10    1 ar
    10   11   12 1
    11   12   13 1
    12   13   14 1
    13   15   16 1
    14   17   15 ar
    15   18   17 1
    16   19   17 ar
    17   20   19 1
    18   21   19 ar
    19   22   21 1
    20   23   21 ar
    21   24   23 1
    22   25   13 1
    23   26   25 ar
    24   27   26 1
    25   28   26 ar
    26   29   28 1
    27   30   28 ar
    28   31   30 ar
    29   32   31 1
    30   33   25 ar
    31   34   33 1
    32   35   12 1
    33   36   37 ar
    34   37   12 1
    35   38   37 ar
    36   39   38 1
    37   40   38 ar
    38   41   40 ar
    39   42   41 1
    40   43   36 ar
    41   44   43 1
    42   45   40 1
    43   46   45 1
    44   47   45 1
    45   48   45 1
    46   49   10 1
    47   50    1 1
    48   51   35 1
    49   52   51 1
    50   53   13 1
    51   54   30 1
    52   55   50 2
    53   56   49 2
    54   57   35 2
    55   58   54 2
    56   59   54 2
    57    8   10 ar
    58   11   49 1
    59   11   50 1
    60   15   53 ar
    61   23   53 ar
    62   31   33 ar
    63   36   51 1
    64   41   43 ar
@<TRIPOS>SUBSTRUCTURE
     1 RES1 1

@<TRIPOS>CRYSIN
  12.8577   14.7678   16.2529  90.0000 112.1542  90.0000  14 1

