# MOL2 file generated by ConQuest
# Please check atom types

@<TRIPOS>MOLECULE
XUZJUX01
    16    16     1
SMALL
NO_CHARGES
****
Generated from CSD

@<TRIPOS>ATOM
      1 N1         3.2449    6.2246    1.5940 N.2       1 RES1    0.0000
      2 O1         0.6521    5.8037    1.1208 O.3       1 RES1    0.0000
      3 O2         4.6203    6.3009    1.8643 O.3       1 RES1    0.0000
      4 H1         4.7462    6.8029    2.5007 H         1 RES1    0.0000
      5 C1        -0.5690    5.5821    0.5540 C.2       1 RES1    0.0000
      6 H2        -1.3821    5.7733    0.9629 H         1 RES1    0.0000
      7 C2        -0.4427    5.0553   -0.6626 C.2       1 RES1    0.0000
      8 H3        -1.1294    4.8254   -1.2460 H         1 RES1    0.0000
      9 C3         0.9467    4.9159   -0.8874 C.2       1 RES1    0.0000
     10 H4         1.3480    4.5644   -1.6491 H         1 RES1    0.0000
     11 C4         1.5821    5.3862    0.2071 C.2       1 RES1    0.0000
     12 C5         2.9750    5.5334    0.5411 C.2       1 RES1    0.0000
     13 C6         4.0055    4.8967   -0.3356 C.3       1 RES1    0.0000
     14 H5         4.6690    5.5481   -0.5749 H         1 RES1    0.0000
     15 H6         3.5860    4.5601   -1.1304 H         1 RES1    0.0000
     16 H7         4.4244    4.1729    0.1360 H         1 RES1    0.0000
@<TRIPOS>BOND
     1    1    3 1
     2    2    5 1
     3    3    4 1
     4    5    6 1
     5    7    5 2
     6    8    7 1
     7    9    7 1
     8   10    9 1
     9   11    2 1
    10   12    1 2
    11   13   12 1
    12   14   13 1
    13   15   13 1
    14   16   13 1
    15    9   11 2
    16   11   12 1
@<TRIPOS>SUBSTRUCTURE
     1 RES1 1

@<TRIPOS>CRYSIN
   8.3290   14.3400    5.5349  90.0000 104.7530  90.0000  14 1

