# MOL2 file generated by ConQuest
# Please check atom types

@<TRIPOS>MOLECULE
XUZJUX
    46    46     3
SMALL
NO_CHARGES
****
Generated from CSD

@<TRIPOS>ATOM
      1 O1        -0.2404    1.2879   -1.4495 O.3       1 RES1    0.0000
      2 O2        -0.1002    2.1885    2.5085 O.3       1 RES1    0.0000
      3 N1        -0.2432    1.5355   -0.0538 N.2       1 RES1    0.0000
      4 C1        -0.2123    2.8270    0.1989 C.2       1 RES1    0.0000
      5 C2        -0.1542    3.8575   -0.8927 C.3       1 RES1    0.0000
      6 C3        -0.0939    3.1875    1.6183 C.2       1 RES1    0.0000
      7 C4         0.0392    4.4013    2.1734 C.2       1 RES1    0.0000
      8 C5         0.1444    4.1586    3.5854 C.2       1 RES1    0.0000
      9 C6         0.0897    2.8209    3.7330 C.2       1 RES1    0.0000
     10 H1        -0.7008    0.4613   -1.7202 H         1 RES1    0.0000
     11 H2         0.7218    3.8187   -1.3321 H         1 RES1    0.0000
     12 H3        -0.2873    4.7485   -0.5079 H         1 RES1    0.0000
     13 H4        -0.8571    3.6767   -1.5506 H         1 RES1    0.0000
     14 H5         0.0610    5.2401    1.7291 H         1 RES1    0.0000
     15 H6         0.2334    4.8079    4.2727 H         1 RES1    0.0000
     16 H7         0.1710    2.3694    4.5645 H         1 RES1    0.0000
     17 O3         6.7585    5.3554   -1.3981 O.3       2 RES2    0.0000
     18 O4         7.1215    6.2318    2.5501 O.3       2 RES2    0.0000
     19 N2         6.8440    5.6127   -0.0041 N.2       2 RES2    0.0000
     20 C7         6.9568    6.8739    0.2788 C.2       2 RES2    0.0000
     21 C8         6.9463    7.9287   -0.8218 C.3       2 RES2    0.0000
     22 C9         7.0928    7.2210    1.6427 C.2       2 RES2    0.0000
     23 C10        7.1566    8.4263    2.2158 C.2       2 RES2    0.0000
     24 C11        7.3044    8.1727    3.6686 C.2       2 RES2    0.0000
     25 C12        7.2708    6.8302    3.7917 C.2       2 RES2    0.0000
     26 H8         7.8370    7.9857   -1.2269 H         2 RES2    0.0000
     27 H9         6.7053    8.7978   -0.4394 H         2 RES2    0.0000
     28 H10        6.2911    7.6798   -1.5066 H         2 RES2    0.0000
     29 H11        7.1166    9.2700    1.7829 H         2 RES2    0.0000
     30 H12        7.4018    8.8148    4.3607 H         2 RES2    0.0000
     31 H13        7.3388    6.3604    4.6151 H         2 RES2    0.0000
     32 O5         0.2481    9.3853    5.3814 O.3       3 RES3    0.0000
     33 O6        -0.0442   10.2701    1.4267 O.3       3 RES3    0.0000
     34 N3         0.2025    9.6195    3.9963 N.2       3 RES3    0.0000
     35 C13        0.1219   10.8831    3.7933 C.2       3 RES3    0.0000
     36 C14        0.1156   11.9719    4.7944 C.3       3 RES3    0.0000
     37 C15       -0.0077   11.3189    2.4033 C.2       3 RES3    0.0000
     38 C16       -0.1612   12.5121    1.7414 C.2       3 RES3    0.0000
     39 C17       -0.2859   12.2110    0.3832 C.2       3 RES3    0.0000
     40 C18       -0.1920   10.8904    0.2283 C.2       3 RES3    0.0000
     41 H14       -0.5053   11.7461    5.5184 H         3 RES3    0.0000
     42 H15       -0.1682   12.8058    4.3672 H         3 RES3    0.0000
     43 H16        1.0183   12.0836    5.1605 H         3 RES3    0.0000
     44 H17       -0.1801   13.3775    2.1327 H         3 RES3    0.0000
     45 H18       -0.4163   12.8422   -0.3139 H         3 RES3    0.0000
     46 H19       -0.2236   10.4425   -0.6098 H         3 RES3    0.0000
@<TRIPOS>BOND
     1    1    3 1
     2    2    6 1
     3    3    4 2
     4    4    5 1
     5    5   11 1
     6    6    4 1
     7    7    6 2
     8    8    7 1
     9    9    2 1
    10   10    1 1
    11   12    5 1
    12   13    5 1
    13   14    7 1
    14   15    8 1
    15   16    9 1
    16   17   19 1
    17   18   22 1
    18   19   20 2
    19   20   21 1
    20   21   26 1
    21   22   20 1
    22   23   22 2
    23   24   23 1
    24   25   18 1
    25   27   21 1
    26   28   21 1
    27   29   23 1
    28   30   24 1
    29   31   25 1
    30   32   34 1
    31   33   37 1
    32   34   35 2
    33   35   36 1
    34   36   41 1
    35   37   35 1
    36   38   37 2
    37   39   38 1
    38   40   33 1
    39   42   36 1
    40   43   36 1
    41   44   38 1
    42   45   39 1
    43   46   40 1
    44    8    9 2
    45   24   25 2
    46   39   40 2
@<TRIPOS>SUBSTRUCTURE
     1 RES1 1
     2 RES2 17
     3 RES3 32

@<TRIPOS>CRYSIN
  14.0160   14.0160    8.1524  90.0000  90.0000 120.0000 145 1

