# MOL2 file generated by ConQuest
# Please check atom types

@<TRIPOS>MOLECULE
XUZNUB
    72    76     2
SMALL
NO_CHARGES
****
Generated from CSD

@<TRIPOS>ATOM
      1 O1         8.8598    6.3558    7.3560 O.3       1 RES1    0.0000
      2 O2         8.2173    8.8773    9.6916 O.2       1 RES1    0.0000
      3 O3         5.6938    8.2522    8.6166 O.3       1 RES1    0.0000
      4 N1         9.1244    7.3996    8.2864 N.am      1 RES1    0.0000
      5 C1        10.0357    6.1722    6.5042 C.3       1 RES1    0.0000
      6 C2        10.5311    7.7592    8.5848 C.3       1 RES1    0.0000
      7 C3        11.3765    6.5296    8.4398 C.2       1 RES1    0.0000
      8 C4        11.1711    5.7492    7.3939 C.2       1 RES1    0.0000
      9 C5        10.3359    7.4160    5.6758 C.3       1 RES1    0.0000
     10 C6        11.3334    8.3811    6.2671 C.3       1 RES1    0.0000
     11 C7        10.9657    8.8926    7.6617 C.3       1 RES1    0.0000
     12 C8         8.0677    7.9297    8.9168 C.2       1 RES1    0.0000
     13 C9         6.6913    7.2750    8.7243 C.3       1 RES1    0.0000
     14 C10        6.5502    6.3197    9.9013 C.ar      1 RES1    0.0000
     15 C11        7.2332    5.1120    9.8957 C.ar      1 RES1    0.0000
     16 C12        7.1758    4.2572   10.9751 C.ar      1 RES1    0.0000
     17 C13        6.4538    4.5983   12.0880 C.ar      1 RES1    0.0000
     18 C14        5.7851    5.7973   12.1326 C.ar      1 RES1    0.0000
     19 C15        5.8197    6.6618   11.0365 C.ar      1 RES1    0.0000
     20 O4         4.0410   12.8198   12.4266 O.3       2 RES2    0.0000
     21 O5         4.6531    9.9201   10.5567 O.2       2 RES2    0.0000
     22 O6         7.1859   11.0437   10.9573 O.3       2 RES2    0.0000
     23 N2         3.7882   11.7093   11.5971 N.am      2 RES2    0.0000
     24 C16        3.0756   13.8811   12.1131 C.3       2 RES2    0.0000
     25 C17        2.3992   11.5235   11.0811 C.3       2 RES2    0.0000
     26 C18        1.4372   12.1498   12.0322 C.2       2 RES2    0.0000
     27 C19        1.7314   13.3390   12.4952 C.2       2 RES2    0.0000
     28 C20        3.1872   14.3336   10.6599 C.3       2 RES2    0.0000
     29 C21        2.2251   13.6516    9.6949 C.3       2 RES2    0.0000
     30 C22        2.3079   12.1301    9.6810 C.3       2 RES2    0.0000
     31 C23        4.8162   10.9081   11.2931 C.2       2 RES2    0.0000
     32 C24        6.1748   11.1989   11.9122 C.3       2 RES2    0.0000
     33 C25        6.3337   10.3289   13.1590 C.ar      2 RES2    0.0000
     34 C26        7.2468    9.2938   13.1980 C.ar      2 RES2    0.0000
     35 C27        7.3626    8.5177   14.3248 C.ar      2 RES2    0.0000
     36 C28        6.5890    8.7374   15.4405 C.ar      2 RES2    0.0000
     37 C29        5.6574    9.7736   15.4098 C.ar      2 RES2    0.0000
     38 C30        5.5517   10.5671   14.2830 C.ar      2 RES2    0.0000
     39 H1         9.7644    5.5524    5.9826 H         1 RES1    0.0000
     40 H2        10.4830    8.1101    9.4272 H         1 RES1    0.0000
     41 H3        12.0131    6.3503    9.1204 H         1 RES1    0.0000
     42 H4        11.7849    4.8529    7.3353 H         1 RES1    0.0000
     43 H5        10.6436    7.0389    4.9088 H         1 RES1    0.0000
     44 H6         9.3332    7.8915    5.6898 H         1 RES1    0.0000
     45 H7        12.1991    8.0117    6.3313 H         1 RES1    0.0000
     46 H8        11.3960    9.0938    5.5782 H         1 RES1    0.0000
     47 H9        11.7680    9.3889    8.0605 H         1 RES1    0.0000
     48 H10       10.2547    9.5856    7.6142 H         1 RES1    0.0000
     49 H11        6.6364    6.8094    7.9155 H         1 RES1    0.0000
     50 H12        5.7234    8.7768    9.1761 H         1 RES1    0.0000
     51 H13        7.7439    4.8529    9.2040 H         1 RES1    0.0000
     52 H14        7.6086    3.4539   10.9333 H         1 RES1    0.0000
     53 H15        6.3912    3.9567   12.7741 H         1 RES1    0.0000
     54 H16        5.1992    6.0334   12.8856 H         1 RES1    0.0000
     55 H17        5.3852    7.4652   11.0169 H         1 RES1    0.0000
     56 H18        3.4915   14.6134   12.6346 H         2 RES2    0.0000
     57 H19        2.2403   10.6021   11.1006 H         2 RES2    0.0000
     58 H20        0.5326   11.6077   12.2999 H         2 RES2    0.0000
     59 H21        1.1667   13.8702   13.0251 H         2 RES2    0.0000
     60 H22        4.1509   14.1653   10.3197 H         2 RES2    0.0000
     61 H23        2.9589   15.3239   10.5149 H         2 RES2    0.0000
     62 H24        2.3671   14.0450    8.8136 H         2 RES2    0.0000
     63 H25        1.1920   14.0341    9.9292 H         2 RES2    0.0000
     64 H26        3.0603   11.8809    9.2877 H         2 RES2    0.0000
     65 H27        1.5978   11.7716    8.9809 H         2 RES2    0.0000
     66 H28        6.2221   12.1542   12.1326 H         2 RES2    0.0000
     67 H29        7.1859   10.2305   10.5986 H         2 RES2    0.0000
     68 H30        7.8876    9.0828   12.4115 H         2 RES2    0.0000
     69 H31        7.8876    7.8696   14.3360 H         2 RES2    0.0000
     70 H32        6.6787    8.1866   16.2326 H         2 RES2    0.0000
     71 H33        5.1316    9.9682   16.1489 H         2 RES2    0.0000
     72 H34        4.8357   11.2579   14.2802 H         2 RES2    0.0000
@<TRIPOS>BOND
     1    1    4 1
     2    2   12 2
     3    3   13 1
     4    4    6 1
     5    5    1 1
     6    6    7 1
     7    7    8 2
     8    8    5 1
     9    9    5 1
    10   10    9 1
    11   11    6 1
    12   12    4 1
    13   13   12 1
    14   14   13 1
    15   15   14 ar
    16   16   15 ar
    17   17   16 ar
    18   18   17 ar
    19   19   14 ar
    20   20   23 1
    21   21   31 2
    22   22   32 1
    23   23   25 1
    24   24   20 1
    25   25   26 1
    26   26   27 2
    27   27   24 1
    28   28   24 1
    29   29   28 1
    30   30   25 1
    31   31   23 1
    32   32   31 1
    33   33   32 1
    34   34   33 ar
    35   35   34 ar
    36   36   35 ar
    37   37   36 ar
    38   38   33 ar
    39   39    5 1
    40   40    6 1
    41   41    7 1
    42   42    8 1
    43   43    9 1
    44   44    9 1
    45   45   10 1
    46   46   10 1
    47   47   11 1
    48   48   11 1
    49   49   13 1
    50   50    3 1
    51   51   15 1
    52   52   16 1
    53   53   17 1
    54   54   18 1
    55   55   19 1
    56   56   24 1
    57   57   25 1
    58   58   26 1
    59   59   27 1
    60   60   28 1
    61   61   28 1
    62   62   29 1
    63   63   29 1
    64   64   30 1
    65   65   30 1
    66   66   32 1
    67   67   22 1
    68   68   34 1
    69   69   35 1
    70   70   36 1
    71   71   37 1
    72   72   38 1
    73   10   11 1
    74   18   19 ar
    75   29   30 1
    76   37   38 ar
@<TRIPOS>SUBSTRUCTURE
     1 RES1 1
     2 RES2 20

@<TRIPOS>CRYSIN
   8.4540   10.9300   27.8910  90.0000  90.0000  90.0000  19 1

