# MOL2 file generated by ConQuest
# Please check atom types

@<TRIPOS>MOLECULE
XUZNAI
    39    41     1
SMALL
NO_CHARGES
****
Generated from CSD

@<TRIPOS>ATOM
      1 O1         3.8929    6.9411    1.1594 O.2       1 RES1    0.0000
      2 N1         2.0362    5.2898    4.5874 N.3       1 RES1    0.0000
      3 N2         1.4651    5.7721    2.4602 N.2       1 RES1    0.0000
      4 N3         3.9325    7.5057    2.2969 N.3       1 RES1    0.0000
      5 N4         3.5390    7.8411    4.4762 N.2       1 RES1    0.0000
      6 C1         0.9450    4.4952    4.2818 C.ar      1 RES1    0.0000
      7 C2         0.2147    3.5912    5.0516 C.ar      1 RES1    0.0000
      8 H1         0.4602    3.3807    5.9235 H         1 RES1    0.0000
      9 C3        -0.8745    3.0320    4.4624 C.ar      1 RES1    0.0000
     10 H2        -1.3914    2.4320    4.9511 H         1 RES1    0.0000
     11 C4        -1.2410    3.3283    3.1533 C.ar      1 RES1    0.0000
     12 H3        -1.9908    2.9177    2.7890 H         1 RES1    0.0000
     13 C5        -0.5213    4.2150    2.3845 C.ar      1 RES1    0.0000
     14 H4        -0.7732    4.4124    1.5113 H         1 RES1    0.0000
     15 C6         0.6076    4.8080    2.9696 C.ar      1 RES1    0.0000
     16 C7         2.2798    6.0283    3.4607 C.2       1 RES1    0.0000
     17 C8         2.7564    5.2817    5.8561 C.3       1 RES1    0.0000
     18 H5         3.6990    5.3573    5.6898 H         1 RES1    0.0000
     19 H6         2.5789    4.4597    6.3192 H         1 RES1    0.0000
     20 H7         2.4656    6.0225    6.3946 H         1 RES1    0.0000
     21 C9         3.2645    7.1132    3.4550 C.2       1 RES1    0.0000
     22 C10        4.6081    8.8158    2.5507 C.3       1 RES1    0.0000
     23 C11        4.6245    8.7884    4.1048 C.3       1 RES1    0.0000
     24 C12        5.9700    8.8206    1.8656 C.3       1 RES1    0.0000
     25 H8         6.4774    8.0596    2.1571 H         1 RES1    0.0000
     26 H9         6.4403    9.6261    2.0930 H         1 RES1    0.0000
     27 H10        5.8491    8.7777    0.9133 H         1 RES1    0.0000
     28 C13        3.7002    9.8880    1.9623 C.3       1 RES1    0.0000
     29 H11        3.6436    9.7716    1.0101 H         1 RES1    0.0000
     30 H12        4.0604   10.7562    2.1583 H         1 RES1    0.0000
     31 H13        2.8238    9.8113    2.3468 H         1 RES1    0.0000
     32 C14        4.3487   10.1411    4.7551 C.3       1 RES1    0.0000
     33 H14        3.4754   10.4482    4.5001 H         1 RES1    0.0000
     34 H15        5.0085   10.7751    4.4661 H         1 RES1    0.0000
     35 H16        4.3896   10.0513    5.7111 H         1 RES1    0.0000
     36 C15        5.8919    8.1918    4.6948 C.3       1 RES1    0.0000
     37 H17        5.7634    8.0312    5.6320 H         1 RES1    0.0000
     38 H18        6.6210    8.8041    4.5717 H         1 RES1    0.0000
     39 H19        6.0921    7.3642    4.2526 H         1 RES1    0.0000
@<TRIPOS>BOND
     1    1    4 1
     2    2    6 1
     3    3   15 1
     4    4   21 1
     5    5   21 2
     6    6    7 ar
     7    7    8 1
     8    9    7 ar
     9   10    9 1
    10   11    9 ar
    11   12   11 1
    12   13   11 ar
    13   14   13 1
    14   15    6 ar
    15   16    2 1
    16   17    2 1
    17   18   17 1
    18   19   17 1
    19   20   17 1
    20   21   16 1
    21   22    4 1
    22   23    5 1
    23   24   22 1
    24   25   24 1
    25   26   24 1
    26   27   24 1
    27   28   22 1
    28   29   28 1
    29   30   28 1
    30   31   28 1
    31   32   23 1
    32   33   32 1
    33   34   32 1
    34   35   32 1
    35   36   23 1
    36   37   36 1
    37   38   36 1
    38   39   36 1
    39    3   16 2
    40   13   15 ar
    41   22   23 1
@<TRIPOS>SUBSTRUCTURE
     1 RES1 1

@<TRIPOS>CRYSIN
   6.2961   18.8970   12.5630  90.0000  90.0000  90.0000  14 1

