# MOL2 file generated by ConQuest
# Please check atom types

@<TRIPOS>MOLECULE
XZBTZO
    18    20     1
SMALL
USER_CHARGES
****
Generated from CSD

@<TRIPOS>ATOM
      1 N1        13.9517    8.9272    2.8311 N.pl3     1 RES1    1.0000
      2 N2        14.5458    9.7992    2.0641 N.2       1 RES1    0.0000
      3 N3        14.3534    7.0979    4.3610 N.2       1 RES1    0.0000
      4 N4        13.0849    6.8839    4.4432 N.2       1 RES1    0.0000
      5 O1        15.9021    9.5278    2.2712 O.3       1 RES1    0.0000
      6 O2        17.1874    8.1473    3.5280 O.2       1 RES1   -1.0000
      7 C1        16.0945    8.4927    3.1864 C.2       1 RES1    0.0000
      8 C2        14.7681    8.0946    3.5177 C.2       1 RES1    0.0000
      9 C3        12.5692    8.7920    2.9835 C.ar      1 RES1    0.0000
     10 C4        11.6557    9.6410    2.3748 C.ar      1 RES1    0.0000
     11 C5        10.3293    9.3791    2.5623 C.ar      1 RES1    0.0000
     12 C6         9.9145    8.2979    3.3362 C.ar      1 RES1    0.0000
     13 C7        10.8169    7.4845    3.9449 C.ar      1 RES1    0.0000
     14 C8        12.1919    7.7272    3.7942 C.ar      1 RES1    0.0000
     15 H1        11.8818   10.3988    1.8406 H         1 RES1    0.0000
     16 H2         9.6960    9.9479    2.1488 H         1 RES1    0.0000
     17 H3         8.9487    8.0773    3.3902 H         1 RES1    0.0000
     18 H4        10.5740    6.7439    4.4860 H         1 RES1    0.0000
@<TRIPOS>BOND
     1    1    2 2
     2    2    5 1
     3    3    4 2
     4    4   14 1
     5    5    7 1
     6    6    7 1
     7    7    8 2
     8    8    1 1
     9    9    1 1
    10   10    9 ar
    11   11   10 ar
    12   12   11 ar
    13   13   12 ar
    14   14    9 ar
    15   15   10 1
    16   16   11 1
    17   17   12 1
    18   18   13 1
    19    3    8 1
    20   13   14 ar
@<TRIPOS>SUBSTRUCTURE
     1 RES1 1

@<TRIPOS>CRYSIN
  18.6820    9.5930    8.5610  90.0000  90.0000  90.0000  61 1

