# MOL2 file generated by ConQuest
# Please check atom types

@<TRIPOS>MOLECULE
YABCUA
    84    90     2
SMALL
NO_CHARGES
****
Generated from CSD

@<TRIPOS>ATOM
      1 O1         2.0191    5.1709   15.1930 O.3       1 RES1    0.0000
      2 O2         1.8038    7.2836   15.8448 O.3       1 RES1    0.0000
      3 O3         0.8920    7.4623   11.4996 O.3       1 RES1    0.0000
      4 O4         1.0223    5.6812   10.0436 O.3       1 RES1    0.0000
      5 N1         1.0488    7.0662   12.9088 N.3       1 RES1    0.0000
      6 C1         2.0031    5.9794   16.3594 C.3       1 RES1    0.0000
      7 C2         3.3132    5.8673   17.0944 C.3       1 RES1    0.0000
      8 C3         0.8365    5.5907   17.2114 C.3       1 RES1    0.0000
      9 C4         2.6711    5.9301   14.1908 C.3       1 RES1    0.0000
     10 C5         2.5851    7.3711   14.6598 C.3       1 RES1    0.0000
     11 C6         1.9009    5.8720   12.8818 C.3       1 RES1    0.0000
     12 C7         2.7268    6.0302   11.6178 C.3       1 RES1    0.0000
     13 C8         1.7607    6.6901   10.6932 C.3       1 RES1    0.0000
     14 C9         1.8607    8.1224   13.5511 C.3       1 RES1    0.0000
     15 C10        1.0147    9.2943   13.9592 C.3       1 RES1    0.0000
     16 C11        0.2548    6.0207    8.9514 C.ar      1 RES1    0.0000
     17 C12       -0.8552    5.2478    8.7256 C.ar      1 RES1    0.0000
     18 C13       -1.6338    5.4580    7.6221 C.ar      1 RES1    0.0000
     19 C14       -1.3096    6.4522    6.7460 C.ar      1 RES1    0.0000
     20 C15       -0.1962    7.2129    6.9432 C.ar      1 RES1    0.0000
     21 C16        0.6078    7.0060    8.0538 C.ar      1 RES1    0.0000
     22 O5         7.0284    4.1835   13.1865 O.3       2 RES2    0.0000
     23 O6         7.2672    5.0645   15.2275 O.3       2 RES2    0.0000
     24 O7         5.5679    8.4002   13.0200 O.3       2 RES2    0.0000
     25 O8         5.0433    8.5389   10.7686 O.3       2 RES2    0.0000
     26 N2         6.0028    7.1054   13.5289 N.3       2 RES2    0.0000
     27 C17        7.2095    3.8349   14.5559 C.3       2 RES2    0.0000
     28 C18        8.4798    3.0649   14.7432 C.3       2 RES2    0.0000
     29 C19        5.9864    3.0986   15.0161 C.3       2 RES2    0.0000
     30 C20        7.5864    5.4674   12.9661 C.3       2 RES2    0.0000
     31 C21        7.8806    6.0103   14.3686 C.3       2 RES2    0.0000
     32 C22        6.5504    6.3976   12.3698 C.3       2 RES2    0.0000
     33 C23        7.0533    7.4895   11.4456 C.3       2 RES2    0.0000
     34 C24        6.0966    8.6070   11.7105 C.3       2 RES2    0.0000
     35 C25        7.1693    7.3418   14.4111 C.3       2 RES2    0.0000
     36 C26        6.7445    7.8315   15.7796 C.3       2 RES2    0.0000
     37 C27        4.1865    9.6087   10.6821 C.ar      2 RES2    0.0000
     38 C28        3.9766   10.5028   11.6916 C.ar      2 RES2    0.0000
     39 C29        3.0784   11.5383   11.5100 C.ar      2 RES2    0.0000
     40 C30        2.3947   11.6561   10.3366 C.ar      2 RES2    0.0000
     41 C31        2.6084   10.7497    9.3243 C.ar      2 RES2    0.0000
     42 C32        3.5008    9.7218    9.4929 C.ar      2 RES2    0.0000
     43 H1         3.3084    6.4233   17.9257 H         1 RES1    0.0000
     44 H2         3.4782    4.9104   17.3337 H         1 RES1    0.0000
     45 H3         4.0357    6.1878   16.4826 H         1 RES1    0.0000
     46 H4         0.8181    6.1654   18.0301 H         1 RES1    0.0000
     47 H5        -0.0127    5.7150   16.6980 H         1 RES1    0.0000
     48 H6         0.9261    4.6320   17.4803 H         1 RES1    0.0000
     49 H7         3.6040    5.5933   14.0635 H         1 RES1    0.0000
     50 H8         3.4535    7.8307   14.8452 H         1 RES1    0.0000
     51 H9         1.4474    4.9835   12.8110 H         1 RES1    0.0000
     52 H10        3.0340    5.1499   11.2562 H         1 RES1    0.0000
     53 H11        3.5202    6.6115   11.7986 H         1 RES1    0.0000
     54 H12        2.2307    7.2689   10.0268 H         1 RES1    0.0000
     55 H13        2.5142    8.5680   12.9392 H         1 RES1    0.0000
     56 H14        1.5945   10.0008   14.3651 H         1 RES1    0.0000
     57 H15        0.5424    9.6687   13.1614 H         1 RES1    0.0000
     58 H16        0.3412    8.9879   14.6322 H         1 RES1    0.0000
     59 H17       -1.0514    4.4899    9.3479 H         1 RES1    0.0000
     60 H18       -2.4876    4.9572    7.4805 H         1 RES1    0.0000
     61 H19       -1.8996    6.6485    5.9627 H         1 RES1    0.0000
     62 H20        0.0620    7.8903    6.2546 H         1 RES1    0.0000
     63 H21        1.4464    7.5267    8.2142 H         1 RES1    0.0000
     64 H22        8.5783    2.8182   15.7073 H         2 RES2    0.0000
     65 H23        8.4596    2.2333   14.1870 H         2 RES2    0.0000
     66 H24        9.2522    3.6340   14.4640 H         2 RES2    0.0000
     67 H25        6.0902    2.8201   15.9707 H         2 RES2    0.0000
     68 H26        5.8480    2.2894   14.4456 H         2 RES2    0.0000
     69 H27        5.1962    3.7059   14.9299 H         2 RES2    0.0000
     70 H28        8.3843    5.4065   12.3665 H         2 RES2    0.0000
     71 H29        8.8498    6.1196   14.5897 H         2 RES2    0.0000
     72 H30        5.9387    5.8229   11.8262 H         2 RES2    0.0000
     73 H31        7.0138    7.2129   10.4852 H         2 RES2    0.0000
     74 H32        7.9924    7.7380   11.6825 H         2 RES2    0.0000
     75 H33        6.5424    9.4994   11.6480 H         2 RES2    0.0000
     76 H34        7.8043    8.0707   14.1561 H         2 RES2    0.0000
     77 H35        7.5252    8.0053   16.3801 H         2 RES2    0.0000
     78 H36        6.1618    7.1278   16.1856 H         2 RES2    0.0000
     79 H37        6.2190    8.6743   15.6637 H         2 RES2    0.0000
     80 H38        4.4762   10.4107   12.5526 H         2 RES2    0.0000
     81 H39        2.9055   12.1943   12.2450 H         2 RES2    0.0000
     82 H40        1.7303   12.3896   10.1952 H         2 RES2    0.0000
     83 H41        2.0924   10.8300    8.4715 H         2 RES2    0.0000
     84 H42        3.6512    9.0646    8.7540 H         2 RES2    0.0000
@<TRIPOS>BOND
     1    1    6 1
     2    2    6 1
     3    3    5 1
     4    4   13 1
     5    5   11 1
     6    6    7 1
     7    7   43 1
     8    8    6 1
     9    9    1 1
    10   10    2 1
    11   11    9 1
    12   12   11 1
    13   13    3 1
    14   14    5 1
    15   15   14 1
    16   16    4 1
    17   17   16 ar
    18   18   17 ar
    19   19   18 ar
    20   20   19 ar
    21   21   16 ar
    22   22   27 1
    23   23   27 1
    24   24   26 1
    25   25   34 1
    26   26   32 1
    27   27   28 1
    28   28   64 1
    29   29   27 1
    30   30   22 1
    31   31   23 1
    32   32   30 1
    33   33   32 1
    34   34   24 1
    35   35   26 1
    36   36   35 1
    37   37   25 1
    38   38   37 ar
    39   39   38 ar
    40   40   39 ar
    41   41   40 ar
    42   42   37 ar
    43   44    7 1
    44   45    7 1
    45   46    8 1
    46   47    8 1
    47   48    8 1
    48   49    9 1
    49   50   10 1
    50   51   11 1
    51   52   12 1
    52   53   12 1
    53   54   13 1
    54   55   14 1
    55   56   15 1
    56   57   15 1
    57   58   15 1
    58   59   17 1
    59   60   18 1
    60   61   19 1
    61   62   20 1
    62   63   21 1
    63   65   28 1
    64   66   28 1
    65   67   29 1
    66   68   29 1
    67   69   29 1
    68   70   30 1
    69   71   31 1
    70   72   32 1
    71   73   33 1
    72   74   33 1
    73   75   34 1
    74   76   35 1
    75   77   36 1
    76   78   36 1
    77   79   36 1
    78   80   38 1
    79   81   39 1
    80   82   40 1
    81   83   41 1
    82   84   42 1
    83    9   10 1
    84   10   14 1
    85   12   13 1
    86   20   21 ar
    87   30   31 1
    88   31   35 1
    89   33   34 1
    90   41   42 ar
@<TRIPOS>SUBSTRUCTURE
     1 RES1 1
     2 RES2 22

@<TRIPOS>CRYSIN
   9.7121    9.3443   17.5407  90.0000  98.5670  90.0000   4 1

