# MOL2 file generated by ConQuest
# Please check atom types

@<TRIPOS>MOLECULE
YABFOZ
    37    40     1
SMALL
NO_CHARGES
****
Generated from CSD

@<TRIPOS>ATOM
      1 O1         6.5797   11.5595    5.8655 O.2       1 RES1    0.0000
      2 O2         6.1771   10.2078    7.4805 O.2       1 RES1    0.0000
      3 O3         7.0174    5.6616    5.3175 O.3       1 RES1    0.0000
      4 O4         8.8433    1.1350    3.7582 O.2       1 RES1    0.0000
      5 O5         4.3502   -2.1004    1.2620 O.2       1 RES1    0.0000
      6 O6         4.0474   -2.8459    3.2788 O.2       1 RES1    0.0000
      7 N1         6.4912   10.4291    6.3249 N.pl3     1 RES1    0.0000
      8 N2         7.6011    6.0010    3.1247 N.2       1 RES1    0.0000
      9 N3         4.3855   -1.9837    2.4862 N.pl3     1 RES1    0.0000
     10 C1         6.7910    9.2879    5.4786 C.ar      1 RES1    0.0000
     11 C2         7.1318    9.5516    4.1450 C.ar      1 RES1    0.0000
     12 H1         7.1470   10.4472    3.8278 H         1 RES1    0.0000
     13 C3         7.4452    8.5181    3.2917 C.ar      1 RES1    0.0000
     14 H2         7.7053    8.6848    2.3927 H         1 RES1    0.0000
     15 C4         7.3688    7.2331    3.7850 C.ar      1 RES1    0.0000
     16 C5         7.0236    7.0209    5.0987 C.ar      1 RES1    0.0000
     17 C6         6.7322    8.0226    6.0246 C.ar      1 RES1    0.0000
     18 H3         6.5177    7.8513    6.9335 H         1 RES1    0.0000
     19 C7         7.3787    5.1691    4.0545 C.2       1 RES1    0.0000
     20 C8         7.4317    3.6961    3.9302 C.3       1 RES1    0.0000
     21 H4         7.6886    3.3506    3.0282 H         1 RES1    0.0000
     22 C9         6.4520    2.8702    4.6731 C.3       1 RES1    0.0000
     23 H5         5.8271    3.3733    5.2698 H         1 RES1    0.0000
     24 C10        7.9159    2.8899    5.0888 C.3       1 RES1    0.0000
     25 H6         8.1373    3.3930    5.9231 H         1 RES1    0.0000
     26 C11        8.7793    1.7185    4.7705 C.2       1 RES1    0.0000
     27 H7         9.3429    1.4078    5.4697 H         1 RES1    0.0000
     28 C12        5.8780    1.6276    4.0227 C.ar      1 RES1    0.0000
     29 C13        5.7997    0.5107    4.8103 C.ar      1 RES1    0.0000
     30 H8         6.0951    0.5486    5.7123 H         1 RES1    0.0000
     31 C14        5.2966   -0.6683    4.3051 C.ar      1 RES1    0.0000
     32 H9         5.2658   -1.4442    4.8511 H         1 RES1    0.0000
     33 C15        4.8455   -0.7168    3.0262 C.ar      1 RES1    0.0000
     34 C16        4.8694    0.4031    2.2068 C.ar      1 RES1    0.0000
     35 H10        4.5434    0.3637    1.3157 H         1 RES1    0.0000
     36 C17        5.3837    1.5836    2.7279 C.ar      1 RES1    0.0000
     37 H11        5.3972    2.3686    2.1918 H         1 RES1    0.0000
@<TRIPOS>BOND
     1    1    7 2
     2    2    7 2
     3    3   16 1
     4    4   26 2
     5    5    9 2
     6    6    9 2
     7    7   10 1
     8    8   15 1
     9    9   33 1
    10   10   11 ar
    11   11   12 1
    12   13   11 ar
    13   14   13 1
    14   15   13 ar
    15   16   15 ar
    16   17   10 ar
    17   18   17 1
    18   19    3 1
    19   20   19 1
    20   21   20 1
    21   22   20 1
    22   23   22 1
    23   24   20 1
    24   25   24 1
    25   26   24 1
    26   27   26 1
    27   28   22 1
    28   29   28 ar
    29   30   29 1
    30   31   29 ar
    31   32   31 1
    32   33   31 ar
    33   34   33 ar
    34   35   34 1
    35   36   28 ar
    36   37   36 1
    37    8   19 2
    38   16   17 ar
    39   22   24 1
    40   34   36 ar
@<TRIPOS>SUBSTRUCTURE
     1 RES1 1

@<TRIPOS>CRYSIN
   9.9877   15.1541   10.2131  90.0000 103.1610  90.0000  14 1

