# MOL2 file generated by ConQuest
# Please check atom types

@<TRIPOS>MOLECULE
YABFOX
    75    78     1
SMALL
NO_CHARGES
****
Generated from CSD

@<TRIPOS>ATOM
      1 C1        20.7173  -10.5741   10.9561 C.3       1 RES1    0.0000
      2 H1        21.2657   -9.7897   10.8741 H         1 RES1    0.0000
      3 H2        21.2086  -11.3407   10.6518 H         1 RES1    0.0000
      4 H3        20.4700  -10.6965   11.8752 H         1 RES1    0.0000
      5 C2        19.4950  -10.4113   10.1331 C.2       1 RES1    0.0000
      6 C3        18.2448   -8.9428    8.7628 C.3       1 RES1    0.0000
      7 H4        17.8774   -9.7587    8.3896 H         1 RES1    0.0000
      8 H5        18.4611   -8.3484    8.0282 H         1 RES1    0.0000
      9 C4        17.2227   -8.2947    9.6403 C.3       1 RES1    0.0000
     10 H6        16.3834   -8.2507    9.1567 H         1 RES1    0.0000
     11 H7        17.0820   -8.8564   10.4191 H         1 RES1    0.0000
     12 C5        17.9150  -10.3758   13.8696 C.3       1 RES1    0.0000
     13 H8        16.9849  -10.4909   13.6577 H         1 RES1    0.0000
     14 H9        18.0453  -10.4893   14.8135 H         1 RES1    0.0000
     15 H10       18.4332  -11.0299   13.3938 H         1 RES1    0.0000
     16 C6        18.3451   -9.0243   13.4731 C.2       1 RES1    0.0000
     17 C7        17.6513   -6.9733   12.5825 C.3       1 RES1    0.0000
     18 H11       18.1828   -6.5688   13.2859 H         1 RES1    0.0000
     19 H12       16.8216   -6.4752   12.5149 H         1 RES1    0.0000
     20 C8        18.3962   -6.8560   11.2798 C.3       1 RES1    0.0000
     21 H13       18.8559   -6.0021   11.2629 H         1 RES1    0.0000
     22 H14       19.0708   -7.5518   11.2460 H         1 RES1    0.0000
     23 C9        16.9571   -5.8384    9.5766 C.ar      1 RES1    0.0000
     24 C10       16.2934   -5.8724    8.3532 C.ar      1 RES1    0.0000
     25 H15       16.2872   -6.6561    7.8527 H         1 RES1    0.0000
     26 C11       15.6453   -4.7534    7.8800 C.ar      1 RES1    0.0000
     27 H16       15.2018   -4.8018    7.0635 H         1 RES1    0.0000
     28 C12       15.6317   -3.5711    8.5755 C.ar      1 RES1    0.0000
     29 C13       16.3408   -3.5085    9.7638 C.ar      1 RES1    0.0000
     30 H17       16.3819   -2.7097   10.2358 H         1 RES1    0.0000
     31 C14       16.9762   -4.6105   10.2410 C.ar      1 RES1    0.0000
     32 H18       17.4428   -4.5455   11.0432 H         1 RES1    0.0000
     33 C15       14.2085   -0.3865    8.0243 C.ar      1 RES1    0.0000
     34 C16       14.4884    0.9005    8.3935 C.ar      1 RES1    0.0000
     35 H19       15.1573    1.0659    9.0176 H         1 RES1    0.0000
     36 C17       13.7866    1.9582    7.8462 C.ar      1 RES1    0.0000
     37 H20       13.9999    2.8285    8.0958 H         1 RES1    0.0000
     38 C18       12.7653    1.7364    6.9283 C.ar      1 RES1    0.0000
     39 C19       12.4833    0.4277    6.5864 C.ar      1 RES1    0.0000
     40 H21       11.8012    0.2563    5.9779 H         1 RES1    0.0000
     41 C20       13.1799   -0.6212    7.1181 C.ar      1 RES1    0.0000
     42 H22       12.9668   -1.4924    6.8724 H         1 RES1    0.0000
     43 C21       12.0379    2.8661    6.3563 C.2       1 RES1    0.0000
     44 H23       12.1363    3.6873    6.7827 H         1 RES1    0.0000
     45 C22       11.2575    2.8407    5.2954 C.2       1 RES1    0.0000
     46 H24       11.1733    2.0411    4.8286 H         1 RES1    0.0000
     47 C23       10.5261    3.9907    4.8234 C.2       1 RES1    0.0000
     48 C24        9.6816    5.9414    4.6635 C.ar      1 RES1    0.0000
     49 C25        9.2858    7.2699    4.8572 C.ar      1 RES1    0.0000
     50 H25        9.5477    7.7501    5.6100 H         1 RES1    0.0000
     51 C26        8.5005    7.8262    3.8964 C.ar      1 RES1    0.0000
     52 H26        8.2213    8.7078    3.9887 H         1 RES1    0.0000
     53 C27        8.1113    7.1018    2.7822 C.ar      1 RES1    0.0000
     54 C28        8.4638    5.8058    2.5547 C.ar      1 RES1    0.0000
     55 H27        8.1867    5.3371    1.8007 H         1 RES1    0.0000
     56 C29        9.2688    5.2349    3.5363 C.ar      1 RES1    0.0000
     57 C30        9.6319    2.8803    2.7172 C.3       1 RES1    0.0000
     58 H28        8.7312    2.9212    2.3571 H         1 RES1    0.0000
     59 H29        9.7223    2.0401    3.1918 H         1 RES1    0.0000
     60 C31       10.5918    2.9032    1.6004 C.3       1 RES1    0.0000
     61 H30       10.4245    2.1565    1.0206 H         1 RES1    0.0000
     62 H31       11.4853    2.8465    1.9450 H         1 RES1    0.0000
     63 H32       10.4895    3.7195    1.1064 H         1 RES1    0.0000
     64 N1        17.5688   -6.9571   10.0915 N.pl3     1 RES1    0.0000
     65 N2        14.9030   -2.5066    7.9944 N.2       1 RES1    0.0000
     66 N3        14.9789   -1.4198    8.6223 N.2       1 RES1    0.0000
     67 N4        10.4638    5.1437    5.4709 N.2       1 RES1    0.0000
     68 N5         9.8113    3.9755    3.6598 N.3       1 RES1    0.0000
     69 N6         7.2792    7.7685    1.7825 N.pl3     1 RES1    0.0000
     70 O1        18.6492  -11.2400   10.0291 O.2       1 RES1    0.0000
     71 O2        19.4504   -9.2515    9.5025 O.3       1 RES1    0.0000
     72 O3        19.4426   -8.5803   13.6096 O.2       1 RES1    0.0000
     73 O4        17.3523   -8.3216   12.9478 O.3       1 RES1    0.0000
     74 O5         6.9007    8.9092    1.9996 O.2       1 RES1    0.0000
     75 O6         6.9954    7.1567    0.7541 O.2       1 RES1    0.0000
@<TRIPOS>BOND
     1    1    2 1
     2    3    1 1
     3    4    1 1
     4    5    1 1
     5    6    7 1
     6    8    6 1
     7    9    6 1
     8   10    9 1
     9   11    9 1
    10   12   13 1
    11   14   12 1
    12   15   12 1
    13   16   12 1
    14   17   18 1
    15   19   17 1
    16   20   17 1
    17   21   20 1
    18   22   20 1
    19   23   24 ar
    20   24   25 1
    21   26   24 ar
    22   27   26 1
    23   28   26 ar
    24   29   28 ar
    25   30   29 1
    26   31   23 ar
    27   32   31 1
    28   33   34 ar
    29   34   35 1
    30   36   34 ar
    31   37   36 1
    32   38   36 ar
    33   39   38 ar
    34   40   39 1
    35   41   33 ar
    36   42   41 1
    37   43   38 1
    38   44   43 1
    39   45   43 2
    40   46   45 1
    41   47   45 1
    42   48   49 ar
    43   49   50 1
    44   51   49 ar
    45   52   51 1
    46   53   51 ar
    47   54   53 ar
    48   55   54 1
    49   56   48 ar
    50   57   58 1
    51   59   57 1
    52   60   57 1
    53   61   60 1
    54   62   60 1
    55   63   60 1
    56   64    9 1
    57   65   28 1
    58   66   33 1
    59   67   47 2
    60   68   47 1
    61   69   53 1
    62   70    5 2
    63   71    5 1
    64   72   16 2
    65   73   16 1
    66   74   69 2
    67   75   69 2
    68    6   71 1
    69   17   73 1
    70   20   64 1
    71   23   64 1
    72   29   31 ar
    73   39   41 ar
    74   48   67 1
    75   54   56 ar
    76   56   68 1
    77   57   68 1
    78   65   66 2
@<TRIPOS>SUBSTRUCTURE
     1 RES1 1

@<TRIPOS>CRYSIN
   8.7390   12.8470   13.5720  84.3700  74.3100  89.5600   2 1

