# MOL2 file generated by ConQuest
# Please check atom types

@<TRIPOS>MOLECULE
YABMOE
    43    46     1
SMALL
NO_CHARGES
****
Generated from CSD

@<TRIPOS>ATOM
      1 C1        -1.9353    3.4580    8.3315 C.3       1 RES1    0.0000
      2 C2        -1.8954    4.1971    9.7008 C.3       1 RES1    0.0000
      3 C3        -0.4080    4.2616   10.0892 C.3       1 RES1    0.0000
      4 C4         0.1042    2.9271    9.6054 C.3       1 RES1    0.0000
      5 C5        -0.5636    2.7560    8.2560 C.3       1 RES1    0.0000
      6 C6        -2.0027    4.2902    7.0509 C.3       1 RES1    0.0000
      7 C7        -0.6971    4.1021    6.3407 C.2       1 RES1    0.0000
      8 O1        -0.4080    4.4881    5.2325 O.2       1 RES1    0.0000
      9 N1         0.1488    3.4062    7.1804 N.am      1 RES1    0.0000
     10 O2        -0.6107    1.3911    7.8177 O.3       1 RES1    0.0000
     11 C8        -2.5296    5.5480    9.7785 C.3       1 RES1    0.0000
     12 N2        -4.0172    5.5115    9.6221 N.pl3     1 RES1    0.0000
     13 O3        -4.6427    4.6951   10.2191 O.2       1 RES1    0.0000
     14 O4        -4.5275    6.3528    8.9684 O.2       1 RES1    0.0000
     15 C9        -0.1613    4.4990   11.5729 C.3       1 RES1    0.0000
     16 C10        1.1553    2.4973    6.6437 C.3       1 RES1    0.0000
     17 C11        0.6660    1.1421    7.2285 C.3       1 RES1    0.0000
     18 C12        2.5808    2.8096    7.0165 C.ar      1 RES1    0.0000
     19 C13        2.9637    3.9986    7.6035 C.ar      1 RES1    0.0000
     20 C14        4.2883    4.2415    7.9009 C.ar      1 RES1    0.0000
     21 C15        5.2413    3.2948    7.6124 C.ar      1 RES1    0.0000
     22 C16        4.8852    2.1247    7.0321 C.ar      1 RES1    0.0000
     23 C17        3.5619    1.8678    6.7213 C.ar      1 RES1    0.0000
     24 H1        -2.6507    2.7579    8.3115 H         1 RES1    0.0000
     25 H2        -2.3489    3.6345   10.3089 H         1 RES1    0.0000
     26 H3        -0.0013    5.0104    9.5877 H         1 RES1    0.0000
     27 H4         1.0187    2.9162    9.5388 H         1 RES1    0.0000
     28 H5        -0.2426    2.1917   10.2535 H         1 RES1    0.0000
     29 H6        -2.0316    5.2600    7.2462 H         1 RES1    0.0000
     30 H7        -2.7255    3.9450    6.4916 H         1 RES1    0.0000
     31 H8        -2.3932    5.9723   10.7528 H         1 RES1    0.0000
     32 H9        -2.1401    6.1611    9.1216 H         1 RES1    0.0000
     33 H10       -0.3807    5.4975   11.6960 H         1 RES1    0.0000
     34 H11        0.8692    4.3407   11.7848 H         1 RES1    0.0000
     35 H12       -0.7152    3.9207   12.0400 H         1 RES1    0.0000
     36 H13        1.0196    2.4413    5.6483 H         1 RES1    0.0000
     37 H14        0.5677    0.3896    6.6026 H         1 RES1    0.0000
     38 H15        1.3048    0.8523    7.9453 H         1 RES1    0.0000
     39 H16        2.3128    4.6451    7.8011 H         1 RES1    0.0000
     40 H17        4.5087    5.1383    8.3670 H         1 RES1    0.0000
     41 H18        6.1702    3.4275    7.8344 H         1 RES1    0.0000
     42 H19        5.5961    1.4489    6.8134 H         1 RES1    0.0000
     43 H20        3.2942    0.9984    6.3474 H         1 RES1    0.0000
@<TRIPOS>BOND
     1    1    2 1
     2    2    3 1
     3    3    4 1
     4    4    5 1
     5    5    1 1
     6    6    1 1
     7    7    6 1
     8    8    7 2
     9    9    5 1
    10   10    5 1
    11   11    2 1
    12   12   11 1
    13   13   12 2
    14   14   12 2
    15   15    3 1
    16   16    9 1
    17   17   10 1
    18   18   16 1
    19   19   18 ar
    20   20   19 ar
    21   21   20 ar
    22   22   21 ar
    23   23   18 ar
    24   24    1 1
    25   25    2 1
    26   26    3 1
    27   27    4 1
    28   28    4 1
    29   29    6 1
    30   30    6 1
    31   31   11 1
    32   32   11 1
    33   33   15 1
    34   34   15 1
    35   35   15 1
    36   36   16 1
    37   37   17 1
    38   38   17 1
    39   39   19 1
    40   40   20 1
    41   41   21 1
    42   42   22 1
    43   43   23 1
    44    7    9 1
    45   16   17 1
    46   22   23 ar
@<TRIPOS>SUBSTRUCTURE
     1 RES1 1

@<TRIPOS>CRYSIN
  11.6550    6.0880   11.8030  90.0000 109.9200  90.0000   4 1

