# MOL2 file generated by ConQuest
# Please check atom types

@<TRIPOS>MOLECULE
YABMIY
    43    46     1
SMALL
NO_CHARGES
****
Generated from CSD

@<TRIPOS>ATOM
      1 C1         3.7584    0.5937    9.8371 C.3       1 RES1    0.0000
      2 C2         3.3242   -0.1743   11.0746 C.3       1 RES1    0.0000
      3 C3         1.9773   -0.7909   10.6750 C.3       1 RES1    0.0000
      4 C4         1.3215    0.3851    9.9552 C.3       1 RES1    0.0000
      5 C5         2.4499    0.9824    9.1187 C.3       1 RES1    0.0000
      6 C6         4.5009    1.9048   10.0373 C.3       1 RES1    0.0000
      7 C7         3.7030    2.9573    9.3074 C.2       1 RES1    0.0000
      8 O1         4.0755    4.0733    9.0224 O.2       1 RES1    0.0000
      9 N1         2.4836    2.4378    8.9929 N.am      1 RES1    0.0000
     10 O2         2.4012    0.5366    7.7719 O.3       1 RES1    0.0000
     11 C8         4.3304   -1.1796   11.5931 C.3       1 RES1    0.0000
     12 N2         5.4915   -0.4658   12.1984 N.pl3     1 RES1    0.0000
     13 O3         5.3615   -0.0257   13.3040 O.2       1 RES1    0.0000
     14 O4         6.4674   -0.3115   11.5251 O.2       1 RES1    0.0000
     15 C9         1.1527   -1.3654   11.7957 C.3       1 RES1    0.0000
     16 C10        1.8404    2.8365    7.7247 C.3       1 RES1    0.0000
     17 C11        1.4964    1.4590    7.1349 C.3       1 RES1    0.0000
     18 C12        0.6668    3.7554    7.8590 C.ar      1 RES1    0.0000
     19 C13       -0.2376    3.6610    8.8997 C.ar      1 RES1    0.0000
     20 C14       -1.3289    4.4949    8.9728 C.ar      1 RES1    0.0000
     21 C15       -1.5391    5.4330    7.9955 C.ar      1 RES1    0.0000
     22 C16       -0.6673    5.5580    6.9592 C.ar      1 RES1    0.0000
     23 C17        0.4384    4.7149    6.8886 C.ar      1 RES1    0.0000
     24 H1         4.2929   -0.0214    9.2639 H         1 RES1    0.0000
     25 H2         3.1498    0.4501   11.7470 H         1 RES1    0.0000
     26 H3         2.1372   -1.4576    9.9693 H         1 RES1    0.0000
     27 H4         1.0818    1.0717   10.5965 H         1 RES1    0.0000
     28 H5         0.5190    0.1215    9.4871 H         1 RES1    0.0000
     29 H6         4.6266    2.1220   10.9274 H         1 RES1    0.0000
     30 H7         5.3525    1.9506    9.6448 H         1 RES1    0.0000
     31 H8         4.7496   -1.7219   10.8889 H         1 RES1    0.0000
     32 H9         3.9480   -1.6862   12.2741 H         1 RES1    0.0000
     33 H10        0.2716   -1.6147   11.4276 H         1 RES1    0.0000
     34 H11        1.5911   -2.1578   12.2228 H         1 RES1    0.0000
     35 H12        1.0319   -0.8145   12.4408 H         1 RES1    0.0000
     36 H13        2.5221    3.3295    7.1349 H         1 RES1    0.0000
     37 H14        0.5619    1.2504    7.3183 H         1 RES1    0.0000
     38 H15        1.6248    1.4004    6.1435 H         1 RES1    0.0000
     39 H16       -0.0773    3.0366    9.5551 H         1 RES1    0.0000
     40 H17       -1.8990    4.3227    9.6705 H         1 RES1    0.0000
     41 H18       -2.2962    5.9731    8.0545 H         1 RES1    0.0000
     42 H19       -0.6926    6.2804    6.3102 H         1 RES1    0.0000
     43 H20        1.0971    4.7728    6.1807 H         1 RES1    0.0000
@<TRIPOS>BOND
     1    1    2 1
     2    2    3 1
     3    3    4 1
     4    4    5 1
     5    5    1 1
     6    6    1 1
     7    7    6 1
     8    8    7 2
     9    9    5 1
    10   10    5 1
    11   11    2 1
    12   12   11 1
    13   13   12 2
    14   14   12 2
    15   15    3 1
    16   16    9 1
    17   17   10 1
    18   18   16 1
    19   19   18 ar
    20   20   19 ar
    21   21   20 ar
    22   22   21 ar
    23   23   18 ar
    24   24    1 1
    25   25    2 1
    26   26    3 1
    27   27    4 1
    28   28    4 1
    29   29    6 1
    30   30    6 1
    31   31   11 1
    32   32   11 1
    33   33   15 1
    34   34   15 1
    35   35   15 1
    36   36   16 1
    37   37   17 1
    38   38   17 1
    39   39   19 1
    40   40   20 1
    41   41   21 1
    42   42   22 1
    43   43   23 1
    44    7    9 1
    45   16   17 1
    46   22   23 ar
@<TRIPOS>SUBSTRUCTURE
     1 RES1 1

@<TRIPOS>CRYSIN
   8.8042    7.1449   13.1400  90.0000 102.5590  90.0000   4 1

