# MOL2 file generated by ConQuest
# Please check atom types

@<TRIPOS>MOLECULE
YABRAU
    29    31     1
SMALL
NO_CHARGES
****
Generated from CSD

@<TRIPOS>ATOM
      1 C1         7.2999    2.7085    8.6149 C.3       1 RES1    0.0000
      2 C2         6.0021    3.2232    8.0554 C.2       1 RES1    0.0000
      3 N1         5.4392    2.7487    7.0230 N.2       1 RES1    0.0000
      4 O1         4.2395    3.4421    6.7254 O.3       1 RES1    0.0000
      5 C3         5.5785    4.3813    8.9206 C.3       1 RES1    0.0000
      6 C4         6.6860    4.3920    9.9773 C.3       1 RES1    0.0000
      7 C5         6.5192    3.1607   10.8459 C.3       1 RES1    0.0000
      8 O2         7.4907    3.1446   11.8946 O.3       1 RES1    0.0000
      9 C6         6.9409    1.9963    9.9196 C.3       1 RES1    0.0000
     10 O3         8.1085    1.4557   10.5322 O.3       1 RES1    0.0000
     11 C7         7.9032    4.0149    9.1410 C.3       1 RES1    0.0000
     12 C8         8.1210    1.8721   11.8980 C.3       1 RES1    0.0000
     13 C9         7.3476    0.9043   12.7597 C.3       1 RES1    0.0000
     14 C10        9.5456    2.0374   12.3248 C.3       1 RES1    0.0000
     15 H1         7.8281    2.2045    7.9955 H         1 RES1    0.0000
     16 H2         3.9742    2.9918    5.8994 H         1 RES1    0.0000
     17 H3         5.5594    5.1990    8.4188 H         1 RES1    0.0000
     18 H4         4.7158    4.2267    9.3128 H         1 RES1    0.0000
     19 H5         6.7720    5.1990   10.4883 H         1 RES1    0.0000
     20 H6         5.6281    3.1285   11.2012 H         1 RES1    0.0000
     21 H7         6.2893    1.3038    9.7835 H         1 RES1    0.0000
     22 H8         8.6920    3.8746    9.6716 H         1 RES1    0.0000
     23 H9         8.0959    4.6485    8.4453 H         1 RES1    0.0000
     24 H10        7.8473    0.0849   12.7090 H         1 RES1    0.0000
     25 H11        6.4660    0.7640   12.4056 H         1 RES1    0.0000
     26 H12        7.2840    1.1840   13.6757 H         1 RES1    0.0000
     27 H13        9.5797    2.4002   13.2131 H         1 RES1    0.0000
     28 H14        9.9590    2.6504   11.7123 H         1 RES1    0.0000
     29 H15       10.0147    1.1992   12.3041 H         1 RES1    0.0000
@<TRIPOS>BOND
     1    1    2 1
     2    2    3 2
     3    3    4 1
     4    4   16 1
     5    5    2 1
     6    6    5 1
     7    7    6 1
     8    8    7 1
     9    9    1 1
    10   10    9 1
    11   11    1 1
    12   12    8 1
    13   13   12 1
    14   14   12 1
    15   15    1 1
    16   17    5 1
    17   18    5 1
    18   19    6 1
    19   20    7 1
    20   21    9 1
    21   22   11 1
    22   23   11 1
    23   24   13 1
    24   25   13 1
    25   26   13 1
    26   27   14 1
    27   28   14 1
    28   29   14 1
    29    6   11 1
    30    7    9 1
    31   10   12 1
@<TRIPOS>SUBSTRUCTURE
     1 RES1 1

@<TRIPOS>CRYSIN
  19.7620    8.9360   11.5420  90.0000  91.8800  90.0000  15 1

