# MOL2 file generated by ConQuest
# Please check atom types

@<TRIPOS>MOLECULE
YABTEA
    27    29     1
SMALL
NO_CHARGES
****
Generated from CSD

@<TRIPOS>ATOM
      1 C1        -4.6695    1.8638    7.6997 C.ar      1 RES1    0.0000
      2 C2        -5.4220    1.6569    6.5434 C.ar      1 RES1    0.0000
      3 C3        -4.8585    1.9276    5.3059 C.ar      1 RES1    0.0000
      4 C4        -3.5147    1.6846    5.1663 C.ar      1 RES1    0.0000
      5 C5        -2.7478    1.6137    6.3056 C.ar      1 RES1    0.0000
      6 C6        -3.3068    1.6251    7.5687 C.ar      1 RES1    0.0000
      7 C7        -1.3070    0.8543    8.4644 C.ar      1 RES1    0.0000
      8 C8        -0.7386    0.7998    7.2112 C.ar      1 RES1    0.0000
      9 C9         0.5221    0.2472    7.0874 C.ar      1 RES1    0.0000
     10 C10        1.1828   -0.2671    8.2038 C.ar      1 RES1    0.0000
     11 C11        0.5698   -0.2465    9.4071 C.ar      1 RES1    0.0000
     12 C12       -0.6822    0.3110    9.5680 C.ar      1 RES1    0.0000
     13 C13       -5.3390    1.9254    8.9884 C.2       1 RES1    0.0000
     14 O1        -2.6043    1.4650    8.8190 O.3       1 RES1    0.0000
     15 O2        -1.4134    1.3538    6.1760 O.3       1 RES1    0.0000
     16 O3        -5.1342    1.9722   10.0621 O.3       1 RES1    0.0000
     17 O4        -6.6071    1.9368    8.9998 O.2       1 RES1    0.0000
     18 O5         2.3916   -0.0751    5.8000 O.2       1 RES1    0.0000
     19 O6         0.5984    0.3563    4.7933 O.2       1 RES1    0.0000
     20 N1         1.2110    0.1714    5.8100 N.pl3     1 RES1    0.0000
     21 H1        -6.3284    2.4015    6.6929 H         1 RES1    0.0000
     22 H2        -5.3556    2.1677    4.5853 H         1 RES1    0.0000
     23 H3        -3.0851    1.6647    4.3433 H         1 RES1    0.0000
     24 H4         1.9545   -0.6801    8.0172 H         1 RES1    0.0000
     25 H5         0.9450   -0.6446   10.2245 H         1 RES1    0.0000
     26 H6        -1.1632    0.3755   10.5235 H         1 RES1    0.0000
     27 H7        -5.3715    1.9694   11.1074 H         1 RES1    0.0000
@<TRIPOS>BOND
     1    1    2 ar
     2    2    3 ar
     3    3    4 ar
     4    4    5 ar
     5    5    6 ar
     6    6    1 ar
     7    7    8 ar
     8    8    9 ar
     9    9   10 ar
    10   10   11 ar
    11   11   12 ar
    12   12    7 ar
    13   13    1 1
    14   14    6 1
    15   15    5 1
    16   16   13 1
    17   17   13 2
    18   18   20 2
    19   19   20 2
    20   20    9 1
    21   21    2 1
    22   22    3 1
    23   23    4 1
    24   24   10 1
    25   25   11 1
    26   26   12 1
    27   27   16 1
    28    7   14 1
    29    8   15 1
@<TRIPOS>SUBSTRUCTURE
     1 RES1 1

@<TRIPOS>CRYSIN
  21.7220    7.0840   16.5000  90.0000 120.3400  90.0000  15 1

