# MOL2 file generated by ConQuest
# Please check atom types

@<TRIPOS>MOLECULE
YACBUZ
    57    58     1
SMALL
NO_CHARGES
****
Generated from CSD

@<TRIPOS>ATOM
      1 O1        -2.4197    1.9265   13.1638 O.3       1 RES1    0.0000
      2 O2        -4.2451    2.0771   11.8542 O.2       1 RES1    0.0000
      3 O3         0.9652   -1.5152    8.3059 O.2       1 RES1    0.0000
      4 O4        -0.7101   -1.2957    6.9615 O.2       1 RES1    0.0000
      5 O5        -4.2019   -2.0811   18.9405 O.2       1 RES1    0.0000
      6 O6        -5.0867   -4.0783   18.6806 O.3       1 RES1    0.0000
      7 O7        -4.3458    1.0712   18.4760 O.2       1 RES1    0.0000
      8 O8        -2.2726    0.3234   18.0708 O.3       1 RES1    0.0000
      9 N1        -0.1602   -1.1260    8.0460 N.pl3     1 RES1    0.0000
     10 C1        -3.9572   -0.3900   16.5852 C.3       1 RES1    0.0000
     11 C2        -3.9801    0.5859   15.3615 C.3       1 RES1    0.0000
     12 C3        -5.4719    0.8503   15.1589 C.3       1 RES1    0.0000
     13 C4        -6.0952   -0.5134   15.4024 C.3       1 RES1    0.0000
     14 C5        -5.3841   -1.0052   16.6650 C.3       1 RES1    0.0000
     15 C6        -3.0968    1.8351   15.4802 C.3       1 RES1    0.0000
     16 C7        -3.0741    2.6733   14.2422 C.3       1 RES1    0.0000
     17 C8        -3.1260    1.7060   12.0404 C.2       1 RES1    0.0000
     18 C9        -2.8864    0.7531    9.7629 C.ar      1 RES1    0.0000
     19 C10       -2.1815    0.0642    8.7888 C.ar      1 RES1    0.0000
     20 C11       -0.9294   -0.4080    9.0937 C.ar      1 RES1    0.0000
     21 C12       -0.3328   -0.2290   10.3358 C.ar      1 RES1    0.0000
     22 C13       -1.0521    0.4453   11.3078 C.ar      1 RES1    0.0000
     23 C14       -2.3189    0.9396   11.0295 C.ar      1 RES1    0.0000
     24 C15       -5.4754   -2.5263   16.9228 C.3       1 RES1    0.0000
     25 C16       -4.8463   -2.8494   18.2775 C.2       1 RES1    0.0000
     26 C17       -4.5276   -4.4919   19.9472 C.3       1 RES1    0.0000
     27 C18       -4.7450   -3.3567   15.8485 C.3       1 RES1    0.0000
     28 C19       -6.9548   -2.9532   16.9576 C.3       1 RES1    0.0000
     29 C20       -3.5836    0.3912   17.8293 C.2       1 RES1    0.0000
     30 C21       -1.7688    1.1937   19.1349 C.3       1 RES1    0.0000
     31 H1        -3.3155   -1.0896   16.4419 H         1 RES1    0.0000
     32 H2        -3.6726    0.0970   14.5941 H         1 RES1    0.0000
     33 H3        -5.6616    1.1645   14.2729 H         1 RES1    0.0000
     34 H4        -5.7915    1.4938   15.7953 H         1 RES1    0.0000
     35 H5        -5.9265   -1.1074   14.6678 H         1 RES1    0.0000
     36 H6        -7.0428   -0.4468   15.5436 H         1 RES1    0.0000
     37 H7        -5.8183   -0.5781   17.4057 H         1 RES1    0.0000
     38 H8        -2.2002    1.5614   15.6889 H         1 RES1    0.0000
     39 H9        -3.4200    2.3635   16.2148 H         1 RES1    0.0000
     40 H10       -3.9699    2.9035   13.9864 H         1 RES1    0.0000
     41 H11       -2.5901    3.4854   14.4120 H         1 RES1    0.0000
     42 H12       -3.7625    1.0989    9.5787 H         1 RES1    0.0000
     43 H13       -2.5567   -0.0824    7.9171 H         1 RES1    0.0000
     44 H14        0.5541   -0.5572   10.5036 H         1 RES1    0.0000
     45 H15       -0.6797    0.5560   12.1857 H         1 RES1    0.0000
     46 H16       -4.7877   -5.4003   20.1150 H         1 RES1    0.0000
     47 H17       -3.5700   -4.4333   19.9186 H         1 RES1    0.0000
     48 H18       -4.8616   -3.9293   20.6512 H         1 RES1    0.0000
     49 H19       -4.8303   -4.2914   16.0491 H         1 RES1    0.0000
     50 H20       -5.1301   -3.1784   14.9870 H         1 RES1    0.0000
     51 H21       -3.8158   -3.1150   15.8403 H         1 RES1    0.0000
     52 H22       -7.0169   -3.8992   17.1070 H         1 RES1    0.0000
     53 H23       -7.4009   -2.4862   17.6677 H         1 RES1    0.0000
     54 H24       -7.3707   -2.7347   16.1186 H         1 RES1    0.0000
     55 H25       -0.8237    1.0630   19.2372 H         1 RES1    0.0000
     56 H26       -1.9416    2.1103   18.9036 H         1 RES1    0.0000
     57 H27       -2.2129    0.9821   19.9575 H         1 RES1    0.0000
@<TRIPOS>BOND
     1    1   16 1
     2    2   17 2
     3    3    9 2
     4    4    9 2
     5    5   25 2
     6    6   25 1
     7    7   29 2
     8    8   29 1
     9    9   20 1
    10   10   11 1
    11   11   12 1
    12   12   13 1
    13   13   14 1
    14   14   10 1
    15   15   11 1
    16   16   15 1
    17   17    1 1
    18   18   19 ar
    19   19   20 ar
    20   20   21 ar
    21   21   22 ar
    22   22   23 ar
    23   23   17 1
    24   24   14 1
    25   25   24 1
    26   26    6 1
    27   27   24 1
    28   28   24 1
    29   29   10 1
    30   30    8 1
    31   31   10 1
    32   32   11 1
    33   33   12 1
    34   34   12 1
    35   35   13 1
    36   36   13 1
    37   37   14 1
    38   38   15 1
    39   39   15 1
    40   40   16 1
    41   41   16 1
    42   42   18 1
    43   43   19 1
    44   44   21 1
    45   45   22 1
    46   46   26 1
    47   47   26 1
    48   48   26 1
    49   49   27 1
    50   50   27 1
    51   51   27 1
    52   52   28 1
    53   53   28 1
    54   54   28 1
    55   55   30 1
    56   56   30 1
    57   57   30 1
    58   18   23 ar
@<TRIPOS>SUBSTRUCTURE
     1 RES1 1

@<TRIPOS>CRYSIN
   6.1090    8.3180   20.9630  98.6900  98.2100  94.7800   2 1

