# MOL2 file generated by ConQuest
# Please check atom types

@<TRIPOS>MOLECULE
YACVUW
    40    44     1
SMALL
USER_CHARGES
****
Generated from CSD

@<TRIPOS>ATOM
      1 O1         6.6736    5.6340    4.2518 O.2       1 RES1   -1.0000
      2 N1         5.4332    5.2395    4.1638 N.pl3     1 RES1    1.0000
      3 C1         4.8983    4.3933    5.0969 C.ar      1 RES1    0.0000
      4 H1         5.4438    4.0763    5.8081 H         1 RES1    0.0000
      5 C2         3.5859    3.9961    5.0237 C.ar      1 RES1    0.0000
      6 H2         3.2353    3.3949    5.6706 H         1 RES1    0.0000
      7 C3         2.7663    4.4705    4.0024 C.ar      1 RES1    0.0000
      8 H3         1.8475    4.2312    3.9658 H         1 RES1    0.0000
      9 C4         3.3206    5.2986    3.0415 C.ar      1 RES1    0.0000
     10 C5         4.6569    5.6487    3.1058 C.ar      1 RES1    0.0000
     11 C6         5.2824    6.4742    2.0087 C.3       1 RES1    0.0000
     12 H4         6.2670    6.3002    2.0100 H         1 RES1    0.0000
     13 C7         4.7250    6.0092    0.6885 C.ar      1 RES1    0.0000
     14 C8         5.5313    5.9068   -0.4388 C.ar      1 RES1    0.0000
     15 H5         6.4595    6.1000   -0.3808 H         1 RES1    0.0000
     16 C9         4.9745    5.5209   -1.6506 C.ar      1 RES1    0.0000
     17 H6         5.5264    5.4558   -2.4211 H         1 RES1    0.0000
     18 C10        3.6299    5.2319   -1.7502 C.ar      1 RES1    0.0000
     19 H7         3.2605    4.9634   -2.5825 H         1 RES1    0.0000
     20 C11        2.8159    5.3341   -0.6254 C.ar      1 RES1    0.0000
     21 H8         1.8868    5.1496   -0.6948 H         1 RES1    0.0000
     22 C12        3.3603    5.7072    0.6065 C.ar      1 RES1    0.0000
     23 C13        2.5363    5.8454    1.8587 C.3       1 RES1    0.0000
     24 H9         1.7086    5.2952    1.7502 H         1 RES1    0.0000
     25 C14        2.1089    7.3373    2.0869 C.3       1 RES1    0.0000
     26 H10        2.3159    7.8417    1.2610 H         1 RES1    0.0000
     27 H11        1.1256    7.3567    2.2017 H         1 RES1    0.0000
     28 C15        2.7280    8.0786    3.2508 C.ar      1 RES1    0.0000
     29 C16        1.8944    8.5092    4.2911 C.ar      1 RES1    0.0000
     30 H12        0.9861    8.2338    4.3050 H         1 RES1    0.0000
     31 C17        2.3709    9.3318    5.3024 C.ar      1 RES1    0.0000
     32 H13        1.7876    9.6310    5.9897 H         1 RES1    0.0000
     33 C18        3.6896    9.7104    5.3049 C.ar      1 RES1    0.0000
     34 H14        4.0181   10.2879    5.9834 H         1 RES1    0.0000
     35 C19        4.5443    9.2483    4.3126 C.ar      1 RES1    0.0000
     36 H15        5.4620    9.4918    4.3416 H         1 RES1    0.0000
     37 C20        4.0901    8.4395    3.2823 C.ar      1 RES1    0.0000
     38 C21        5.0561    8.0168    2.1941 C.3       1 RES1    0.0000
     39 H16        5.9334    8.4351    2.3833 H         1 RES1    0.0000
     40 H17        4.7327    8.3862    1.3341 H         1 RES1    0.0000
@<TRIPOS>BOND
     1    1    2 1
     2    2    3 ar
     3    3    4 1
     4    5    3 ar
     5    6    5 1
     6    7    5 ar
     7    8    7 1
     8    9    7 ar
     9   10    2 ar
    10   11   10 1
    11   12   11 1
    12   13   11 1
    13   14   13 ar
    14   15   14 1
    15   16   14 ar
    16   17   16 1
    17   18   16 ar
    18   19   18 1
    19   20   18 ar
    20   21   20 1
    21   22   13 ar
    22   23    9 1
    23   24   23 1
    24   25   23 1
    25   26   25 1
    26   27   25 1
    27   28   25 1
    28   29   28 ar
    29   30   29 1
    30   31   29 ar
    31   32   31 1
    32   33   31 ar
    33   34   33 1
    34   35   33 ar
    35   36   35 1
    36   37   28 ar
    37   38   11 1
    38   39   38 1
    39   40   38 1
    40    9   10 ar
    41   20   22 ar
    42   22   23 1
    43   35   37 ar
    44   37   38 1
@<TRIPOS>SUBSTRUCTURE
     1 RES1 1

@<TRIPOS>CRYSIN
   7.0883    8.6929   12.9545  80.9586  77.7960  69.4027   2 1

