# MOL2 file generated by ConQuest
# Please check atom types

@<TRIPOS>MOLECULE
YADHIX
    64    67     1
SMALL
NO_CHARGES
****
Generated from CSD

@<TRIPOS>ATOM
      1 C1        -8.6577   13.9480    4.9776 C.2       1 RES1    0.0000
      2 H1        -7.9822   14.5787    5.0913 H         1 RES1    0.0000
      3 C2        -9.8299   14.1908    4.3907 C.2       1 RES1    0.0000
      4 C3       -10.6640   12.9176    4.3485 C.3       1 RES1    0.0000
      5 H2       -10.7233   12.5826    3.4301 H         1 RES1    0.0000
      6 C4        -9.4662   10.6972    4.5574 C.3       1 RES1    0.0000
      7 H3        -9.3117   10.8375    3.5997 H         1 RES1    0.0000
      8 C5        -8.1277   10.4088    5.2543 C.3       1 RES1    0.0000
      9 H4        -8.2651    9.9999    6.1221 H         1 RES1    0.0000
     10 H5        -7.5697    9.8285    4.7139 H         1 RES1    0.0000
     11 C6        -7.5217   11.7718    5.3889 C.2       1 RES1    0.0000
     12 C7       -10.4951    9.6075    4.7466 C.ar      1 RES1    0.0000
     13 C8       -11.2463    9.4933    5.9055 C.ar      1 RES1    0.0000
     14 H6       -11.1693   10.1351    6.5733 H         1 RES1    0.0000
     15 C9       -12.1113    8.4262    6.0709 C.ar      1 RES1    0.0000
     16 H7       -12.6185    8.3586    6.8471 H         1 RES1    0.0000
     17 C10      -12.2232    7.4585    5.0859 C.ar      1 RES1    0.0000
     18 H8       -12.7927    6.7342    5.2097 H         1 RES1    0.0000
     19 C11      -11.4990    7.5669    3.9336 C.ar      1 RES1    0.0000
     20 H9       -11.5831    6.9225    3.2676 H         1 RES1    0.0000
     21 C12      -10.6281    8.6519    3.7574 C.ar      1 RES1    0.0000
     22 H10      -10.1366    8.7279    2.9712 H         1 RES1    0.0000
     23 C13      -12.0530   13.1213    4.9246 C.ar      1 RES1    0.0000
     24 C14      -13.1574   12.8222    4.1574 C.ar      1 RES1    0.0000
     25 H11      -13.0436   12.4595    3.3081 H         1 RES1    0.0000
     26 C15      -14.4416   13.0552    4.6365 C.ar      1 RES1    0.0000
     27 H12      -15.1869   12.8408    4.1235 H         1 RES1    0.0000
     28 C16      -14.5816   13.6038    5.8769 C.ar      1 RES1    0.0000
     29 C17      -13.4955   13.9272    6.6679 C.ar      1 RES1    0.0000
     30 H13      -13.6121   14.3084    7.5077 H         1 RES1    0.0000
     31 C18      -12.2341   13.6670    6.1751 C.ar      1 RES1    0.0000
     32 H14      -11.4912   13.8642    6.6983 H         1 RES1    0.0000
     33 C19      -10.2778   15.4097    3.7354 C.2       1 RES1    0.0000
     34 C20       -9.6375   16.7264    4.1449 C.3       1 RES1    0.0000
     35 H15       -8.6637   16.6327    4.1181 H         1 RES1    0.0000
     36 C21      -10.0675   17.0754    5.5638 C.3       1 RES1    0.0000
     37 H16       -9.6935   17.9241    5.8126 H         1 RES1    0.0000
     38 H17       -9.7548   16.3986    6.1685 H         1 RES1    0.0000
     39 H18      -11.0243   17.1251    5.6049 H         1 RES1    0.0000
     40 C22       -9.3808   18.8944    3.0617 C.2       1 RES1    0.0000
     41 C23       -9.4963   20.9588    1.7308 C.3       1 RES1    0.0000
     42 C24       -8.1347   20.7978    1.1148 C.3       1 RES1    0.0000
     43 H19       -7.5042   20.5429    1.7927 H         1 RES1    0.0000
     44 H20       -7.8610   21.6291    0.7202 H         1 RES1    0.0000
     45 H21       -8.1676   20.1181    0.4375 H         1 RES1    0.0000
     46 C25       -9.4795   21.9076    2.9385 C.3       1 RES1    0.0000
     47 H22      -10.3596   21.9598    3.3170 H         1 RES1    0.0000
     48 H23       -9.1974   22.7804    2.6551 H         1 RES1    0.0000
     49 H24       -8.8657   21.5736    3.5979 H         1 RES1    0.0000
     50 C26      -10.5505   21.3877    0.7005 C.3       1 RES1    0.0000
     51 H25      -10.6662   20.6902    0.0518 H         1 RES1    0.0000
     52 H26      -10.2579   22.1891    0.2601 H         1 RES1    0.0000
     53 H27      -11.3839   21.5518    1.1463 H         1 RES1    0.0000
     54 N1        -9.8556   11.9828    5.1907 N.3       1 RES1    0.0000
     55 N2        -8.5833   12.6451    5.3894 N.am      1 RES1    0.0000
     56 N3       -15.9245   13.8413    6.4054 N.pl3     1 RES1    0.0000
     57 N4       -10.0416   17.7315    3.1884 N.am      1 RES1    0.0000
     58 H28      -10.7247   17.5813    2.6867 H         1 RES1    0.0000
     59 O1        -6.3568   12.1032    5.4757 O.2       1 RES1    0.0000
     60 O2       -16.8877   13.5073    5.7210 O.2       1 RES1    0.0000
     61 O3       -16.0532   14.3395    7.4851 O.2       1 RES1    0.0000
     62 O4       -11.1679   15.3762    2.9021 O.2       1 RES1    0.0000
     63 O5        -8.3784   19.1852    3.6771 O.2       1 RES1    0.0000
     64 O6       -10.0275   19.6486    2.1474 O.3       1 RES1    0.0000
@<TRIPOS>BOND
     1    1    2 1
     2    3    1 2
     3    4    3 1
     4    5    4 1
     5    6    7 1
     6    8    6 1
     7    9    8 1
     8   10    8 1
     9   11    8 1
    10   12    6 1
    11   13   12 ar
    12   14   13 1
    13   15   13 ar
    14   16   15 1
    15   17   15 ar
    16   18   17 1
    17   19   17 ar
    18   20   19 1
    19   21   12 ar
    20   22   21 1
    21   23    4 1
    22   24   23 ar
    23   25   24 1
    24   26   24 ar
    25   27   26 1
    26   28   26 ar
    27   29   28 ar
    28   30   29 1
    29   31   23 ar
    30   32   31 1
    31   33    3 1
    32   34   33 1
    33   35   34 1
    34   36   34 1
    35   37   36 1
    36   38   36 1
    37   39   36 1
    38   40   57 1
    39   41   42 1
    40   42   43 1
    41   44   42 1
    42   45   42 1
    43   46   41 1
    44   47   46 1
    45   48   46 1
    46   49   46 1
    47   50   41 1
    48   51   50 1
    49   52   50 1
    50   53   50 1
    51   54    4 1
    52   55    1 1
    53   56   28 1
    54   57   34 1
    55   58   57 1
    56   59   11 2
    57   60   56 2
    58   61   56 2
    59   62   33 2
    60   63   40 2
    61   64   40 1
    62    6   54 1
    63   11   55 1
    64   19   21 ar
    65   29   31 ar
    66   41   64 1
    67   54   55 1
@<TRIPOS>SUBSTRUCTURE
     1 RES1 1

@<TRIPOS>CRYSIN
  27.8709   27.8709    5.9519  90.0000  90.0000 120.0000 170 1

