# MOL2 file generated by ConQuest
# Please check atom types

@<TRIPOS>MOLECULE
YADHET
    64    67     1
SMALL
NO_CHARGES
****
Generated from CSD

@<TRIPOS>ATOM
      1 C1        14.4501    2.8981    2.8818 C.3       1 RES1    0.0000
      2 H1        14.4758    2.6844    3.8379 H         1 RES1    0.0000
      3 C2        13.5883    1.8529    2.1586 C.3       1 RES1    0.0000
      4 H2        12.7920    1.6383    2.6695 H         1 RES1    0.0000
      5 H3        13.3276    2.1614    1.2768 H         1 RES1    0.0000
      6 C3        14.5179    0.6691    2.0721 C.2       1 RES1    0.0000
      7 C4        16.9635    0.6696    2.6067 C.2       1 RES1    0.0000
      8 H4        17.2122   -0.2245    2.5346 H         1 RES1    0.0000
      9 C5        17.6976    1.6070    3.1886 C.2       1 RES1    0.0000
     10 C6        16.9608    2.9383    3.1620 C.3       1 RES1    0.0000
     11 H5        16.6538    3.1656    4.0652 H         1 RES1    0.0000
     12 C7        17.7988    4.0711    2.6044 C.ar      1 RES1    0.0000
     13 C8        17.9778    5.2332    3.3374 C.ar      1 RES1    0.0000
     14 H6        17.5313    5.3368    4.1459 H         1 RES1    0.0000
     15 C9        18.8092    6.2396    2.8870 C.ar      1 RES1    0.0000
     16 H7        18.9259    7.0170    3.3823 H         1 RES1    0.0000
     17 C10       19.4570    6.0637    1.6932 C.ar      1 RES1    0.0000
     18 C11       19.2940    4.9341    0.9360 C.ar      1 RES1    0.0000
     19 H8        19.7421    4.8384    0.1263 H         1 RES1    0.0000
     20 C12       18.4530    3.9373    1.3950 C.ar      1 RES1    0.0000
     21 H9        18.3262    3.1705    0.8847 H         1 RES1    0.0000
     22 C13       13.9990    4.3304    2.7093 C.ar      1 RES1    0.0000
     23 C14       14.2969    5.0728    1.5755 C.ar      1 RES1    0.0000
     24 H10       14.8347    4.7076    0.9118 H         1 RES1    0.0000
     25 C15       13.7963    6.3582    1.4262 C.ar      1 RES1    0.0000
     26 H11       14.0014    6.8517    0.6655 H         1 RES1    0.0000
     27 C16       12.9994    6.8986    2.4043 C.ar      1 RES1    0.0000
     28 H12       12.6538    7.7547    2.2958 H         1 RES1    0.0000
     29 C17       12.7057    6.1796    3.5496 C.ar      1 RES1    0.0000
     30 H13       12.1738    6.5532    4.2151 H         1 RES1    0.0000
     31 C18       13.2104    4.8974    3.6972 C.ar      1 RES1    0.0000
     32 H14       13.0171    4.4115    4.4671 H         1 RES1    0.0000
     33 C19       18.9766    1.4888    3.8870 C.2       1 RES1    0.0000
     34 C20       19.7400    0.1636    3.8581 C.3       1 RES1    0.0000
     35 H15       19.5441   -0.3158    3.0259 H         1 RES1    0.0000
     36 C21       19.3305   -0.6859    5.0507 C.3       1 RES1    0.0000
     37 H16       19.7578   -1.5445    4.9942 H         1 RES1    0.0000
     38 H17       18.3789   -0.8043    5.0490 H         1 RES1    0.0000
     39 H18       19.5968   -0.2492    5.8627 H         1 RES1    0.0000
     40 C22       21.7478    1.0387    2.8725 C.2       1 RES1    0.0000
     41 C23       23.7008    2.3982    2.2924 C.3       1 RES1    0.0000
     42 C24       24.8490    2.8621    3.1488 C.3       1 RES1    0.0000
     43 H19       24.5156    3.4197    3.8564 H         1 RES1    0.0000
     44 H20       25.4701    3.3605    2.6136 H         1 RES1    0.0000
     45 H21       25.2948    2.0997    3.5277 H         1 RES1    0.0000
     46 C25       24.2151    1.5026    1.1938 C.3       1 RES1    0.0000
     47 H22       24.7336    0.7920    1.5732 H         1 RES1    0.0000
     48 H23       24.7621    2.0158    0.5928 H         1 RES1    0.0000
     49 H24       23.4715    1.1325    0.7093 H         1 RES1    0.0000
     50 C26       22.9330    3.5505    1.7820 C.3       1 RES1    0.0000
     51 H25       22.3276    3.2519    1.0986 H         1 RES1    0.0000
     52 H26       23.5356    4.1994    1.4123 H         1 RES1    0.0000
     53 H27       22.4345    3.9452    2.4994 H         1 RES1    0.0000
     54 N1        15.7883    2.6390    2.2912 N.3       1 RES1    0.0000
     55 N2        15.7865    1.1905    2.1223 N.am      1 RES1    0.0000
     56 N3        21.1656    0.4498    3.9366 N.am      1 RES1    0.0000
     57 H28       21.6225    0.2492    4.6384 H         1 RES1    0.0000
     58 N4        20.3531    7.1382    1.2353 N.pl3     1 RES1    0.0000
     59 O1        14.2659   -0.5149    1.9942 O.2       1 RES1    0.0000
     60 O2        19.4226    2.4414    4.4988 O.2       1 RES1    0.0000
     61 O3        21.3008    1.0437    1.7353 O.2       1 RES1    0.0000
     62 O4        22.9283    1.5601    3.2145 O.3       1 RES1    0.0000
     63 O5        20.5070    8.1276    1.8991 O.2       1 RES1    0.0000
     64 O6        20.8575    7.0072    0.1517 O.2       1 RES1    0.0000
@<TRIPOS>BOND
     1    1    2 1
     2    3    1 1
     3    4    3 1
     4    5    3 1
     5    6    3 1
     6    7    8 1
     7    9    7 2
     8   10    9 1
     9   11   10 1
    10   12   10 1
    11   13   12 ar
    12   14   13 1
    13   15   13 ar
    14   16   15 1
    15   17   15 ar
    16   18   17 ar
    17   19   18 1
    18   20   12 ar
    19   21   20 1
    20   22    1 1
    21   23   22 ar
    22   24   23 1
    23   25   23 ar
    24   26   25 1
    25   27   25 ar
    26   28   27 1
    27   29   27 ar
    28   30   29 1
    29   31   22 ar
    30   32   31 1
    31   33    9 1
    32   34   33 1
    33   35   34 1
    34   36   34 1
    35   37   36 1
    36   38   36 1
    37   39   36 1
    38   40   56 1
    39   41   42 1
    40   42   43 1
    41   44   42 1
    42   45   42 1
    43   46   41 1
    44   47   46 1
    45   48   46 1
    46   49   46 1
    47   50   41 1
    48   51   50 1
    49   52   50 1
    50   53   50 1
    51   54    1 1
    52   55    6 1
    53   56   34 1
    54   57   56 1
    55   58   17 1
    56   59    6 2
    57   60   33 2
    58   61   40 2
    59   62   40 1
    60   63   58 2
    61   64   58 2
    62    7   55 1
    63   10   54 1
    64   18   20 ar
    65   29   31 ar
    66   41   62 1
    67   54   55 1
@<TRIPOS>SUBSTRUCTURE
     1 RES1 1

@<TRIPOS>CRYSIN
  28.4900   28.4900    5.7670  90.0000  90.0000 120.0000 169 1

