# MOL2 file generated by ConQuest
# Please check atom types

@<TRIPOS>MOLECULE
YADKOF
    76    76     4
SMALL
NO_CHARGES
****
Generated from CSD

@<TRIPOS>ATOM
      1 C1        -0.6575    4.1411    8.2430 C.2       1 RES1    0.0000
      2 C2         0.3122    3.1414    8.7551 C.ar      1 RES1    0.0000
      3 C3        -0.1264    1.9873    9.3798 C.ar      1 RES1    0.0000
      4 H1        -1.0569    1.8225    9.4788 H         1 RES1    0.0000
      5 C4         0.7886    1.0811    9.8550 C.ar      1 RES1    0.0000
      6 C5         2.1537    1.3420    9.7005 C.ar      1 RES1    0.0000
      7 C6         2.5979    2.4675    9.0758 C.ar      1 RES1    0.0000
      8 H2         3.5294    2.6166    8.9633 H         1 RES1    0.0000
      9 C7         1.6801    3.3906    8.6073 C.ar      1 RES1    0.0000
     10 H3         1.9780    4.1890    8.1859 H         1 RES1    0.0000
     11 C8         5.3320   -0.1730    1.8185 C.2       2 RES2    0.0000
     12 C9         4.3792    0.6971    2.5288 C.ar      2 RES2    0.0000
     13 C10        4.8349    1.7069    3.3650 C.ar      2 RES2    0.0000
     14 H4         5.7645    1.8115    3.5313 H         2 RES2    0.0000
     15 C11        3.9289    2.5440    3.9460 C.ar      2 RES2    0.0000
     16 C12        2.5540    2.3664    3.7344 C.ar      2 RES2    0.0000
     17 C13        2.1076    1.3555    2.9402 C.ar      2 RES2    0.0000
     18 H5         1.1761    1.2262    2.8092 H         2 RES2    0.0000
     19 C14        3.0200    0.5195    2.3256 C.ar      2 RES2    0.0000
     20 H6         2.7143   -0.1810    1.7614 H         2 RES2    0.0000
     21 C15        6.9177    2.4424   -0.0890 C.2       3 RES3    0.0000
     22 C16        5.9677    3.4549    0.4181 C.ar      3 RES3    0.0000
     23 C17        6.4391    4.6224    0.9907 C.ar      3 RES3    0.0000
     24 H7         7.3723    4.7852    1.0579 H         3 RES3    0.0000
     25 C18        5.5388    5.5384    1.4575 C.ar      3 RES3    0.0000
     26 C19        4.1698    5.2858    1.3903 C.ar      3 RES3    0.0000
     27 C20        3.7031    4.1222    0.8127 C.ar      3 RES3    0.0000
     28 H8         2.7707    3.9452    0.7674 H         3 RES3    0.0000
     29 C21        4.6080    3.2229    0.3056 C.ar      3 RES3    0.0000
     30 H9         4.2985    2.4358   -0.1276 H         3 RES3    0.0000
     31 C22        4.2677    6.4802    6.5521 C.2       4 RES4    0.0000
     32 C23        3.2899    7.3021    5.7964 C.ar      4 RES4    0.0000
     33 C24        3.7208    8.4091    5.0845 C.ar      4 RES4    0.0000
     34 H10        4.6443    8.6274    5.0324 H         4 RES4    0.0000
     35 C25        2.7761    9.1859    4.4582 C.ar      4 RES4    0.0000
     36 C26        1.4258    8.8337    4.5236 C.ar      4 RES4    0.0000
     37 C27        1.0063    7.7319    5.2104 C.ar      4 RES4    0.0000
     38 H11        0.0834    7.5083    5.2474 H         4 RES4    0.0000
     39 C28        1.9451    6.9485    5.8535 C.ar      4 RES4    0.0000
     40 H12        1.6740    6.1737    6.3304 H         4 RES4    0.0000
     41 N1         0.3138   -0.0765   10.5837 N.pl3     1 RES1    0.0000
     42 N2         3.1591    0.3497   10.1085 N.pl3     1 RES1    0.0000
     43 N3         4.4502    3.6822    4.6916 N.pl3     2 RES2    0.0000
     44 N4         1.5653    3.2155    4.3960 N.pl3     2 RES2    0.0000
     45 N5         6.0999    6.7606    2.0553 N.pl3     3 RES3    0.0000
     46 N6         3.1812    6.2540    1.8739 N.pl3     3 RES3    0.0000
     47 N7         3.2012   10.4049    3.7781 N.pl3     4 RES4    0.0000
     48 N8         0.4047    9.6494    3.8419 N.pl3     4 RES4    0.0000
     49 O1        -0.2089    5.1548    7.6563 O.3       1 RES1    0.0000
     50 H13       -0.9244    5.6714    7.3547 H         1 RES1    0.0000
     51 O2        -1.8904    3.8972    8.4250 O.2       1 RES1    0.0000
     52 O3        -0.7219   -0.5929   10.2177 O.2       1 RES1    0.0000
     53 O4         0.9694   -0.4489   11.5492 O.2       1 RES1    0.0000
     54 O5         3.0737   -0.7627    9.6467 O.2       1 RES1    0.0000
     55 O6         4.0446    0.7516   10.8356 O.2       1 RES1    0.0000
     56 O7         4.9374   -1.0109    1.0035 O.2       2 RES2    0.0000
     57 O8         6.5826    0.0322    2.0810 O.3       2 RES2    0.0000
     58 H14        7.1049   -0.5925    1.6288 H         2 RES2    0.0000
     59 O9         5.2774    3.4681    5.5462 O.2       2 RES2    0.0000
     60 O10        4.0468    4.7866    4.3502 O.2       2 RES2    0.0000
     61 O11        1.8229    3.6253    5.5112 O.2       2 RES2    0.0000
     62 O12        0.5316    3.4422    3.7848 O.2       2 RES2    0.0000
     63 O13        6.5064    1.4594   -0.7135 O.2       3 RES3    0.0000
     64 O14        8.1680    2.6657    0.1583 O.3       3 RES3    0.0000
     65 H15        8.6906    2.0281   -0.2687 H         3 RES3    0.0000
     66 O15        6.7261    7.4824    1.2963 O.2       3 RES3    0.0000
     67 O16        5.9383    6.9379    3.2391 O.2       3 RES3    0.0000
     68 O17        3.5095    7.4247    1.8958 O.2       3 RES3    0.0000
     69 O18        2.0844    5.8156    2.2098 O.2       3 RES3    0.0000
     70 O19        3.8299    5.5541    7.2753 O.3       4 RES4    0.0000
     71 H16        4.5173    5.2047    7.7745 H         4 RES4    0.0000
     72 O20        5.5068    6.7881    6.4523 O.2       4 RES4    0.0000
     73 O21        4.1341   10.3228    3.0079 O.2       4 RES4    0.0000
     74 O22        2.5959   11.4231    4.0678 O.2       4 RES4    0.0000
     75 O23        0.6429    9.9796    2.6991 O.2       4 RES4    0.0000
     76 O24       -0.5959    9.9196    4.4733 O.2       4 RES4    0.0000
@<TRIPOS>BOND
     1    1    2 1
     2    2    3 ar
     3    3    4 1
     4    5    3 ar
     5    6    5 ar
     6    7    6 ar
     7    8    7 1
     8    9    2 ar
     9   10    9 1
    10   11   12 1
    11   12   13 ar
    12   13   14 1
    13   15   13 ar
    14   16   15 ar
    15   17   16 ar
    16   18   17 1
    17   19   12 ar
    18   20   19 1
    19   21   22 1
    20   22   23 ar
    21   23   24 1
    22   25   23 ar
    23   26   25 ar
    24   27   26 ar
    25   28   27 1
    26   29   22 ar
    27   30   29 1
    28   31   32 1
    29   32   33 ar
    30   33   34 1
    31   35   33 ar
    32   36   35 ar
    33   37   36 ar
    34   38   37 1
    35   39   32 ar
    36   40   39 1
    37   41    5 1
    38   42    6 1
    39   43   15 1
    40   44   16 1
    41   45   25 1
    42   46   26 1
    43   47   35 1
    44   48   36 1
    45   49    1 1
    46   50   49 1
    47   51    1 2
    48   52   41 2
    49   53   41 2
    50   54   42 2
    51   55   42 2
    52   56   11 2
    53   57   11 1
    54   58   57 1
    55   59   43 2
    56   60   43 2
    57   61   44 2
    58   62   44 2
    59   63   21 2
    60   64   21 1
    61   65   64 1
    62   66   45 2
    63   67   45 2
    64   68   46 2
    65   69   46 2
    66   70   31 1
    67   71   70 1
    68   72   31 2
    69   73   47 2
    70   74   47 2
    71   75   48 2
    72   76   48 2
    73    7    9 ar
    74   17   19 ar
    75   27   29 ar
    76   37   39 ar
@<TRIPOS>SUBSTRUCTURE
     1 RES1 1
     2 RES2 11
     3 RES3 21
     4 RES4 31

@<TRIPOS>CRYSIN
   7.3730   13.0600   16.8000  89.6330  88.1940  84.8380   2 1

