# MOL2 file generated by ConQuest
# Please check atom types

@<TRIPOS>MOLECULE
YAFHAO
    81    87     1
SMALL
NO_CHARGES
****
Generated from CSD

@<TRIPOS>ATOM
      1 C1         7.0508    8.9913    3.8573 C.2       1 RES1    0.0000
      2 C2         8.9857   10.0474    2.9003 C.3       1 RES1    0.0000
      3 C3         7.5850   10.3718    3.5625 C.3       1 RES1    0.0000
      4 N1         7.8644    8.0414    3.5670 N.2       1 RES1    0.0000
      5 N2         9.0063    8.5820    3.0236 N.am      1 RES1    0.0000
      6 C4        10.1957   10.7849    3.4455 C.3       1 RES1    0.0000
      7 C5        10.8801   11.2348    2.1999 C.2       1 RES1    0.0000
      8 N3        10.1671   11.0610    1.1503 N.2       1 RES1    0.0000
      9 O1         8.9502   10.4007    1.5077 O.3       1 RES1    0.0000
     10 C6         6.6697   11.2734    2.7460 C.3       1 RES1    0.0000
     11 C7         6.6802   12.5129    3.5562 C.2       1 RES1    0.0000
     12 N4         7.2687   12.4164    4.6874 N.2       1 RES1    0.0000
     13 O2         7.7656   11.0861    4.8253 O.3       1 RES1    0.0000
     14 C8        10.0816    7.8020    2.6980 C.2       1 RES1    0.0000
     15 O3        11.1076    8.3214    2.2879 O.2       1 RES1    0.0000
     16 C9        12.2616   11.7522    2.0920 C.ar      1 RES1    0.0000
     17 C10       13.1601   11.1904    1.1685 C.ar      1 RES1    0.0000
     18 C11       14.4923   11.6287    1.1721 C.ar      1 RES1    0.0000
     19 C12       14.9493   12.5882    2.0158 C.ar      1 RES1    0.0000
     20 C13       14.0500   13.1539    2.8948 C.ar      1 RES1    0.0000
     21 C14       12.7076   12.7697    2.9483 C.ar      1 RES1    0.0000
     22 C15       12.7687   10.1266    0.1923 C.3       1 RES1    0.0000
     23 C16       16.3995   13.0168    1.9777 C.3       1 RES1    0.0000
     24 C17       11.7549   13.4744    3.9145 C.3       1 RES1    0.0000
     25 C18        6.0190   13.7679    3.0917 C.ar      1 RES1    0.0000
     26 C19        4.7450   14.0980    3.5543 C.ar      1 RES1    0.0000
     27 C20        4.1457   15.2468    3.0137 C.ar      1 RES1    0.0000
     28 C21        4.7604   16.0114    2.0466 C.ar      1 RES1    0.0000
     29 C22        5.9928   15.6465    1.6239 C.ar      1 RES1    0.0000
     30 C23        6.6560   14.5382    2.1137 C.ar      1 RES1    0.0000
     31 C24        4.0235   13.2717    4.5649 C.3       1 RES1    0.0000
     32 C25        4.0424   17.2297    1.4914 C.3       1 RES1    0.0000
     33 C26        8.0283   14.1695    1.6093 C.3       1 RES1    0.0000
     34 C27        9.9942    6.3211    2.8313 C.ar      1 RES1    0.0000
     35 C28        8.9309    5.5682    2.3233 C.ar      1 RES1    0.0000
     36 C29        9.0098    4.2012    2.3233 C.ar      1 RES1    0.0000
     37 C30       10.1056    3.5583    2.8286 C.ar      1 RES1    0.0000
     38 C31       11.1439    4.2785    3.3439 C.ar      1 RES1    0.0000
     39 C32       11.0889    5.6763    3.3430 C.ar      1 RES1    0.0000
     40 C33        5.7318    8.6805    4.4307 C.ar      1 RES1    0.0000
     41 C34        5.0205    9.6149    5.1619 C.ar      1 RES1    0.0000
     42 C35        3.7989    9.2809    5.7270 C.ar      1 RES1    0.0000
     43 C36        3.2968    8.0395    5.5973 C.ar      1 RES1    0.0000
     44 C37        4.0160    7.0780    4.9532 C.ar      1 RES1    0.0000
     45 C38        5.2319    7.3908    4.3536 C.ar      1 RES1    0.0000
     46 H1        15.1949   11.1788    0.4808 H         1 RES1    0.0000
     47 H2        14.4151   13.9397    3.5562 H         1 RES1    0.0000
     48 H3        11.7205    9.8852    0.2994 H         1 RES1    0.0000
     49 H4        13.3559    9.2288    0.3719 H         1 RES1    0.0000
     50 H5        12.9612   10.4838   -0.8074 H         1 RES1    0.0000
     51 H6        16.5554   13.8046    2.7125 H         1 RES1    0.0000
     52 H7        16.6634   13.3798    0.9979 H         1 RES1    0.0000
     53 H8        17.0218   12.1635    2.2226 H         1 RES1    0.0000
     54 H9        10.7707   13.0516    3.8011 H         1 RES1    0.0000
     55 H10       11.7396   14.5382    3.6922 H         1 RES1    0.0000
     56 H11       12.0996   13.3219    4.9260 H         1 RES1    0.0000
     57 H12        3.1735   15.5422    3.3657 H         1 RES1    0.0000
     58 H13        6.4635   16.2566    0.8709 H         1 RES1    0.0000
     59 H14        4.6539   12.4531    4.8716 H         1 RES1    0.0000
     60 H15        3.1036   12.8778    4.1277 H         1 RES1    0.0000
     61 H16        3.7813   13.8818    5.4250 H         1 RES1    0.0000
     62 H17        4.6434   17.7046    0.7439 H         1 RES1    0.0000
     63 H18        3.8500   17.9170    2.2952 H         1 RES1    0.0000
     64 H19        3.1141   16.9323    1.0433 H         1 RES1    0.0000
     65 H20        8.3825   13.2833    2.1137 H         1 RES1    0.0000
     66 H21        8.7023   14.9823    1.7962 H         1 RES1    0.0000
     67 H22        7.9664   13.9783    0.5443 H         1 RES1    0.0000
     68 H23        8.0435    6.0624    1.9232 H         1 RES1    0.0000
     69 H24        8.1970    3.6104    1.9232 H         1 RES1    0.0000
     70 H25       10.1461    2.4713    2.8213 H         1 RES1    0.0000
     71 H26       11.9916    3.7649    3.7557 H         1 RES1    0.0000
     72 H27       11.9008    6.2555    3.7376 H         1 RES1    0.0000
     73 H28        5.4242   10.6189    5.2798 H         1 RES1    0.0000
     74 H29        3.2454   10.0204    6.2868 H         1 RES1    0.0000
     75 H30        2.3209    7.8001    6.0056 H         1 RES1    0.0000
     76 H31        3.6274    6.0624    4.8988 H         1 RES1    0.0000
     77 H32        5.7706    6.6416    3.8102 H         1 RES1    0.0000
     78 H33       10.5869   10.3872    3.8827 H         1 RES1    0.0000
     79 H34        9.8797   11.5650    3.9825 H         1 RES1    0.0000
     80 H35        5.6754   11.1209    2.5855 H         1 RES1    0.0000
     81 H36        7.0010   11.4298    1.7236 H         1 RES1    0.0000
@<TRIPOS>BOND
     1    1    3 1
     2    2    3 1
     3    3   10 1
     4    4    1 2
     5    5    2 1
     6    6    2 1
     7    7    6 1
     8    8    7 2
     9    9    2 1
    10   10   11 1
    11   11   12 2
    12   12   13 1
    13   13    3 1
    14   14    5 1
    15   15   14 2
    16   16    7 1
    17   17   16 ar
    18   18   17 ar
    19   19   18 ar
    20   20   19 ar
    21   21   16 ar
    22   22   17 1
    23   23   19 1
    24   24   21 1
    25   25   11 1
    26   26   25 ar
    27   27   26 ar
    28   28   27 ar
    29   29   28 ar
    30   30   25 ar
    31   31   26 1
    32   32   28 1
    33   33   30 1
    34   34   14 1
    35   35   34 ar
    36   36   35 ar
    37   37   36 ar
    38   38   37 ar
    39   39   34 ar
    40   40    1 1
    41   41   40 ar
    42   42   41 ar
    43   43   42 ar
    44   44   43 ar
    45   45   40 ar
    46   46   18 1
    47   47   20 1
    48   48   22 1
    49   49   22 1
    50   50   22 1
    51   51   23 1
    52   52   23 1
    53   53   23 1
    54   54   24 1
    55   55   24 1
    56   56   24 1
    57   57   27 1
    58   58   29 1
    59   59   31 1
    60   60   31 1
    61   61   31 1
    62   62   32 1
    63   63   32 1
    64   64   32 1
    65   65   33 1
    66   66   33 1
    67   67   33 1
    68   68   35 1
    69   69   36 1
    70   70   37 1
    71   71   38 1
    72   72   39 1
    73   73   41 1
    74   74   42 1
    75   75   43 1
    76   76   44 1
    77   77   45 1
    78   78    6 1
    79   79    6 1
    80   80   10 1
    81   81   10 1
    82    4    5 1
    83    8    9 1
    84   20   21 ar
    85   29   30 ar
    86   38   39 ar
    87   44   45 ar
@<TRIPOS>SUBSTRUCTURE
     1 RES1 1

@<TRIPOS>CRYSIN
  21.9368   19.3071    9.1979  90.0000  80.5030  90.0000   9 1

