# MOL2 file generated by ConQuest
# Please check atom types

@<TRIPOS>MOLECULE
YAFMEY
    40    42     1
SMALL
NO_CHARGES
****
Generated from CSD

@<TRIPOS>ATOM
      1 N1         5.4994    4.6278   12.0771 N.am      1 RES1    0.0000
      2 O1         4.6579    5.3573   11.2512 O.3       1 RES1    0.0000
      3 C1         3.3027    5.1024   11.5200 C.2       1 RES1    0.0000
      4 O2         2.9845    4.2723   12.3073 O.2       1 RES1    0.0000
      5 C2         2.4414    5.9888   10.7438 C.ar      1 RES1    0.0000
      6 C3         1.0873    5.9778   11.0371 C.ar      1 RES1    0.0000
      7 H1         0.7694    5.4167   11.7063 H         1 RES1    0.0000
      8 C4         0.2040    6.7863   10.3518 C.ar      1 RES1    0.0000
      9 H2        -0.7038    6.7769   10.5567 H         1 RES1    0.0000
     10 C5         0.6930    7.6121    9.3533 C.ar      1 RES1    0.0000
     11 C6         2.0391    7.6456    9.0605 C.ar      1 RES1    0.0000
     12 H3         2.3554    8.2187    8.4003 H         1 RES1    0.0000
     13 C7         2.9145    6.8341    9.7414 C.ar      1 RES1    0.0000
     14 H4         3.8215    6.8489    9.5339 H         1 RES1    0.0000
     15 O3        -0.1054    8.4281    8.5820 O.3       1 RES1    0.0000
     16 C8        -1.4418    8.5940    8.9902 C.ar      1 RES1    0.0000
     17 C9        -2.4409    7.8981    8.3592 C.ar      1 RES1    0.0000
     18 H5        -2.2366    7.2895    7.6861 H         1 RES1    0.0000
     19 C10       -3.7487    8.1073    8.7297 C.ar      1 RES1    0.0000
     20 H6        -4.4316    7.6446    8.3009 H         1 RES1    0.0000
     21 C11       -4.0506    9.0044    9.7383 C.ar      1 RES1    0.0000
     22 C12       -3.0391    9.6931   10.3666 C.ar      1 RES1    0.0000
     23 H7        -3.2360   10.2920   11.0504 H         1 RES1    0.0000
     24 C13       -1.7315    9.4915    9.9780 C.ar      1 RES1    0.0000
     25 H8        -1.0456    9.9676   10.3887 H         1 RES1    0.0000
     26 O4        -5.3830    9.1495   10.0274 O.3       1 RES1    0.0000
     27 C14       -5.7236   10.0098   11.0949 C.3       1 RES1    0.0000
     28 H9        -6.6778   10.0300   11.1978 H         1 RES1    0.0000
     29 H10       -5.4028   10.8958   10.9075 H         1 RES1    0.0000
     30 H11       -5.3207    9.6892   11.9052 H         1 RES1    0.0000
     31 C15        5.7563    5.0376   13.3777 C.2       1 RES1    0.0000
     32 O5         5.2746    6.0173   13.8739 O.2       1 RES1    0.0000
     33 C16        6.7171    4.0412   13.9268 C.3       1 RES1    0.0000
     34 H12        6.3827    3.6678   14.7575 H         1 RES1    0.0000
     35 H13        7.5772    4.4559   14.0958 H         1 RES1    0.0000
     36 C17        6.8458    2.9575   12.8694 C.3       1 RES1    0.0000
     37 H14        7.7754    2.8317   12.6228 H         1 RES1    0.0000
     38 H15        6.4945    2.1156   13.1999 H         1 RES1    0.0000
     39 C18        6.0521    3.4307   11.6944 C.2       1 RES1    0.0000
     40 O6         5.9089    2.9301   10.6127 O.2       1 RES1    0.0000
@<TRIPOS>BOND
     1    1    2 1
     2    2    3 1
     3    3    4 2
     4    5    3 1
     5    6    5 ar
     6    7    6 1
     7    8    6 ar
     8    9    8 1
     9   10    8 ar
    10   11   10 ar
    11   12   11 1
    12   13    5 ar
    13   14   13 1
    14   15   10 1
    15   16   15 1
    16   17   16 ar
    17   18   17 1
    18   19   17 ar
    19   20   19 1
    20   21   19 ar
    21   22   21 ar
    22   23   22 1
    23   24   16 ar
    24   25   24 1
    25   26   21 1
    26   27   26 1
    27   28   27 1
    28   29   27 1
    29   30   27 1
    30   31    1 1
    31   32   31 2
    32   33   31 1
    33   34   33 1
    34   35   33 1
    35   36   33 1
    36   37   36 1
    37   38   36 1
    38   39    1 1
    39   40   39 2
    40   11   13 ar
    41   22   24 ar
    42   36   39 1
@<TRIPOS>SUBSTRUCTURE
     1 RES1 1

@<TRIPOS>CRYSIN
  15.0890    9.5990   11.4330  90.0000  91.7800  90.0000  14 1

