# MOL2 file generated by ConQuest
# Please check atom types

@<TRIPOS>MOLECULE
YAFPOL
    74    80     2
SMALL
NO_CHARGES
****
Generated from CSD

@<TRIPOS>ATOM
      1 C1         2.4938    8.9786    6.0305 C.ar      1 RES1    0.0000
      2 C2         3.8419    9.3947    5.7659 C.ar      1 RES1    0.0000
      3 H1         4.5658    8.8880    6.1160 H         1 RES1    0.0000
      4 C3         4.0950   10.4933    5.0280 C.ar      1 RES1    0.0000
      5 H2         4.9959   10.7434    4.8572 H         1 RES1    0.0000
      6 C4         3.0443   11.2811    4.5038 C.ar      1 RES1    0.0000
      7 H3         3.2422   12.0566    3.9915 H         1 RES1    0.0000
      8 C5         1.7726   10.9375    4.7275 C.ar      1 RES1    0.0000
      9 H4         1.0750   11.4762    4.3743 H         1 RES1    0.0000
     10 C6         1.4451    9.7811    5.4831 C.ar      1 RES1    0.0000
     11 C7         0.1187    9.4078    5.7078 C.ar      1 RES1    0.0000
     12 H5        -0.5747    9.9550    5.3578 H         1 RES1    0.0000
     13 C8        -0.2248    8.2692    6.4227 C.ar      1 RES1    0.0000
     14 C9        -1.5862    7.8561    6.6122 C.ar      1 RES1    0.0000
     15 H6        -2.2854    8.3873    6.2486 H         1 RES1    0.0000
     16 C10       -1.8980    6.7507    7.2851 C.ar      1 RES1    0.0000
     17 H7        -2.8083    6.4984    7.3881 H         1 RES1    0.0000
     18 C11       -0.8802    5.9536    7.8431 C.ar      1 RES1    0.0000
     19 H8        -1.1108    5.1638    8.3172 H         1 RES1    0.0000
     20 C12        0.4294    6.2988    7.7118 C.ar      1 RES1    0.0000
     21 H9         1.0984    5.7472    8.1007 H         1 RES1    0.0000
     22 C13        0.8119    7.4624    7.0080 C.ar      1 RES1    0.0000
     23 C14        2.1465    7.8451    6.7968 C.ar      1 RES1    0.0000
     24 C15        3.2554    7.0746    7.3998 C.2       1 RES1    0.0000
     25 O1         4.2059    6.6037    6.8753 O.2       1 RES1    0.0000
     26 O2         3.0774    7.0110    8.7846 O.3       1 RES1    0.0000
     27 N1         4.1219    6.3468    9.4086 N.am      1 RES1    0.0000
     28 C16        4.0286    5.0076    9.7163 C.2       1 RES1    0.0000
     29 O3         3.1153    4.3032    9.4014 O.2       1 RES1    0.0000
     30 C17        5.2860    4.6944   10.4918 C.3       1 RES1    0.0000
     31 H10        5.8968    4.1318    9.9544 H         1 RES1    0.0000
     32 H11        5.0681    4.2155   11.3310 H         1 RES1    0.0000
     33 C18        5.9254    6.0481   10.7951 C.3       1 RES1    0.0000
     34 H12        5.9241    6.2232   11.7698 H         1 RES1    0.0000
     35 H13        6.8604    6.0707   10.4697 H         1 RES1    0.0000
     36 C19        5.0966    7.0645   10.0779 C.2       1 RES1    0.0000
     37 O4         5.1817    8.2634   10.0542 O.2       1 RES1    0.0000
     38 C20        4.2076    6.7111   15.2861 C.ar      2 RES2    0.0000
     39 C21        4.7797    5.4021   15.2543 C.ar      2 RES2    0.0000
     40 H14        4.4766    4.7667   14.6158 H         2 RES2    0.0000
     41 C22        5.7554    5.0627   16.1367 C.ar      2 RES2    0.0000
     42 H15        6.1407    4.1956   16.0955 H         2 RES2    0.0000
     43 C23        6.2077    5.9747   17.1143 C.ar      2 RES2    0.0000
     44 H16        6.8873    5.7141   17.7253 H         2 RES2    0.0000
     45 C24        5.6827    7.2101   17.1868 C.ar      2 RES2    0.0000
     46 H17        5.9890    7.8103   17.8564 H         2 RES2    0.0000
     47 C25        4.6695    7.6342   16.2713 C.ar      2 RES2    0.0000
     48 C26        4.1559    8.9196   16.2991 C.ar      2 RES2    0.0000
     49 H18        4.4525    9.5155   16.9774 H         2 RES2    0.0000
     50 C27        3.2217    9.3723   15.3724 C.ar      2 RES2    0.0000
     51 C28        2.7118   10.7057   15.3916 C.ar      2 RES2    0.0000
     52 H19        2.9933   11.3032   16.0749 H         2 RES2    0.0000
     53 C29        1.8384   11.1307   14.4582 C.ar      2 RES2    0.0000
     54 H20        1.5233   12.0266   14.4774 H         2 RES2    0.0000
     55 C30        1.3897   10.2473   13.4506 C.ar      2 RES2    0.0000
     56 H21        0.7776   10.5600   12.7945 H         2 RES2    0.0000
     57 C31        1.8179    8.9608   13.4036 C.ar      2 RES2    0.0000
     58 H22        1.4886    8.3789   12.7283 H         2 RES2    0.0000
     59 C32        2.7609    8.4740   14.3609 C.ar      2 RES2    0.0000
     60 C33        3.2439    7.1552   14.3486 C.ar      2 RES2    0.0000
     61 C34        2.7909    6.2422   13.2738 C.2       2 RES2    0.0000
     62 O5         3.0563    6.2840   12.1183 O.2       2 RES2    0.0000
     63 O6         1.9330    5.2846   13.7872 O.3       2 RES2    0.0000
     64 N2         1.5421    4.3501   12.8297 N.am      2 RES2    0.0000
     65 C35        0.4432    4.5472   11.9955 C.2       2 RES2    0.0000
     66 O7        -0.2841    5.4991   12.0404 O.2       2 RES2    0.0000
     67 C36        0.4297    3.3590   11.0807 C.3       2 RES2    0.0000
     68 H23        0.5517    3.6436   10.1414 H         2 RES2    0.0000
     69 H24       -0.4308    2.8747   11.1558 H         2 RES2    0.0000
     70 C37        1.5816    2.4669   11.5210 C.3       2 RES2    0.0000
     71 H25        1.2401    1.6293   11.9244 H         2 RES2    0.0000
     72 H26        2.1583    2.2371   10.7495 H         2 RES2    0.0000
     73 C38        2.3428    3.2608   12.5276 C.2       2 RES2    0.0000
     74 O8         3.4292    3.0792   13.0087 O.2       2 RES2    0.0000
@<TRIPOS>BOND
     1    1    2 ar
     2    2    3 1
     3    4    2 ar
     4    5    4 1
     5    6    4 ar
     6    7    6 1
     7    8    6 ar
     8    9    8 1
     9   10    1 ar
    10   11   10 ar
    11   12   11 1
    12   13   11 ar
    13   14   13 ar
    14   15   14 1
    15   16   14 ar
    16   17   16 1
    17   18   16 ar
    18   19   18 1
    19   20   18 ar
    20   21   20 1
    21   22   13 ar
    22   23    1 ar
    23   24   23 1
    24   25   24 2
    25   26   24 1
    26   27   26 1
    27   28   27 1
    28   29   28 2
    29   30   28 1
    30   31   30 1
    31   32   30 1
    32   33   30 1
    33   34   33 1
    34   35   33 1
    35   36   27 1
    36   37   36 2
    37   38   39 ar
    38   39   40 1
    39   41   39 ar
    40   42   41 1
    41   43   41 ar
    42   44   43 1
    43   45   43 ar
    44   46   45 1
    45   47   38 ar
    46   48   47 ar
    47   49   48 1
    48   50   48 ar
    49   51   50 ar
    50   52   51 1
    51   53   51 ar
    52   54   53 1
    53   55   53 ar
    54   56   55 1
    55   57   55 ar
    56   58   57 1
    57   59   50 ar
    58   60   38 ar
    59   61   60 1
    60   62   61 2
    61   63   61 1
    62   64   63 1
    63   65   64 1
    64   66   65 2
    65   67   65 1
    66   68   67 1
    67   69   67 1
    68   70   67 1
    69   71   70 1
    70   72   70 1
    71   73   64 1
    72   74   73 2
    73    8   10 ar
    74   20   22 ar
    75   22   23 ar
    76   33   36 1
    77   45   47 ar
    78   57   59 ar
    79   59   60 ar
    80   70   73 1
@<TRIPOS>SUBSTRUCTURE
     1 RES1 1
     2 RES2 38

@<TRIPOS>CRYSIN
   9.4090   11.2030   14.9220  94.7900  96.7900 102.4900   2 1

