# MOL2 file generated by ConQuest
# Please check atom types

@<TRIPOS>MOLECULE
YAGBEP
    26    27     1
SMALL
NO_CHARGES
****
Generated from CSD

@<TRIPOS>ATOM
      1 O1         8.3121    2.0962    6.1738 O.3       1 RES1    0.0000
      2 O2         9.2501    5.0852    2.3700 O.3       1 RES1    0.0000
      3 O3         6.9954    5.4350    2.5075 O.2       1 RES1    0.0000
      4 O4         8.3949    4.1347   -0.0944 O.2       1 RES1    0.0000
      5 O5        10.4834    7.5739    2.0075 O.2       1 RES1    0.0000
      6 C1         7.0290    3.3864    4.6026 C.2       1 RES1    0.0000
      7 H1         6.1915    3.6433    4.2908 H         1 RES1    0.0000
      8 C2         8.1035    3.9516    4.0375 C.2       1 RES1    0.0000
      9 H2         8.9513    3.7394    4.3543 H         1 RES1    0.0000
     10 N1         9.2084    5.8394    1.2030 N.am      1 RES1    0.0000
     11 C3         7.0776    2.4123    5.6549 C.2       1 RES1    0.0000
     12 C4         7.9660    4.8927    2.9351 C.2       1 RES1    0.0000
     13 C5         9.9279    7.0321    1.0926 C.2       1 RES1    0.0000
     14 C6         6.1235    1.6660    6.2802 C.2       1 RES1    0.0000
     15 H3         5.2083    1.6896    6.1144 H         1 RES1    0.0000
     16 C7         8.8114    5.2628    0.0044 C.2       1 RES1    0.0000
     17 C8         6.7858    0.8464    7.2298 C.2       1 RES1    0.0000
     18 H4         6.3945    0.2300    7.8067 H         1 RES1    0.0000
     19 C9         8.0932    1.1420    7.1272 C.2       1 RES1    0.0000
     20 H5         8.7627    0.7482    7.6381 H         1 RES1    0.0000
     21 C10        9.0250    6.3165   -1.0432 C.3       1 RES1    0.0000
     22 H6         8.1763    6.6779   -1.3442 H         1 RES1    0.0000
     23 H7         9.4954    5.9481   -1.8083 H         1 RES1    0.0000
     24 C11        9.8653    7.4036   -0.3641 C.3       1 RES1    0.0000
     25 H8        10.7568    7.4326   -0.7465 H         1 RES1    0.0000
     26 H9         9.4501    8.2732   -0.4751 H         1 RES1    0.0000
@<TRIPOS>BOND
     1    1   11 1
     2    2   10 1
     3    3   12 2
     4    4   16 2
     5    5   13 2
     6    6    7 1
     7    8    6 2
     8    9    8 1
     9   10   13 1
    10   11    6 1
    11   12    2 1
    12   13   24 1
    13   14   11 2
    14   15   14 1
    15   16   10 1
    16   17   14 1
    17   18   17 1
    18   19    1 1
    19   20   19 1
    20   21   16 1
    21   22   21 1
    22   23   21 1
    23   24   21 1
    24   25   24 1
    25   26   24 1
    26    8   12 1
    27   17   19 2
@<TRIPOS>SUBSTRUCTURE
     1 RES1 1

@<TRIPOS>CRYSIN
  10.3054    9.2376   21.8920  90.0000  90.0000  90.0000  61 1

