# MOL2 file generated by ConQuest
# Please check atom types

@<TRIPOS>MOLECULE
YAGBAM
    48    51     1
SMALL
USER_CHARGES
****
Generated from CSD

@<TRIPOS>ATOM
      1 O1         4.2800    1.1750    4.4724 O.2       1 RES1   -1.0000
      2 O2        -5.5191    1.0978    1.7484 O.3       1 RES1    0.0000
      3 N1         3.7043    1.4848    5.5859 N.pl3     1 RES1    1.0000
      4 C1         6.6416    1.2587    6.1174 C.ar      1 RES1    0.0000
      5 H1         6.4014    1.0764    5.2382 H         1 RES1    0.0000
      6 C2         7.9651    1.1834    6.5171 C.ar      1 RES1    0.0000
      7 H2         8.6074    0.9415    5.8922 H         1 RES1    0.0000
      8 C3         8.3592    1.4494    7.7868 C.ar      1 RES1    0.0000
      9 H3         9.2549    1.3815    8.0273 H         1 RES1    0.0000
     10 C4         7.4112    1.8216    8.7150 C.ar      1 RES1    0.0000
     11 H4         7.6711    2.0197    9.5865 H         1 RES1    0.0000
     12 C5         6.0877    1.9025    8.3658 C.ar      1 RES1    0.0000
     13 H5         5.4596    2.1528    9.0030 H         1 RES1    0.0000
     14 C6         5.6708    1.6150    7.0654 C.ar      1 RES1    0.0000
     15 C7         4.2479    1.6913    6.7591 C.2       1 RES1    0.0000
     16 C8         3.1900    1.9862    7.7792 C.3       1 RES1    0.0000
     17 H6         3.3405    2.8552    8.1835 H         1 RES1    0.0000
     18 H7         3.1947    1.3136    8.4791 H         1 RES1    0.0000
     19 C9         1.8382    1.9667    7.0134 C.3       1 RES1    0.0000
     20 H8         1.2141    1.3229    7.4070 H         1 RES1    0.0000
     21 C10        2.2075    1.5797    5.5736 C.3       1 RES1    0.0000
     22 H9         1.7957    0.7284    5.3163 H         1 RES1    0.0000
     23 C11        1.7641    2.7100    4.6592 C.3       1 RES1    0.0000
     24 H10        2.4257    2.8393    3.9486 H         1 RES1    0.0000
     25 C12        1.7666    3.9250    5.6012 C.3       1 RES1    0.0000
     26 H11        2.6673    4.2618    5.7329 H         1 RES1    0.0000
     27 H12        1.2102    4.6376    5.2520 H         1 RES1    0.0000
     28 C13        1.1973    3.3650    6.8878 C.3       1 RES1    0.0000
     29 H13        0.2310    3.2998    6.8372 H         1 RES1    0.0000
     30 H14        1.4365    3.9250    7.6429 H         1 RES1    0.0000
     31 C14        0.3934    2.5240    4.0542 C.2       1 RES1    0.0000
     32 H15        0.0343    3.2784    3.6453 H         1 RES1    0.0000
     33 C15       -0.3654    1.4569    4.0190 C.2       1 RES1    0.0000
     34 H16       -0.0192    0.6922    4.4188 H         1 RES1    0.0000
     35 C16       -1.7072    1.3331    3.4156 C.ar      1 RES1    0.0000
     36 C17       -2.3543    0.1154    3.3374 C.ar      1 RES1    0.0000
     37 H17       -1.9252   -0.6410    3.6667 H         1 RES1    0.0000
     38 C18       -3.6177   -0.0195    2.7891 C.ar      1 RES1    0.0000
     39 H18       -4.0208   -0.8559    2.7416 H         1 RES1    0.0000
     40 C19       -4.2711    1.0959    2.3128 C.ar      1 RES1    0.0000
     41 C20       -3.6444    2.3202    2.3679 C.ar      1 RES1    0.0000
     42 H19       -4.0771    3.0756    2.0417 H         1 RES1    0.0000
     43 C21       -2.3921    2.4337    2.8979 C.ar      1 RES1    0.0000
     44 H20       -1.9823    3.2682    2.9147 H         1 RES1    0.0000
     45 C22       -6.2812   -0.0809    1.7553 C.3       1 RES1    0.0000
     46 H21       -5.8241   -0.7610    1.2559 H         1 RES1    0.0000
     47 H22       -7.1376    0.0893    1.3555 H         1 RES1    0.0000
     48 H23       -6.4052   -0.3768    2.6605 H         1 RES1    0.0000
@<TRIPOS>BOND
     1    1    3 1
     2    2   40 1
     3    3   15 2
     4    4    5 1
     5    6    4 ar
     6    7    6 1
     7    8    6 ar
     8    9    8 1
     9   10    8 ar
    10   11   10 1
    11   12   10 ar
    12   13   12 1
    13   14    4 ar
    14   15   14 1
    15   16   15 1
    16   17   16 1
    17   18   16 1
    18   19   16 1
    19   20   19 1
    20   21    3 1
    21   22   21 1
    22   23   21 1
    23   24   23 1
    24   25   23 1
    25   26   25 1
    26   27   25 1
    27   28   19 1
    28   29   28 1
    29   30   28 1
    30   31   23 1
    31   32   31 1
    32   33   31 2
    33   34   33 1
    34   35   33 1
    35   36   35 ar
    36   37   36 1
    37   38   36 ar
    38   39   38 1
    39   40   38 ar
    40   41   40 ar
    41   42   41 1
    42   43   35 ar
    43   44   43 1
    44   45    2 1
    45   46   45 1
    46   47   45 1
    47   48   45 1
    48   12   14 ar
    49   19   21 1
    50   25   28 1
    51   41   43 ar
@<TRIPOS>SUBSTRUCTURE
     1 RES1 1

@<TRIPOS>CRYSIN
  12.2933    9.3032   16.1740  90.0000 108.7420  90.0000 231 1

