# MOL2 file generated by ConQuest
# Please check atom types

@<TRIPOS>MOLECULE
YAGHEW
   148   152     4
SMALL
NO_CHARGES
****
Generated from CSD

@<TRIPOS>ATOM
      1 O1         1.6010   20.7748    6.2346 O.3       1 RES1    0.0000
      2 O2        -1.0506   13.6624    5.0005 O.2       1 RES1    0.0000
      3 O3        -6.6917   13.7411    1.0991 O.2       1 RES1    0.0000
      4 O4        -6.9505   15.8838    0.9788 O.2       1 RES1    0.0000
      5 N1         0.3766   15.3907    5.4079 N.am      1 RES1    0.0000
      6 N2        -1.5127   15.7357    4.1205 N.am      1 RES1    0.0000
      7 H1        -1.1968   16.5619    4.1180 H         1 RES1    0.0000
      8 N3        -6.3125   14.8925    1.3263 N.pl3     1 RES1    0.0000
      9 C1         0.6170   16.7971    5.5629 C.ar      1 RES1    0.0000
     10 C2         1.6567   17.4170    4.8874 C.ar      1 RES1    0.0000
     11 H2         2.1659   16.9279    4.2530 H         1 RES1    0.0000
     12 C3         1.9555   18.7440    5.1330 C.ar      1 RES1    0.0000
     13 H3         2.6712   19.1629    4.6680 H         1 RES1    0.0000
     14 C4         1.2125   19.4692    6.0594 C.ar      1 RES1    0.0000
     15 C5         0.1744   18.8686    6.7317 C.ar      1 RES1    0.0000
     16 H4        -0.3426   19.3623    7.3588 H         1 RES1    0.0000
     17 C6        -0.1100   17.5268    6.4817 C.ar      1 RES1    0.0000
     18 H5        -0.8194   17.1068    6.9538 H         1 RES1    0.0000
     19 C7         1.0489   21.4780    7.3425 C.3       1 RES1    0.0000
     20 H6         0.0806   21.5664    7.2223 H         1 RES1    0.0000
     21 H7         1.4552   22.3683    7.3990 H         1 RES1    0.0000
     22 H8         1.2313   20.9825    8.1686 H         1 RES1    0.0000
     23 C8         1.2427   14.5085    6.2017 C.3       1 RES1    0.0000
     24 H9         1.0193   14.6004    7.1520 H         1 RES1    0.0000
     25 H10        2.1800   14.7566    6.0607 H         1 RES1    0.0000
     26 H11        1.1055   13.5785    5.9229 H         1 RES1    0.0000
     27 C9        -0.7500   14.8510    4.8622 C.2       1 RES1    0.0000
     28 C10       -2.6900   15.4561    3.4284 C.ar      1 RES1    0.0000
     29 C11       -3.3105   16.5253    2.7600 C.ar      1 RES1    0.0000
     30 H12       -2.9059   17.3843    2.7769 H         1 RES1    0.0000
     31 C12       -4.4870   16.3503    2.0843 C.ar      1 RES1    0.0000
     32 H13       -4.9125   17.0882    1.6613 H         1 RES1    0.0000
     33 C13       -5.0521   15.0879    2.0228 C.ar      1 RES1    0.0000
     34 C14       -4.4475   14.0066    2.6328 C.ar      1 RES1    0.0000
     35 H14       -4.8311   13.1405    2.5616 H         1 RES1    0.0000
     36 C15       -3.2821   14.1947    3.3465 C.ar      1 RES1    0.0000
     37 H15       -2.8776   13.4572    3.7878 H         1 RES1    0.0000
     38 O5        11.3796   10.7211    2.9969 O.3       2 RES2    0.0000
     39 O6         8.5324    3.6529    2.7613 O.2       2 RES2    0.0000
     40 O7         2.0351    4.3787    0.5715 O.2       2 RES2    0.0000
     41 O8         1.7113    6.4039    1.2535 O.2       2 RES2    0.0000
     42 N4         9.9392    5.3481    3.3223 N.am      2 RES2    0.0000
     43 N5         7.6684    5.7517    3.0902 N.am      2 RES2    0.0000
     44 H16        7.8996    6.6206    3.3355 H         2 RES2    0.0000
     45 N6         2.4113    5.3942    1.1543 N.pl3     2 RES2    0.0000
     46 C16       10.2435    6.7535    3.3000 C.ar      2 RES2    0.0000
     47 C17       10.6455    7.4116    4.4433 C.ar      2 RES2    0.0000
     48 H17       10.6627    6.9455    5.2710 H         2 RES2    0.0000
     49 C18       11.0257    8.7491    4.3986 C.ar      2 RES2    0.0000
     50 H18       11.2942    9.1990    5.1906 H         2 RES2    0.0000
     51 C19       11.0077    9.4173    3.1870 C.ar      2 RES2    0.0000
     52 C20       10.5975    8.7612    2.0376 C.ar      2 RES2    0.0000
     53 H19       10.5753    9.2257    1.2090 H         2 RES2    0.0000
     54 C21       10.2218    7.4392    2.0906 C.ar      2 RES2    0.0000
     55 H20        9.9463    6.9928    1.2980 H         2 RES2    0.0000
     56 C22       11.7619   11.4765    4.1321 C.3       2 RES2    0.0000
     57 H21       11.0525   11.4360    4.8058 H         2 RES2    0.0000
     58 H22       11.9100   12.4086    3.8696 H         2 RES2    0.0000
     59 H23       12.5893   11.1071    4.5071 H         2 RES2    0.0000
     60 C23       11.0975    4.4572    3.2420 C.3       2 RES2    0.0000
     61 H24       10.8033    3.5283    3.3398 H         2 RES2    0.0000
     62 H25       11.7285    4.6776    3.9586 H         2 RES2    0.0000
     63 H26       11.5375    4.5707    2.3735 H         2 RES2    0.0000
     64 C24        8.7048    4.8380    3.0298 C.2       2 RES2    0.0000
     65 C25        6.3427    5.5432    2.6829 C.ar      2 RES2    0.0000
     66 C26        5.4228    6.5557    2.9682 C.ar      2 RES2    0.0000
     67 H27        5.6928    7.2909    3.5049 H         2 RES2    0.0000
     68 C27        4.1466    6.5071    2.4908 C.ar      2 RES2    0.0000
     69 H28        3.5391    7.2128    2.6736 H         2 RES2    0.0000
     70 C28        3.7465    5.4168    1.7352 C.ar      2 RES2    0.0000
     71 C29        4.6125    4.3704    1.5031 C.ar      2 RES2    0.0000
     72 H29        4.3177    3.6085    1.0166 H         2 RES2    0.0000
     73 C30        5.9036    4.4290    1.9766 C.ar      2 RES2    0.0000
     74 H30        6.4974    3.7051    1.8192 H         2 RES2    0.0000
     75 O9        -6.9729    5.3218   12.3201 O.3       3 RES3    0.0000
     76 O10       -3.7295   12.0629   10.5351 O.2       3 RES3    0.0000
     77 O11        1.1058    9.2255    5.6356 O.2       3 RES3    0.0000
     78 O12        1.6379   11.1576    6.4572 O.2       3 RES3    0.0000
     79 N7        -4.9969   10.4767   11.5674 N.am      3 RES3    0.0000
     80 N8        -3.4593    9.8619    9.9454 N.am      3 RES3    0.0000
     81 H31       -3.8432    9.0592    9.9878 H         3 RES3    0.0000
     82 N9         0.9115   10.1654    6.4105 N.pl3     3 RES3    0.0000
     83 C31       -5.4464    9.1258   11.7110 C.ar      3 RES3    0.0000
     84 C32       -6.6822    8.7493   11.2038 C.ar      3 RES3    0.0000
     85 H32       -7.2051    9.3738   10.7158 H         3 RES3    0.0000
     86 C33       -7.1500    7.4700   11.4093 C.ar      3 RES3    0.0000
     87 H33       -7.9928    7.2149   11.0546 H         3 RES3    0.0000
     88 C34       -6.4009    6.5489   12.1308 C.ar      3 RES3    0.0000
     89 C35       -5.1665    6.9196   12.6283 C.ar      3 RES3    0.0000
     90 H34       -4.6394    6.2937   13.1093 H         3 RES3    0.0000
     91 C36       -4.6992    8.2069   12.4232 C.ar      3 RES3    0.0000
     92 H35       -3.8538    8.4609   12.7762 H         3 RES3    0.0000
     93 C37       -6.2400    4.3813   13.1081 C.3       3 RES3    0.0000
     94 H36       -5.4189    4.1307   12.6370 H         3 RES3    0.0000
     95 H37       -6.7888    3.5817   13.2572 H         3 RES3    0.0000
     96 H38       -6.0112    4.7866   13.9709 H         3 RES3    0.0000
     97 C38       -5.7745   11.4899   12.2786 C.3       3 RES3    0.0000
     98 H39       -5.2770   12.3345   12.2909 H         3 RES3    0.0000
     99 H40       -5.9360   11.1914   13.1984 H         3 RES3    0.0000
    100 H41       -6.6327   11.6231   11.8228 H         3 RES3    0.0000
    101 C39       -4.0458   10.8858   10.6779 C.2       3 RES3    0.0000
    102 C40       -2.3637    9.9838    9.0795 C.ar      3 RES3    0.0000
    103 C41       -2.0754    8.9015    8.2434 C.ar      3 RES3    0.0000
    104 H42       -2.6146    8.1195    8.2791 H         3 RES3    0.0000
    105 C42       -1.0081    8.9603    7.3635 C.ar      3 RES3    0.0000
    106 H43       -0.8151    8.2265    6.7916 H         3 RES3    0.0000
    107 C43       -0.2309   10.0934    7.3286 C.ar      3 RES3    0.0000
    108 C44       -0.4932   11.1728    8.1522 C.ar      3 RES3    0.0000
    109 H44        0.0525   11.9501    8.1111 H         3 RES3    0.0000
    110 C45       -1.5538   11.1136    9.0354 C.ar      3 RES3    0.0000
    111 H45       -1.7301   11.8472    9.6145 H         3 RES3    0.0000
    112 O13        7.6469   15.5807    0.4374 O.3       4 RES4    0.0000
    113 O14        7.5925    8.6695    3.8138 O.2       4 RES4    0.0000
    114 O15        9.1856    9.1509   10.4074 O.2       4 RES4    0.0000
    115 O16        9.5117   11.2917   10.5449 O.2       4 RES4    0.0000
    116 N10        7.4120   10.3126    2.2586 N.am      4 RES4    0.0000
    117 N11        7.8624   10.8496    4.4758 N.am      4 RES4    0.0000
    118 H46        7.7946   11.6745    4.2272 H         4 RES4    0.0000
    119 N12        9.2122   10.2813    9.9080 N.pl3     4 RES4    0.0000
    120 C46        7.5007   11.6871    1.8515 C.ar      4 RES4    0.0000
    121 C47        8.7237   12.3288    1.7988 C.ar      4 RES4    0.0000
    122 H47        9.5127   11.8678    2.0605 H         4 RES4    0.0000
    123 C48        8.8053   13.6541    1.3618 C.ar      4 RES4    0.0000
    124 H48        9.6410   14.1069    1.3583 H         4 RES4    0.0000
    125 C49        7.6627   14.2994    0.9357 C.ar      4 RES4    0.0000
    126 C50        6.4344   13.6426    0.9681 C.ar      4 RES4    0.0000
    127 H49        5.6522   14.0884    0.6662 H         4 RES4    0.0000
    128 C51        6.3497   12.3539    1.4350 C.ar      4 RES4    0.0000
    129 H50        5.5066   11.9172    1.4746 H         4 RES4    0.0000
    130 C52        8.9076   16.2455    0.3749 C.3       4 RES4    0.0000
    131 H51        9.2368   16.4077    1.2837 H         4 RES4    0.0000
    132 H52        8.8042   17.1006   -0.0933 H         4 RES4    0.0000
    133 H53        9.5497   15.6839   -0.1091 H         4 RES4    0.0000
    134 C53        7.1481    9.3201    1.2147 C.3       4 RES4    0.0000
    135 H54        7.9948    8.9276    0.9161 H         4 RES4    0.0000
    136 H55        6.7041    9.7541    0.4566 H         4 RES4    0.0000
    137 H56        6.5697    8.6151    1.5723 H         4 RES4    0.0000
    138 C54        7.6313    9.8662    3.5300 C.2       4 RES4    0.0000
    139 C55        8.1985   10.6467    5.8277 C.ar      4 RES4    0.0000
    140 C56        8.4187    9.3902    6.3847 C.ar      4 RES4    0.0000
    141 H57        8.3394    8.6089    5.8497 H         4 RES4    0.0000
    142 C57        8.7532    9.2864    7.7232 C.ar      4 RES4    0.0000
    143 H58        8.9017    8.4321    8.1097 H         4 RES4    0.0000
    144 C58        8.8718   10.4166    8.4922 C.ar      4 RES4    0.0000
    145 C59        8.6824   11.6766    7.9605 C.ar      4 RES4    0.0000
    146 H59        8.7872   12.4517    8.4988 H         4 RES4    0.0000
    147 C60        8.3366   11.7821    6.6239 C.ar      4 RES4    0.0000
    148 H60        8.1924   12.6409    6.2445 H         4 RES4    0.0000
@<TRIPOS>BOND
     1    1   14 1
     2    2   27 2
     3    3    8 2
     4    4    8 2
     5    5    9 1
     6    6    7 1
     7    8   33 1
     8    9   10 ar
     9   10   11 1
    10   12   10 ar
    11   13   12 1
    12   14   12 ar
    13   15   14 ar
    14   16   15 1
    15   17    9 ar
    16   18   17 1
    17   19    1 1
    18   20   19 1
    19   21   19 1
    20   22   19 1
    21   23    5 1
    22   24   23 1
    23   25   23 1
    24   26   23 1
    25   27    5 1
    26   28    6 1
    27   29   28 ar
    28   30   29 1
    29   31   29 ar
    30   32   31 1
    31   33   31 ar
    32   34   33 ar
    33   35   34 1
    34   36   28 ar
    35   37   36 1
    36   38   51 1
    37   39   64 2
    38   40   45 2
    39   41   45 2
    40   42   46 1
    41   43   44 1
    42   45   70 1
    43   46   47 ar
    44   47   48 1
    45   49   47 ar
    46   50   49 1
    47   51   49 ar
    48   52   51 ar
    49   53   52 1
    50   54   46 ar
    51   55   54 1
    52   56   38 1
    53   57   56 1
    54   58   56 1
    55   59   56 1
    56   60   42 1
    57   61   60 1
    58   62   60 1
    59   63   60 1
    60   64   42 1
    61   65   43 1
    62   66   65 ar
    63   67   66 1
    64   68   66 ar
    65   69   68 1
    66   70   68 ar
    67   71   70 ar
    68   72   71 1
    69   73   65 ar
    70   74   73 1
    71   75   88 1
    72   76  101 2
    73   77   82 2
    74   78   82 2
    75   79   83 1
    76   80   81 1
    77   82  107 1
    78   83   84 ar
    79   84   85 1
    80   86   84 ar
    81   87   86 1
    82   88   86 ar
    83   89   88 ar
    84   90   89 1
    85   91   83 ar
    86   92   91 1
    87   93   75 1
    88   94   93 1
    89   95   93 1
    90   96   93 1
    91   97   79 1
    92   98   97 1
    93   99   97 1
    94  100   97 1
    95  101   79 1
    96  102   80 1
    97  103  102 ar
    98  104  103 1
    99  105  103 ar
   100  106  105 1
   101  107  105 ar
   102  108  107 ar
   103  109  108 1
   104  110  102 ar
   105  111  110 1
   106  112  125 1
   107  113  138 2
   108  114  119 2
   109  115  119 2
   110  116  120 1
   111  117  118 1
   112  119  144 1
   113  120  121 ar
   114  121  122 1
   115  123  121 ar
   116  124  123 1
   117  125  123 ar
   118  126  125 ar
   119  127  126 1
   120  128  120 ar
   121  129  128 1
   122  130  112 1
   123  131  130 1
   124  132  130 1
   125  133  130 1
   126  134  116 1
   127  135  134 1
   128  136  134 1
   129  137  134 1
   130  138  116 1
   131  139  117 1
   132  140  139 ar
   133  141  140 1
   134  142  140 ar
   135  143  142 1
   136  144  142 ar
   137  145  144 ar
   138  146  145 1
   139  147  139 ar
   140  148  147 1
   141    6   27 1
   142   15   17 ar
   143   34   36 ar
   144   43   64 1
   145   52   54 ar
   146   71   73 ar
   147   80  101 1
   148   89   91 ar
   149  108  110 ar
   150  117  138 1
   151  126  128 ar
   152  145  147 ar
@<TRIPOS>SUBSTRUCTURE
     1 RES1 1
     2 RES2 38
     3 RES3 75
     4 RES4 112

@<TRIPOS>CRYSIN
  18.9640   20.5610   15.3460  90.0000 110.6660  90.0000  14 1

