# MOL2 file generated by ConQuest
# Please check atom types

@<TRIPOS>MOLECULE
YAGHIA
    43    44     1
SMALL
NO_CHARGES
****
Generated from CSD

@<TRIPOS>ATOM
      1 O1         2.2576   10.2750    7.9330 O.2       1 RES1    0.0000
      2 O2         0.3794   10.5370    6.8757 O.2       1 RES1    0.0000
      3 O3         1.8440    3.5267    8.4101 O.2       1 RES1    0.0000
      4 O4         1.4430    2.1085    6.6976 O.3       1 RES1    0.0000
      5 O5        -0.7677    3.2996    5.3000 O.2       1 RES1    0.0000
      6 O6         6.2044    5.9448    3.6803 O.3       1 RES1    0.0000
      7 N1         1.2868    9.8334    7.3184 N.pl3     1 RES1    0.0000
      8 N2         1.0452    4.2764    6.3833 N.am      1 RES1    0.0000
      9 N3         0.9276    4.1431    4.0396 N.am      1 RES1    0.0000
     10 C1         1.1110    5.6708    6.6500 C.ar      1 RES1    0.0000
     11 C2         2.0793    6.2017    7.5091 C.ar      1 RES1    0.0000
     12 H1         2.6974    5.6276    7.9467 H         1 RES1    0.0000
     13 C3         2.1295    7.5694    7.7163 C.ar      1 RES1    0.0000
     14 H2         2.7866    7.9413    8.2924 H         1 RES1    0.0000
     15 C4         1.2208    8.3885    7.0818 C.ar      1 RES1    0.0000
     16 C5         0.2490    7.8838    6.2305 C.ar      1 RES1    0.0000
     17 H3        -0.3673    8.4643    5.7992 H         1 RES1    0.0000
     18 C6         0.1975    6.5199    6.0222 C.ar      1 RES1    0.0000
     19 H4        -0.4655    6.1556    5.4474 H         1 RES1    0.0000
     20 C7         1.4743    3.3119    7.2850 C.2       1 RES1    0.0000
     21 C8         1.7391    0.9944    7.5740 C.3       1 RES1    0.0000
     22 H5         2.6950    0.9936    7.7904 H         1 RES1    0.0000
     23 H6         1.5046    0.1556    7.1262 H         1 RES1    0.0000
     24 H7         1.2178    1.0804    8.4001 H         1 RES1    0.0000
     25 C9         0.3130    3.8423    5.2029 C.2       1 RES1    0.0000
     26 C10        0.2057    3.8478    2.7939 C.3       1 RES1    0.0000
     27 H8         0.3819    2.9222    2.5266 H         1 RES1    0.0000
     28 H9         0.5102    4.4554    2.0883 H         1 RES1    0.0000
     29 H10       -0.7561    3.9694    2.9375 H         1 RES1    0.0000
     30 C11        2.2806    4.6327    3.9569 C.ar      1 RES1    0.0000
     31 C12        2.5227    5.9110    3.4892 C.ar      1 RES1    0.0000
     32 H11        1.7920    6.4668    3.2439 H         1 RES1    0.0000
     33 C13        3.8242    6.3967    3.3720 C.ar      1 RES1    0.0000
     34 H12        3.9838    7.2742    3.0452 H         1 RES1    0.0000
     35 C14        4.8835    5.5776    3.7405 C.ar      1 RES1    0.0000
     36 C15        4.6484    4.2838    4.2105 C.ar      1 RES1    0.0000
     37 H13        5.3771    3.7283    4.4601 H         1 RES1    0.0000
     38 C16        3.3509    3.8144    4.3115 C.ar      1 RES1    0.0000
     39 H14        3.1891    2.9311    4.6239 H         1 RES1    0.0000
     40 C17        6.4809    7.2927    3.2938 C.3       1 RES1    0.0000
     41 H15        6.1078    7.4605    2.4037 H         1 RES1    0.0000
     42 H16        7.4505    7.4349    3.2742 H         1 RES1    0.0000
     43 H17        6.0741    7.9082    3.9400 H         1 RES1    0.0000
@<TRIPOS>BOND
     1    1    7 2
     2    2    7 2
     3    3   20 2
     4    4   20 1
     5    5   25 2
     6    6   35 1
     7    7   15 1
     8    8   10 1
     9    9   25 1
    10   10   11 ar
    11   11   12 1
    12   13   11 ar
    13   14   13 1
    14   15   13 ar
    15   16   15 ar
    16   17   16 1
    17   18   10 ar
    18   19   18 1
    19   20    8 1
    20   21    4 1
    21   22   21 1
    22   23   21 1
    23   24   21 1
    24   25    8 1
    25   26    9 1
    26   27   26 1
    27   28   26 1
    28   29   26 1
    29   30    9 1
    30   31   30 ar
    31   32   31 1
    32   33   31 ar
    33   34   33 1
    34   35   33 ar
    35   36   35 ar
    36   37   36 1
    37   38   30 ar
    38   39   38 1
    39   40    6 1
    40   41   40 1
    41   42   40 1
    42   43   40 1
    43   16   18 ar
    44   36   38 ar
@<TRIPOS>SUBSTRUCTURE
     1 RES1 1

@<TRIPOS>CRYSIN
   8.5414   12.7551   15.1934  90.0000  93.4810  90.0000 231 1

