# MOL2 file generated by ConQuest
# Please check atom types

@<TRIPOS>MOLECULE
YAGKEX
    40    42     1
SMALL
NO_CHARGES
****
Generated from CSD

@<TRIPOS>ATOM
      1 O1         3.7199    4.1723   -1.4953 O.3       1 RES1    0.0000
      2 O2         2.6405    1.3721    0.5187 O.3       1 RES1    0.0000
      3 O3         1.6565   -0.1857    3.9215 O.3       1 RES1    0.0000
      4 O4         3.0026   -1.4366    2.6735 O.2       1 RES1    0.0000
      5 N1         2.9461    4.8933   -2.4403 N.2       1 RES1    0.0000
      6 N2         1.7192    3.2740   -1.4722 N.2       1 RES1    0.0000
      7 C1        -0.1351    5.8202   -5.2129 C.ar      1 RES1    0.0000
      8 H1         0.0103    6.4045   -5.9219 H         1 RES1    0.0000
      9 C2         0.8864    5.5540   -4.3202 C.ar      1 RES1    0.0000
     10 H2         1.7157    5.9618   -4.4297 H         1 RES1    0.0000
     11 C3         0.6787    4.6849   -3.2678 C.ar      1 RES1    0.0000
     12 C4        -0.5714    4.1234   -3.1051 C.ar      1 RES1    0.0000
     13 H3        -0.7306    3.5540   -2.3881 H         1 RES1    0.0000
     14 C5        -1.5920    4.4016   -4.0029 C.ar      1 RES1    0.0000
     15 H4        -2.4336    4.0244   -3.8834 H         1 RES1    0.0000
     16 C6        -1.3577    5.2308   -5.0603 C.ar      1 RES1    0.0000
     17 H5        -2.0321    5.3942   -5.6799 H         1 RES1    0.0000
     18 C7         1.7897    4.3099   -2.3850 C.2       1 RES1    0.0000
     19 C8         2.9149    3.2470   -0.9892 C.2       1 RES1    0.0000
     20 C9         3.5400    2.3604    0.0442 C.3       1 RES1    0.0000
     21 H6         4.3182    1.9256   -0.3384 H         1 RES1    0.0000
     22 H7         3.8397    2.9028    0.7903 H         1 RES1    0.0000
     23 C10        2.4393    0.2515   -0.2521 C.ar      1 RES1    0.0000
     24 C11        3.0182    0.0322   -1.4893 C.ar      1 RES1    0.0000
     25 H8         3.5777    0.6730   -1.8649 H         1 RES1    0.0000
     26 C12        2.7603   -1.1454   -2.1631 C.ar      1 RES1    0.0000
     27 H9         3.1604   -1.3033   -2.9876 H         1 RES1    0.0000
     28 C13        1.9164   -2.0838   -1.6238 C.ar      1 RES1    0.0000
     29 H10        1.7354   -2.8684   -2.0878 H         1 RES1    0.0000
     30 C14        1.3396   -1.8613   -0.3947 C.ar      1 RES1    0.0000
     31 H11        0.7662   -2.5003   -0.0372 H         1 RES1    0.0000
     32 C15        1.5978   -0.7053    0.3163 C.ar      1 RES1    0.0000
     33 C16        1.0276   -0.4781    1.6891 C.3       1 RES1    0.0000
     34 H12        0.7319    0.4430    1.7614 H         1 RES1    0.0000
     35 H13        0.2521   -1.0489    1.8086 H         1 RES1    0.0000
     36 C17        2.0169   -0.7613    2.7797 C.2       1 RES1    0.0000
     37 C18        2.5420   -0.4025    5.0483 C.3       1 RES1    0.0000
     38 H14        2.1889    0.0423    5.8225 H         1 RES1    0.0000
     39 H15        3.4115   -0.0481    4.8454 H         1 RES1    0.0000
     40 H16        2.6130   -1.3438    5.2240 H         1 RES1    0.0000
@<TRIPOS>BOND
     1    1    5 1
     2    2   20 1
     3    3   36 1
     4    4   36 2
     5    5   18 2
     6    6   18 1
     7    7    8 1
     8    9    7 ar
     9   10    9 1
    10   11    9 ar
    11   12   11 ar
    12   13   12 1
    13   14   12 ar
    14   15   14 1
    15   16    7 ar
    16   17   16 1
    17   18   11 1
    18   19    1 1
    19   20   19 1
    20   21   20 1
    21   22   20 1
    22   23    2 1
    23   24   23 ar
    24   25   24 1
    25   26   24 ar
    26   27   26 1
    27   28   26 ar
    28   29   28 1
    29   30   28 ar
    30   31   30 1
    31   32   23 ar
    32   33   32 1
    33   34   33 1
    34   35   33 1
    35   36   33 1
    36   37    3 1
    37   38   37 1
    38   39   37 1
    39   40   37 1
    40    6   19 2
    41   14   16 ar
    42   30   32 ar
@<TRIPOS>SUBSTRUCTURE
     1 RES1 1

@<TRIPOS>CRYSIN
   8.7850    9.8480   10.3450  77.9000  79.1200  67.3900   2 1

