# MOL2 file generated by ConQuest
# Please check atom types

@<TRIPOS>MOLECULE
YAGQON
    84    88     1
SMALL
NO_CHARGES
****
Generated from CSD

@<TRIPOS>ATOM
      1 O1         6.8036   15.4987   17.3843 O.3       1 RES1    0.0000
      2 C1         7.2780   14.2326   17.0182 C.3       1 RES1    0.0000
      3 H1         8.2298   14.2721   16.7150 H         1 RES1    0.0000
      4 O2         5.2950   14.7332   15.8861 O.3       1 RES1    0.0000
      5 C2         6.3408   13.7701   15.8795 C.3       1 RES1    0.0000
      6 H2         6.8039   13.7026   14.9951 H         1 RES1    0.0000
      7 C3         5.7868   12.4351   16.3657 C.3       1 RES1    0.0000
      8 H3         4.8459   12.2784   16.0654 H         1 RES1    0.0000
      9 O3         7.1108   13.3128   18.0754 O.3       1 RES1    0.0000
     10 C4         5.8979   12.5865   17.8781 C.3       1 RES1    0.0000
     11 H4         5.1248   13.1196   18.2218 H         1 RES1    0.0000
     12 O4         4.8245   10.4885   18.3160 O.3       1 RES1    0.0000
     13 C5         6.0036   11.2922   18.6400 C.3       1 RES1    0.0000
     14 H5         6.8368   10.8047   18.3796 H         1 RES1    0.0000
     15 C6         5.9418   11.4597   20.1524 C.3       1 RES1    0.0000
     16 H6         6.6290   10.9110   20.6071 H         1 RES1    0.0000
     17 H7         6.0485   12.4069   20.4177 H         1 RES1    0.0000
     18 C7         4.5669   10.9626   20.4374 C.2       1 RES1    0.0000
     19 N1         3.9721   10.4279   19.4397 N.2       1 RES1    0.0000
     20 O5         3.6657   12.4593   21.9840 O.3       1 RES1    0.0000
     21 C8         3.8637   11.0661   21.7476 C.3       1 RES1    0.0000
     22 H8         2.9762   10.6096   21.6853 H         1 RES1    0.0000
     23 C9         4.6633   10.4700   22.9108 C.3       1 RES1    0.0000
     24 H9         5.5969   10.8294   22.9108 H         1 RES1    0.0000
     25 C10        3.9928   10.7575   24.2278 C.3       1 RES1    0.0000
     26 H10        3.1700   10.1970   24.3230 H         1 RES1    0.0000
     27 C11        3.6420   12.2331   24.3763 C.3       1 RES1    0.0000
     28 H11        4.4697   12.7774   24.5097 H         1 RES1    0.0000
     29 C12        2.8765   12.7158   23.1414 C.3       1 RES1    0.0000
     30 H12        2.0103   12.2216   23.0712 H         1 RES1    0.0000
     31 C13        2.6113   14.1843   23.1735 C.3       1 RES1    0.0000
     32 H13        2.3096   14.4598   24.0758 H         1 RES1    0.0000
     33 H14        3.4335   14.6871   22.9476 H         1 RES1    0.0000
     34 C14        5.8603   15.9503   16.4023 C.3       1 RES1    0.0000
     35 O6         6.6708   11.3720   15.9855 O.3       1 RES1    0.0000
     36 O7         5.5446   11.1337   14.0744 O.2       1 RES1    0.0000
     37 C15        6.3881   10.7499   14.8260 C.2       1 RES1    0.0000
     38 C16        7.2396    9.5547   14.6293 C.ar      1 RES1    0.0000
     39 C17        6.8978    8.6554   13.6250 C.ar      1 RES1    0.0000
     40 H15        6.1516    8.8345   13.0648 H         1 RES1    0.0000
     41 C18        7.6348    7.5091   13.4380 C.ar      1 RES1    0.0000
     42 H16        7.3875    6.8927   12.7571 H         1 RES1    0.0000
     43 C19        8.7235    7.2509   14.2282 C.ar      1 RES1    0.0000
     44 H17        9.2405    6.4690   14.0773 H         1 RES1    0.0000
     45 C20        9.0751    8.1205   15.2394 C.ar      1 RES1    0.0000
     46 H18        9.8218    7.9303   15.7945 H         1 RES1    0.0000
     47 C21        8.3304    9.2743   15.4408 C.ar      1 RES1    0.0000
     48 H19        8.5677    9.8746   16.1390 H         1 RES1    0.0000
     49 O8         4.6761    9.0467   22.7243 O.3       1 RES1    0.0000
     50 C22        5.8717    8.4437   22.5381 C.2       1 RES1    0.0000
     51 O9         6.9011    9.0265   22.5571 O.2       1 RES1    0.0000
     52 C23        5.6905    6.9816   22.3304 C.3       1 RES1    0.0000
     53 H20        4.7351    6.7642   22.3506 H         1 RES1    0.0000
     54 H21        6.1519    6.4900   23.0423 H         1 RES1    0.0000
     55 H22        6.0657    6.7259   21.4617 H         1 RES1    0.0000
     56 O10        4.9408   10.4264   25.2618 O.3       1 RES1    0.0000
     57 C24        4.4686    9.7847   26.3603 C.2       1 RES1    0.0000
     58 O11        3.3585    9.3681   26.4578 O.2       1 RES1    0.0000
     59 C25        5.5277    9.7225   27.4122 C.3       1 RES1    0.0000
     60 H23        6.3483   10.1389   27.0737 H         1 RES1    0.0000
     61 H24        5.7072    8.7863   27.6391 H         1 RES1    0.0000
     62 H25        5.2232   10.2007   28.2124 H         1 RES1    0.0000
     63 O12        2.7580   12.3754   25.5011 O.3       1 RES1    0.0000
     64 C26        3.2774   12.8575   26.6651 C.2       1 RES1    0.0000
     65 O13        4.4166   13.2143   26.7750 O.2       1 RES1    0.0000
     66 C27        2.2583   12.8298   27.7504 C.3       1 RES1    0.0000
     67 H26        1.4147   12.4773   27.3972 H         1 RES1    0.0000
     68 H27        2.1161   13.7385   28.0888 H         1 RES1    0.0000
     69 H28        2.5735   12.2562   28.4807 H         1 RES1    0.0000
     70 O14        1.5807   14.4455   22.1984 O.3       1 RES1    0.0000
     71 C28        1.4965   15.7037   21.7539 C.2       1 RES1    0.0000
     72 O15        2.1954   16.5814   22.1565 O.2       1 RES1    0.0000
     73 C29        0.3964   15.8211   20.7170 C.3       1 RES1    0.0000
     74 H29        0.3290   16.7512   20.4151 H         1 RES1    0.0000
     75 H30       -0.4560   15.5432   21.1120 H         1 RES1    0.0000
     76 H31        0.6054   15.2455   19.9522 H         1 RES1    0.0000
     77 C30        4.7709   16.7043   17.1173 C.3       1 RES1    0.0000
     78 H32        5.1336   17.5430   17.4724 H         1 RES1    0.0000
     79 H33        4.4263   16.1595   17.8563 H         1 RES1    0.0000
     80 H34        4.0446   16.9032   16.4888 H         1 RES1    0.0000
     81 C31        6.5827   16.7043   15.3191 C.3       1 RES1    0.0000
     82 H35        6.9432   17.5381   15.6867 H         1 RES1    0.0000
     83 H36        5.9589   16.9093   14.5927 H         1 RES1    0.0000
     84 H37        7.3177   16.1546   14.9740 H         1 RES1    0.0000
@<TRIPOS>BOND
     1    1    2 1
     2    2    3 1
     3    4    5 1
     4    5    2 1
     5    6    5 1
     6    7    5 1
     7    8    7 1
     8    9    2 1
     9   10    7 1
    10   11   10 1
    11   12   13 1
    12   13   10 1
    13   14   13 1
    14   15   13 1
    15   16   15 1
    16   17   15 1
    17   18   15 1
    18   19   12 1
    19   20   21 1
    20   21   18 1
    21   22   21 1
    22   23   21 1
    23   24   23 1
    24   25   23 1
    25   26   25 1
    26   27   25 1
    27   28   27 1
    28   29   20 1
    29   30   29 1
    30   31   29 1
    31   32   31 1
    32   33   31 1
    33   34    1 1
    34   35    7 1
    35   36   37 2
    36   37   35 1
    37   38   37 1
    38   39   38 ar
    39   40   39 1
    40   41   39 ar
    41   42   41 1
    42   43   41 ar
    43   44   43 1
    44   45   43 ar
    45   46   45 1
    46   47   38 ar
    47   48   47 1
    48   49   23 1
    49   50   49 1
    50   51   50 2
    51   52   50 1
    52   53   52 1
    53   54   52 1
    54   55   52 1
    55   56   25 1
    56   57   56 1
    57   58   57 2
    58   59   57 1
    59   60   59 1
    60   61   59 1
    61   62   59 1
    62   63   27 1
    63   64   63 1
    64   65   64 2
    65   66   64 1
    66   67   66 1
    67   68   66 1
    68   69   66 1
    69   70   31 1
    70   71   70 1
    71   72   71 2
    72   73   71 1
    73   74   73 1
    74   75   73 1
    75   76   73 1
    76   77   34 1
    77   78   77 1
    78   79   77 1
    79   80   77 1
    80   81   34 1
    81   82   81 1
    82   83   81 1
    83   84   81 1
    84    4   34 1
    85    9   10 1
    86   18   19 2
    87   27   29 1
    88   45   47 ar
@<TRIPOS>SUBSTRUCTURE
     1 RES1 1

@<TRIPOS>CRYSIN
   5.4529   12.3525   26.2982  90.0000  90.2550  90.0000   4 1

