# MOL2 file generated by ConQuest
# Please check atom types

@<TRIPOS>MOLECULE
YAGVAF
    30    31     1
SMALL
NO_CHARGES
****
Generated from CSD

@<TRIPOS>ATOM
      1 O1         1.3862    0.2397    6.9706 O.3       1 RES1    0.0000
      2 H1         2.0553    0.3996    6.4546 H         1 RES1    0.0000
      3 O2         6.5601    2.3554    0.6202 O.2       1 RES1    0.0000
      4 O3         8.2514    1.5677    1.7218 O.2       1 RES1    0.0000
      5 N1         3.7710    0.2972    5.9533 N.2       1 RES1    0.0000
      6 N2         4.1306    2.3419    1.6890 N.pl3     1 RES1    0.0000
      7 H2         4.5437    2.6312    0.9620 H         1 RES1    0.0000
      8 H3         3.2669    2.3316    1.7059 H         1 RES1    0.0000
      9 N3         7.0419    1.8295    1.6375 N.pl3     1 RES1    0.0000
     10 C1         1.9356   -0.3856    8.0359 C.ar      1 RES1    0.0000
     11 C2         1.1101   -0.7405    9.1026 C.ar      1 RES1    0.0000
     12 H4         0.1802   -0.5497    9.0659 H         1 RES1    0.0000
     13 C3         1.6424   -1.3695   10.2146 C.ar      1 RES1    0.0000
     14 H5         1.0748   -1.5979   10.9416 H         1 RES1    0.0000
     15 C4         3.0033   -1.6722   10.2811 C.ar      1 RES1    0.0000
     16 H6         3.3591   -2.1177   11.0418 H         1 RES1    0.0000
     17 C5         3.8290   -1.3177    9.2297 C.ar      1 RES1    0.0000
     18 H7         4.7572   -1.5139    9.2781 H         1 RES1    0.0000
     19 C6         3.3168   -0.6714    8.0905 C.ar      1 RES1    0.0000
     20 C7         4.2095   -0.3043    7.0092 C.2       1 RES1    0.0000
     21 H8         5.1344   -0.5102    7.0783 H         1 RES1    0.0000
     22 C8         4.6418    0.6815    4.9046 C.ar      1 RES1    0.0000
     23 C9         4.0497    1.3072    3.8301 C.ar      1 RES1    0.0000
     24 H9         3.1117    1.4586    3.8492 H         1 RES1    0.0000
     25 C10        4.7887    1.7344    2.6953 C.ar      1 RES1    0.0000
     26 C11        6.1842    1.4911    2.7365 C.ar      1 RES1    0.0000
     27 C12        6.7857    0.8859    3.8564 C.ar      1 RES1    0.0000
     28 H10        7.7277    0.7600    3.8681 H         1 RES1    0.0000
     29 C13        6.0411    0.4756    4.9265 C.ar      1 RES1    0.0000
     30 H11        6.4561    0.0591    5.6730 H         1 RES1    0.0000
@<TRIPOS>BOND
     1    1    2 1
     2    3    9 2
     3    4    9 2
     4    5   20 2
     5    6    7 1
     6    8    6 1
     7    9   26 1
     8   10    1 1
     9   11   10 ar
    10   12   11 1
    11   13   11 ar
    12   14   13 1
    13   15   13 ar
    14   16   15 1
    15   17   15 ar
    16   18   17 1
    17   19   10 ar
    18   20   19 1
    19   21   20 1
    20   22    5 1
    21   23   22 ar
    22   24   23 1
    23   25    6 1
    24   26   25 ar
    25   27   26 ar
    26   28   27 1
    27   29   22 ar
    28   30   29 1
    29   17   19 ar
    30   23   25 ar
    31   27   29 ar
@<TRIPOS>SUBSTRUCTURE
     1 RES1 1

@<TRIPOS>CRYSIN
   7.0961    7.5168   12.1627 100.0670  94.7510 115.0110   2 1

