# MOL2 file generated by ConQuest
# Please check atom types

@<TRIPOS>MOLECULE
YAGYOU
    34    37     1
SMALL
USER_CHARGES
****
Generated from CSD

@<TRIPOS>ATOM
      1 O1         4.3505    5.3402    2.4286 O.2       1 RES1   -1.0000
      2 O2         5.5827    4.5481    4.1864 O.3       1 RES1    0.0000
      3 N1         5.4653    4.9771    2.7842 N.pl3     1 RES1    1.0000
      4 N2         6.8757    4.0936    4.3903 N.2       1 RES1    0.0000
      5 N3         8.8359    3.4872    1.4970 N.3       1 RES1    0.0000
      6 N4         8.2101    4.2818    0.5618 N.2       1 RES1    0.0000
      7 C1         7.4822    4.2538    3.2465 C.2       1 RES1    0.0000
      8 C2         8.8986    3.9163    2.9098 C.3       1 RES1    0.0000
      9 C3         7.1331    4.9381    0.8783 C.2       1 RES1    0.0000
     10 C4         6.6607    4.8078    2.2402 C.2       1 RES1    0.0000
     11 C5         9.4860    2.8223    3.7881 C.ar      1 RES1    0.0000
     12 C6        10.4255    3.1887    4.7541 C.ar      1 RES1    0.0000
     13 C7        10.9083    2.1996    5.6218 C.ar      1 RES1    0.0000
     14 C8        10.4647    0.9291    5.5246 C.ar      1 RES1    0.0000
     15 C9         9.5618    0.5683    4.5657 C.ar      1 RES1    0.0000
     16 C10        9.0573    1.5177    3.6838 C.ar      1 RES1    0.0000
     17 C11        6.5008    5.7746   -0.1648 C.ar      1 RES1    0.0000
     18 C12        5.7279    6.8798    0.1695 C.ar      1 RES1    0.0000
     19 C13        5.1804    7.6755   -0.8250 C.ar      1 RES1    0.0000
     20 C14        5.3954    7.3668   -2.1477 C.ar      1 RES1    0.0000
     21 C15        6.1811    6.2928   -2.4950 C.ar      1 RES1    0.0000
     22 C16        6.7193    5.4839   -1.4982 C.ar      1 RES1    0.0000
     23 H1         9.5262    4.8766    3.0699 H         1 RES1    0.0000
     24 H2         9.5543    3.1916    1.1497 H         1 RES1    0.0000
     25 H3        10.7055    4.1592    4.8715 H         1 RES1    0.0000
     26 H4        11.5474    2.5667    6.2820 H         1 RES1    0.0000
     27 H5        10.8649    0.2411    6.1753 H         1 RES1    0.0000
     28 H6         9.1656   -0.3025    4.4685 H         1 RES1    0.0000
     29 H7         8.3776    1.2777    2.9750 H         1 RES1    0.0000
     30 H8         5.6019    7.1278    1.0905 H         1 RES1    0.0000
     31 H9         4.6055    8.3986   -0.5689 H         1 RES1    0.0000
     32 H10        5.0591    7.8803   -2.8684 H         1 RES1    0.0000
     33 H11        6.3001    6.0416   -3.4373 H         1 RES1    0.0000
     34 H12        7.2732    4.7685   -1.7424 H         1 RES1    0.0000
@<TRIPOS>BOND
     1    1    3 1
     2    2    3 1
     3    3   10 2
     4    4    2 1
     5    5    6 1
     6    6    9 2
     7    7    4 2
     8    8    5 1
     9    9   10 1
    10   10    7 1
    11   11    8 1
    12   12   11 ar
    13   13   12 ar
    14   14   13 ar
    15   15   14 ar
    16   16   11 ar
    17   17    9 1
    18   18   17 ar
    19   19   18 ar
    20   20   19 ar
    21   21   20 ar
    22   22   17 ar
    23   23    8 1
    24   24    5 1
    25   25   12 1
    26   26   13 1
    27   27   14 1
    28   28   15 1
    29   29   16 1
    30   30   18 1
    31   31   19 1
    32   32   20 1
    33   33   21 1
    34   34   22 1
    35    7    8 1
    36   15   16 ar
    37   21   22 ar
@<TRIPOS>SUBSTRUCTURE
     1 RES1 1

@<TRIPOS>CRYSIN
   7.8337    8.3097   12.0461  79.8870  84.0110  64.4940   2 1

