# MOL2 file generated by ConQuest
# Please check atom types

@<TRIPOS>MOLECULE
YAHJOH
    21    21     1
SMALL
NO_CHARGES
****
Generated from CSD

@<TRIPOS>ATOM
      1 C1         7.5788    1.2400    5.5840 C.ar      1 RES1    0.0000
      2 C2         6.4559    1.3895    4.7755 C.ar      1 RES1    0.0000
      3 C3         6.5202    1.3835    3.4009 C.ar      1 RES1    0.0000
      4 C4         7.7482    1.2686    2.7897 C.ar      1 RES1    0.0000
      5 C5         8.8829    1.1325    3.5608 C.ar      1 RES1    0.0000
      6 H1         9.7144    1.0523    3.1522 H         1 RES1    0.0000
      7 C6         8.7867    1.1146    4.9260 C.ar      1 RES1    0.0000
      8 H2         9.5627    1.0139    5.4281 H         1 RES1    0.0000
      9 C7         7.5128    1.1625    7.0787 C.3       1 RES1    0.0000
     10 H3         6.6028    1.2698    7.3648 H         1 RES1    0.0000
     11 H4         8.0517    1.8594    7.4599 H         1 RES1    0.0000
     12 H5         7.8407    0.3084    7.3695 H         1 RES1    0.0000
     13 N1         5.1365    1.5069    5.4055 N.pl3     1 RES1    0.0000
     14 O1         4.9603    2.4374    6.1618 O.2       1 RES1    0.0000
     15 O2         4.3062    0.6587    5.1147 O.2       1 RES1    0.0000
     16 N2         5.2593    1.4476    2.6330 N.pl3     1 RES1    0.0000
     17 O3         4.5849    2.4470    2.7632 O.2       1 RES1    0.0000
     18 O4         4.9686    0.4828    1.9710 O.2       1 RES1    0.0000
     19 N3         7.8779    1.3398    1.3270 N.pl3     1 RES1    0.0000
     20 O5         7.0313    1.9703    0.7165 O.2       1 RES1    0.0000
     21 O6         8.8350    0.7767    0.8335 O.2       1 RES1    0.0000
@<TRIPOS>BOND
     1    1    2 ar
     2    2    3 ar
     3    3    4 ar
     4    4    5 ar
     5    5    6 1
     6    7    1 ar
     7    8    7 1
     8    9    1 1
     9   10    9 1
    10   11    9 1
    11   12    9 1
    12   13    2 1
    13   14   13 2
    14   15   13 2
    15   16    3 1
    16   17   16 2
    17   18   16 2
    18   19    4 1
    19   20   19 2
    20   21   19 2
    21    5    7 ar
@<TRIPOS>SUBSTRUCTURE
     1 RES1 1

@<TRIPOS>CRYSIN
   7.7000    8.3290    8.6940  87.8900  65.1000  67.3300   2 1

