# MOL2 file generated by ConQuest
# Please check atom types

@<TRIPOS>MOLECULE
YAHJOH01
    21    21     1
SMALL
NO_CHARGES
****
Generated from CSD

@<TRIPOS>ATOM
      1 O1         8.5271    5.6131   10.0574 O.2       1 RES1    0.0000
      2 O2         7.8297    3.8690    8.9606 O.2       1 RES1    0.0000
      3 O3         8.0914    5.6500    6.6324 O.2       1 RES1    0.0000
      4 O4         8.4697    3.6706    5.8182 O.2       1 RES1    0.0000
      5 O5        10.5134    5.1651    4.5387 O.2       1 RES1    0.0000
      6 O6        12.3332    3.9762    4.6239 O.2       1 RES1    0.0000
      7 N1         8.6808    4.6963    9.2625 N.pl3     1 RES1    0.0000
      8 N2         8.7674    4.6467    6.4861 N.pl3     1 RES1    0.0000
      9 N3        11.3776    4.5344    5.1448 N.pl3     1 RES1    0.0000
     10 C1        11.1368    4.4157    9.4111 C.ar      1 RES1    0.0000
     11 C2         9.9993    4.5789    8.6154 C.ar      1 RES1    0.0000
     12 C3        10.0440    4.5815    7.2361 C.ar      1 RES1    0.0000
     13 C4        11.2678    4.4645    6.6076 C.ar      1 RES1    0.0000
     14 C5        12.4102    4.3297    7.3538 C.ar      1 RES1    0.0000
     15 H1        13.1771    4.3042    6.9737 H         1 RES1    0.0000
     16 C6        12.3402    4.2915    8.7292 C.ar      1 RES1    0.0000
     17 H2        13.0902    4.1888    9.2416 H         1 RES1    0.0000
     18 C7        11.0834    4.3205   10.9072 C.3       1 RES1    0.0000
     19 H3        11.8726    3.9287   11.1611 H         1 RES1    0.0000
     20 H4        11.0187    5.1310   11.2927 H         1 RES1    0.0000
     21 H5        10.3397    3.8499   11.1843 H         1 RES1    0.0000
@<TRIPOS>BOND
     1    1    7 2
     2    2    7 2
     3    3    8 2
     4    4    8 2
     5    5    9 2
     6    6    9 2
     7    7   11 1
     8    8   12 1
     9    9   13 1
    10   10   11 ar
    11   11   12 ar
    12   12   13 ar
    13   13   14 ar
    14   14   15 1
    15   16   10 ar
    16   17   16 1
    17   18   10 1
    18   19   18 1
    19   20   18 1
    20   21   18 1
    21   14   16 ar
@<TRIPOS>SUBSTRUCTURE
     1 RES1 1

@<TRIPOS>CRYSIN
   7.7097    8.2267    8.6514  87.1430  64.7300  66.4390   2 1

