# MOL2 file generated by ConQuest
# Please check atom types

@<TRIPOS>MOLECULE
YAHKID
    45    41     2
SMALL
NO_CHARGES
****
Generated from CSD

@<TRIPOS>ATOM
      1 N1         4.2390    3.8083    2.9342 N.pl3     1 RES1    0.0000
      2 O1         4.8547    4.5729    2.1790 O.2       1 RES1    0.0000
      3 O2         4.2440    3.9733    4.1525 O.2       1 RES1    0.0000
      4 O3         3.6474   -0.9012    4.6710 O.2       1 RES1    0.0000
      5 O4         2.4333   -1.8987    3.1618 O.2       1 RES1    0.0000
      6 N2         0.8836    1.5705    0.0523 N.pl3     1 RES1    0.0000
      7 O5        -0.0938    2.2328    0.2579 O.2       1 RES1    0.0000
      8 O6         1.0208    0.7711   -0.8897 O.2       1 RES1    0.0000
      9 N3         3.0108   -0.9158    3.6159 N.pl3     1 RES1    0.0000
     10 C1         2.4624    4.0171    0.6214 C.3       1 RES1    0.0000
     11 H1         2.6514    4.7817    1.2218 H         1 RES1    0.0000
     12 H2         1.5185    4.0862    0.3300 H         1 RES1    0.0000
     13 C2         2.6519    2.7237    1.3899 C.ar      1 RES1    0.0000
     14 C3         3.5343    2.5731    2.4694 C.ar      1 RES1    0.0000
     15 C4         3.6757    1.4188    3.2207 C.ar      1 RES1    0.0000
     16 H3         4.2795    1.3748    3.9527 H         1 RES1    0.0000
     17 C5         2.9058    0.3408    2.8611 C.ar      1 RES1    0.0000
     18 C6         1.9993    0.3910    1.8190 C.ar      1 RES1    0.0000
     19 H4         1.4666   -0.3616    1.5911 H         1 RES1    0.0000
     20 C7         1.8994    1.5786    1.1248 C.ar      1 RES1    0.0000
     21 N4         4.4526    3.6336    2.9092 Du        2 SUP2    0.0000
     22 O7         5.2576    3.9586    2.0393 Du        2 SUP2    0.0000
     23 O8         4.2994    4.0870    4.0365 Du        2 SUP2    0.0000
     24 O9        -0.2957    1.4081    0.3154 Du        2 SUP2    0.0000
     25 O10        1.3203    1.7153   -1.1002 Du        2 SUP2    0.0000
     26 N1B        1.6078    4.3170   -2.9342 N.pl3     1 RES1    0.0000
     27 O1B        0.9921    3.5524   -2.1790 O.2       1 RES1    0.0000
     28 O2B        1.6028    4.1520   -4.1525 O.2       1 RES1    0.0000
     29 O3B        2.1994    9.0265   -4.6710 O.2       1 RES1    0.0000
     30 O4B        3.4135   10.0240   -3.1618 O.2       1 RES1    0.0000
     31 N2B        4.9632    6.5548   -0.0523 N.pl3     1 RES1    0.0000
     32 O5B        5.9406    5.8925   -0.2579 O.2       1 RES1    0.0000
     33 O6B        4.8260    7.3542    0.8897 O.2       1 RES1    0.0000
     34 N3B        2.8360    9.0411   -3.6159 N.pl3     1 RES1    0.0000
     35 C1B        3.3844    4.1082   -0.6214 C.3       1 RES1    0.0000
     36 H1B        3.1954    3.3436   -1.2218 H         1 RES1    0.0000
     37 H2B        4.3283    4.0391   -0.3300 H         1 RES1    0.0000
     38 C2B        3.1949    5.4016   -1.3899 C.ar      1 RES1    0.0000
     39 C3B        2.3125    5.5522   -2.4694 C.ar      1 RES1    0.0000
     40 C4B        2.1711    6.7065   -3.2207 C.ar      1 RES1    0.0000
     41 H3B        1.5673    6.7505   -3.9527 H         1 RES1    0.0000
     42 C5B        2.9410    7.7845   -2.8611 C.ar      1 RES1    0.0000
     43 C6B        3.8475    7.7343   -1.8190 C.ar      1 RES1    0.0000
     44 H4B        4.3802    8.4869   -1.5911 H         1 RES1    0.0000
     45 C7B        3.9474    6.5467   -1.1248 C.ar      1 RES1    0.0000
@<TRIPOS>BOND
     1    1    2 2
     2    3    1 2
     3    4    9 2
     4    5    9 2
     5    6    7 2
     6    8    6 2
     7    9   17 1
     8   10   11 1
     9   12   10 1
    10   13   10 1
    11   14    1 1
    12   15   14 ar
    13   16   15 1
    14   17   15 ar
    15   18   17 ar
    16   19   18 1
    17   20    6 1
    18   26   27 2
    19   28   26 2
    20   29   34 2
    21   30   34 2
    22   31   32 2
    23   33   31 2
    24   34   42 1
    25   35   10 1
    26   36   35 1
    27   37   35 1
    28   38   35 1
    29   39   26 1
    30   40   39 ar
    31   41   40 1
    32   42   40 ar
    33   43   42 ar
    34   44   43 1
    35   45   31 1
    36   13   14 ar
    37   13   20 ar
    38   18   20 ar
    39   38   39 ar
    40   38   45 ar
    41   43   45 ar
@<TRIPOS>SUBSTRUCTURE
     1 RES1 1
     2 SUP2 21

@<TRIPOS>CRYSIN
   5.8468    8.1253   17.9770  90.0000  97.1540  90.0000  14 1

