# MOL2 file generated by ConQuest
# Please check atom types

@<TRIPOS>MOLECULE
YAHPII
    43    47     1
SMALL
NO_CHARGES
****
Generated from CSD

@<TRIPOS>ATOM
      1 O1         4.4509    3.8459    2.5108 O.2       1 RES1    0.0000
      2 O2         0.7629    0.7374    5.7964 O.2       1 RES1    0.0000
      3 O3        -0.5211    0.0620    4.1777 O.2       1 RES1    0.0000
      4 N1         3.0893    8.1325    3.9689 N.3       1 RES1    0.0000
      5 N2         0.2207    0.8967    4.7011 N.pl3     1 RES1    0.0000
      6 C1         2.0579    7.7851    4.8655 C.ar      1 RES1    0.0000
      7 C2         1.7540    6.4548    5.1055 C.ar      1 RES1    0.0000
      8 C3         2.5332    5.2966    4.4749 C.3       1 RES1    0.0000
      9 H1         3.0474    4.8480    5.2059 H         1 RES1    0.0000
     10 C4         3.5299    5.8332    3.4868 C.2       1 RES1    0.0000
     11 C5         3.7603    7.1634    3.3146 C.2       1 RES1    0.0000
     12 C6         4.8495    7.4585    2.3275 C.3       1 RES1    0.0000
     13 H2         5.6047    7.9323    2.7593 H         1 RES1    0.0000
     14 H3         4.5110    8.0066    1.5754 H         1 RES1    0.0000
     15 C7         5.2718    6.0608    1.8490 C.3       1 RES1    0.0000
     16 H4         5.1208    5.9650    0.8758 H         1 RES1    0.0000
     17 H5         6.2300    5.9018    2.0399 H         1 RES1    0.0000
     18 C8         4.3968    5.0777    2.6295 C.2       1 RES1    0.0000
     19 C9         0.7094    6.1525    6.0111 C.ar      1 RES1    0.0000
     20 H6         0.4838    5.2428    6.1650 H         1 RES1    0.0000
     21 C10        0.0144    7.1259    6.6713 C.ar      1 RES1    0.0000
     22 H7        -0.6832    6.8840    7.2690 H         1 RES1    0.0000
     23 C11        0.3274    8.4944    6.4704 C.ar      1 RES1    0.0000
     24 C12        1.3547    8.8363    5.5471 C.ar      1 RES1    0.0000
     25 C13        1.6521   10.2125    5.3522 C.ar      1 RES1    0.0000
     26 H8         2.3193   10.4649    4.7251 H         1 RES1    0.0000
     27 C14        0.9842   11.1795    6.0624 C.ar      1 RES1    0.0000
     28 H9         1.1974   12.0952    5.9217 H         1 RES1    0.0000
     29 C15       -0.0083   10.8346    6.9923 C.ar      1 RES1    0.0000
     30 H10       -0.4509   11.5132    7.4879 H         1 RES1    0.0000
     31 C16       -0.3391    9.5219    7.1863 C.ar      1 RES1    0.0000
     32 H11       -1.0224    9.2956    7.8065 H         1 RES1    0.0000
     33 C17        1.6008    4.2524    3.8637 C.ar      1 RES1    0.0000
     34 C18        1.3372    3.0747    4.5403 C.ar      1 RES1    0.0000
     35 H12        1.7350    2.9082    5.3866 H         1 RES1    0.0000
     36 C19        0.4834    2.1385    3.9678 C.ar      1 RES1    0.0000
     37 C20       -0.1100    2.3375    2.7317 C.ar      1 RES1    0.0000
     38 H13       -0.6857    1.6825    2.3539 H         1 RES1    0.0000
     39 C21        0.1606    3.5179    2.0654 C.ar      1 RES1    0.0000
     40 H14       -0.2314    3.6800    1.2152 H         1 RES1    0.0000
     41 C22        1.0003    4.4685    2.6270 C.ar      1 RES1    0.0000
     42 H15        1.1675    5.2786    2.1604 H         1 RES1    0.0000
     43 H16        3.3052    8.9668    3.7903 H         1 RES1    0.0000
@<TRIPOS>BOND
     1    1   18 2
     2    2    5 2
     3    3    5 2
     4    4    6 1
     5    5   36 1
     6    6    7 ar
     7    7    8 1
     8    8    9 1
     9   10    8 1
    10   11    4 1
    11   12   11 1
    12   13   12 1
    13   14   12 1
    14   15   12 1
    15   16   15 1
    16   17   15 1
    17   18   10 1
    18   19    7 ar
    19   20   19 1
    20   21   19 ar
    21   22   21 1
    22   23   21 ar
    23   24    6 ar
    24   25   24 ar
    25   26   25 1
    26   27   25 ar
    27   28   27 1
    28   29   27 ar
    29   30   29 1
    30   31   23 ar
    31   32   31 1
    32   33    8 1
    33   34   33 ar
    34   35   34 1
    35   36   34 ar
    36   37   36 ar
    37   38   37 1
    38   39   37 ar
    39   40   39 1
    40   41   33 ar
    41   42   41 1
    42   43    4 1
    43   10   11 2
    44   15   18 1
    45   23   24 ar
    46   29   31 ar
    47   39   41 ar
@<TRIPOS>SUBSTRUCTURE
     1 RES1 1

@<TRIPOS>CRYSIN
  10.2560   13.7570   11.9830  90.0000 104.8270  90.0000  14 1

