# MOL2 file generated by ConQuest
# Please check atom types

@<TRIPOS>MOLECULE
YAHQAB
    14    14     1
SMALL
NO_CHARGES
****
Generated from CSD

@<TRIPOS>ATOM
      1 O1         6.4733    7.8804    3.2103 O.2       1 RES1    0.0000
      2 O2         5.8657    5.9669    2.3751 O.2       1 RES1    0.0000
      3 N1         2.8836    8.1431    0.5097 N.2       1 RES1    0.0000
      4 N2         4.2830    9.1188    1.9625 N.3       1 RES1    0.0000
      5 N3         5.7299    7.1878    2.5181 N.pl3     1 RES1    0.0000
      6 C1         3.2220    9.2627    1.1469 C.2       1 RES1    0.0000
      7 H1         2.7589   10.0843    1.0363 H         1 RES1    0.0000
      8 C2         3.7841    7.2166    0.9378 C.2       1 RES1    0.0000
      9 H2         3.8070    6.3067    0.6653 H         1 RES1    0.0000
     10 C3         4.6510    7.7985    1.8226 C.2       1 RES1    0.0000
     11 C4         4.8839   10.1933    2.7570 C.3       1 RES1    0.0000
     12 H3         5.7712   10.4060    2.4005 H         1 RES1    0.0000
     13 H4         4.9674    9.9020    3.6896 H         1 RES1    0.0000
     14 H5         4.3143   10.9898    2.7124 H         1 RES1    0.0000
@<TRIPOS>BOND
     1    1    5 2
     2    2    5 2
     3    3    6 2
     4    4    6 1
     5    5   10 1
     6    6    7 1
     7    8    3 1
     8    9    8 1
     9   10    4 1
    10   11    4 1
    11   12   11 1
    12   13   11 1
    13   14   11 1
    14    8   10 2
@<TRIPOS>SUBSTRUCTURE
     1 RES1 1

@<TRIPOS>CRYSIN
   5.3230   12.6640   15.9930  90.0000  90.0000  90.0000  61 1

