# MOL2 file generated by ConQuest
# Please check atom types

@<TRIPOS>MOLECULE
YAHQUV
    27    28     1
SMALL
NO_CHARGES
****
Generated from CSD

@<TRIPOS>ATOM
      1 O1         4.0356    4.9616    8.3061 O.3       1 RES1    0.0000
      2 O2         5.9835    7.1032   13.7016 O.2       1 RES1    0.0000
      3 O3         5.1956    8.9083   12.8999 O.2       1 RES1    0.0000
      4 N1         4.9363    4.9738   10.4299 N.ar      1 RES1    0.0000
      5 N2         5.4512    7.7324   12.8053 N.pl3     1 RES1    0.0000
      6 C1         4.3727    5.6376    9.4324 C.ar      1 RES1    0.0000
      7 C2         4.1375    6.9958    9.4385 C.ar      1 RES1    0.0000
      8 H1         3.7465    7.4150    8.7068 H         1 RES1    0.0000
      9 C3         4.4914    7.7120   10.5412 C.ar      1 RES1    0.0000
     10 H2         4.3531    8.6306   10.5836 H         1 RES1    0.0000
     11 C4         5.0609    7.0281   11.5907 C.ar      1 RES1    0.0000
     12 C5         5.2771    5.6903   11.5039 C.ar      1 RES1    0.0000
     13 H3         5.6783    5.2567   12.2219 H         1 RES1    0.0000
     14 C6         3.9183    3.5644    8.3251 C.ar      1 RES1    0.0000
     15 C7         4.5184    2.8673    7.3106 C.ar      1 RES1    0.0000
     16 H4         5.0558    3.3045    6.6905 H         1 RES1    0.0000
     17 C8         4.3108    1.4995    7.2266 C.ar      1 RES1    0.0000
     18 H5         4.7033    1.0264    6.5282 H         1 RES1    0.0000
     19 C9         3.5419    0.8204    8.1458 C.ar      1 RES1    0.0000
     20 C10        2.9768    1.5582    9.1648 C.ar      1 RES1    0.0000
     21 H6         2.4707    1.1210    9.8100 H         1 RES1    0.0000
     22 C11        3.1406    2.9248    9.2533 C.ar      1 RES1    0.0000
     23 H7         2.7285    3.4063    9.9343 H         1 RES1    0.0000
     24 C12        3.3198   -0.6659    8.0578 C.3       1 RES1    0.0000
     25 H8         3.4698   -1.0636    8.9198 H         1 RES1    0.0000
     26 H9         3.9300   -1.0432    7.4209 H         1 RES1    0.0000
     27 H10        2.4176   -0.8384    7.7785 H         1 RES1    0.0000
@<TRIPOS>BOND
     1    1    6 1
     2    2    5 2
     3    3    5 2
     4    4    6 ar
     5    5   11 1
     6    6    7 ar
     7    7    8 1
     8    9    7 ar
     9   10    9 1
    10   11    9 ar
    11   12    4 ar
    12   13   12 1
    13   14    1 1
    14   15   14 ar
    15   16   15 1
    16   17   15 ar
    17   18   17 1
    18   19   17 ar
    19   20   19 ar
    20   21   20 1
    21   22   14 ar
    22   23   22 1
    23   24   19 1
    24   25   24 1
    25   26   24 1
    26   27   24 1
    27   11   12 ar
    28   20   22 ar
@<TRIPOS>SUBSTRUCTURE
     1 RES1 1

@<TRIPOS>CRYSIN
   7.2818   11.9770   25.3620  90.0000  90.0000  90.0000  61 1

