# MOL2 file generated by ConQuest
# Please check atom types

@<TRIPOS>MOLECULE
YAHQUU
    86    92     2
SMALL
NO_CHARGES
****
Generated from CSD

@<TRIPOS>ATOM
      1 O1         5.6846    2.9504    3.8008 O.3       1 RES1    0.0000
      2 O2         7.6304    3.7050    2.7292 O.3       1 RES1    0.0000
      3 O3         8.5666    1.1520    5.1284 O.3       1 RES1    0.0000
      4 O4         7.9527   -0.9996    4.4530 O.3       1 RES1    0.0000
      5 O5         6.8946   -0.4990    8.2452 O.3       1 RES1    0.0000
      6 H1         7.3869   -0.0025    8.8280 H         1 RES1    0.0000
      7 N1         6.4522    0.5694    7.3614 N.3       1 RES1    0.0000
      8 C1         7.9896   -0.0860    5.5171 C.3       1 RES1    0.0000
      9 H2         8.5282   -0.4695    6.2400 H         1 RES1    0.0000
     10 C2         9.2345   -1.2659    3.8608 C.3       1 RES1    0.0000
     11 H3         9.1310   -1.8951    3.1428 H         1 RES1    0.0000
     12 H4         9.8236   -1.6321    4.5233 H         1 RES1    0.0000
     13 H5         9.6046   -0.4490    3.5182 H         1 RES1    0.0000
     14 C3         6.5520    0.0320    5.9938 C.3       1 RES1    0.0000
     15 H6         6.1390   -0.8562    5.9724 H         1 RES1    0.0000
     16 C4         4.9972    0.7612    7.5438 C.3       1 RES1    0.0000
     17 H7         4.8144    1.3576    8.2863 H         1 RES1    0.0000
     18 H8         4.5503   -0.0852    7.7005 H         1 RES1    0.0000
     19 C5         4.5509    1.3798    6.2209 C.3       1 RES1    0.0000
     20 H9         4.4684    2.3425    6.3020 H         1 RES1    0.0000
     21 H10        3.6978    1.0135    5.9397 H         1 RES1    0.0000
     22 C6         5.6637    1.0094    5.2136 C.3       1 RES1    0.0000
     23 H11        5.2722    0.5555    4.4385 H         1 RES1    0.0000
     24 C7         6.4569    2.2073    4.7587 C.3       1 RES1    0.0000
     25 H12        6.6372    2.7800    5.5334 H         1 RES1    0.0000
     26 C8         6.3961    4.0835    3.3305 C.3       1 RES1    0.0000
     27 H13        6.5657    4.7005    4.0730 H         1 RES1    0.0000
     28 C9         8.4845    3.0299    3.6454 C.3       1 RES1    0.0000
     29 H14        8.7001    3.6116    4.3912 H         1 RES1    0.0000
     30 H15        9.3116    2.7775    3.2049 H         1 RES1    0.0000
     31 C10        7.7669    1.8050    4.1366 C.3       1 RES1    0.0000
     32 H16        7.6038    1.1946    3.3876 H         1 RES1    0.0000
     33 C11        5.5833    4.7652    2.2857 C.ar      1 RES1    0.0000
     34 C12        5.5119    6.1532    2.2437 C.ar      1 RES1    0.0000
     35 H17        5.9576    6.6612    2.8834 H         1 RES1    0.0000
     36 C13        4.7832    6.7759    1.2549 C.ar      1 RES1    0.0000
     37 H18        4.7512    7.7050    1.2222 H         1 RES1    0.0000
     38 C14        4.1019    6.0409    0.3197 C.ar      1 RES1    0.0000
     39 H19        3.6012    6.4670   -0.3378 H         1 RES1    0.0000
     40 C15        4.1673    4.6874    0.3611 C.ar      1 RES1    0.0000
     41 H20        3.7050    4.1810   -0.2676 H         1 RES1    0.0000
     42 C16        4.9201    4.0573    1.3371 C.ar      1 RES1    0.0000
     43 H21        4.9728    3.1290    1.3430 H         1 RES1    0.0000
     44 O6         1.0211    3.0151    3.2016 O.3       2 RES2    0.0000
     45 O7         0.1373    1.0004    3.9834 O.3       2 RES2    0.0000
     46 O8         0.1287    3.4314    6.7077 O.3       2 RES2    0.0000
     47 O9        -1.4067    5.1798    6.4247 O.3       2 RES2    0.0000
     48 O10        2.3089    6.5956    7.4056 O.3       2 RES2    0.0000
     49 H22        2.6366    6.1442    8.1035 H         2 RES2    0.0000
     50 N2         2.1990    5.6091    6.3479 N.3       2 RES2    0.0000
     51 C17       -0.0991    4.8275    6.7932 C.3       2 RES2    0.0000
     52 H23        0.0577    5.1167    7.7168 H         2 RES2    0.0000
     53 C18       -2.4103    4.6325    7.2925 C.3       2 RES2    0.0000
     54 H24       -3.2790    4.9078    6.9906 H         2 RES2    0.0000
     55 H25       -2.2669    4.9496    8.1867 H         2 RES2    0.0000
     56 H26       -2.3555    3.6747    7.2795 H         2 RES2    0.0000
     57 C19        0.8091    5.6296    5.8647 C.3       2 RES2    0.0000
     58 H27        0.4917    6.5555    5.8157 H         2 RES2    0.0000
     59 C20        3.0327    6.0696    5.2022 C.3       2 RES2    0.0000
     60 H28        3.8855    5.6083    5.1956 H         2 RES2    0.0000
     61 H29        3.1966    7.0241    5.2658 H         2 RES2    0.0000
     62 C21        2.2472    5.7501    3.9424 C.3       2 RES2    0.0000
     63 H30        2.7502    5.1544    3.3631 H         2 RES2    0.0000
     64 H31        2.0355    6.5596    3.4513 H         2 RES2    0.0000
     65 C22        0.9674    5.0676    4.4519 C.3       2 RES2    0.0000
     66 H32        0.2004    5.3166    3.8951 H         2 RES2    0.0000
     67 C23        1.1045    3.5633    4.5214 C.3       2 RES2    0.0000
     68 H33        1.9755    3.3363    4.9101 H         2 RES2    0.0000
     69 C24        1.1675    1.6026    3.2293 C.3       2 RES2    0.0000
     70 H34        2.0356    1.3732    3.6226 H         2 RES2    0.0000
     71 C25        0.1383    1.4478    5.3507 C.3       2 RES2    0.0000
     72 H35        0.9639    1.1823    5.7847 H         2 RES2    0.0000
     73 H36       -0.6029    1.0479    5.8304 H         2 RES2    0.0000
     74 C26        0.0101    2.9512    5.3624 C.3       2 RES2    0.0000
     75 H37       -0.8638    3.2077    4.9998 H         2 RES2    0.0000
     76 C27        1.1254    1.1331    1.8154 C.ar      2 RES2    0.0000
     77 C28       -0.0257    0.6268    1.2222 C.ar      2 RES2    0.0000
     78 H38       -0.7961    0.5088    1.7297 H         2 RES2    0.0000
     79 C29       -0.0269    0.2991   -0.1216 C.ar      2 RES2    0.0000
     80 H39       -0.8057   -0.0221   -0.5173 H         2 RES2    0.0000
     81 C30        1.0986    0.4416   -0.8676 C.ar      2 RES2    0.0000
     82 H40        1.0922    0.2040   -1.7672 H         2 RES2    0.0000
     83 C31        2.2290    0.9291   -0.3029 C.ar      2 RES2    0.0000
     84 H41        2.9966    1.0348   -0.8175 H         2 RES2    0.0000
     85 C32        2.2464    1.2708    1.0395 C.ar      2 RES2    0.0000
     86 H42        3.0299    1.5977    1.4197 H         2 RES2    0.0000
@<TRIPOS>BOND
     1    1   24 1
     2    2   26 1
     3    3    8 1
     4    4    8 1
     5    5    6 1
     6    7    5 1
     7    8    9 1
     8   10    4 1
     9   11   10 1
    10   12   10 1
    11   13   10 1
    12   14    7 1
    13   15   14 1
    14   16    7 1
    15   17   16 1
    16   18   16 1
    17   19   16 1
    18   20   19 1
    19   21   19 1
    20   22   14 1
    21   23   22 1
    22   24   22 1
    23   25   24 1
    24   26    1 1
    25   27   26 1
    26   28    2 1
    27   29   28 1
    28   30   28 1
    29   31    3 1
    30   32   31 1
    31   33   26 1
    32   34   33 ar
    33   35   34 1
    34   36   34 ar
    35   37   36 1
    36   38   36 ar
    37   39   38 1
    38   40   38 ar
    39   41   40 1
    40   42   33 ar
    41   43   42 1
    42   44   67 1
    43   45   69 1
    44   46   51 1
    45   47   51 1
    46   48   49 1
    47   50   48 1
    48   51   52 1
    49   53   47 1
    50   54   53 1
    51   55   53 1
    52   56   53 1
    53   57   50 1
    54   58   57 1
    55   59   50 1
    56   60   59 1
    57   61   59 1
    58   62   59 1
    59   63   62 1
    60   64   62 1
    61   65   57 1
    62   66   65 1
    63   67   65 1
    64   68   67 1
    65   69   44 1
    66   70   69 1
    67   71   45 1
    68   72   71 1
    69   73   71 1
    70   74   46 1
    71   75   74 1
    72   76   69 1
    73   77   76 ar
    74   78   77 1
    75   79   77 ar
    76   80   79 1
    77   81   79 ar
    78   82   81 1
    79   83   81 ar
    80   84   83 1
    81   85   76 ar
    82   86   85 1
    83    8   14 1
    84   19   22 1
    85   24   31 1
    86   28   31 1
    87   40   42 ar
    88   51   57 1
    89   62   65 1
    90   67   74 1
    91   71   74 1
    92   83   85 ar
@<TRIPOS>SUBSTRUCTURE
     1 RES1 1
     2 RES2 44

@<TRIPOS>CRYSIN
  11.8679    8.1933   16.4170  90.0000  96.2960  90.0000   4 1

