# MOL2 file generated by ConQuest
# Please check atom types

@<TRIPOS>MOLECULE
YAHXOU
    50    53     1
SMALL
NO_CHARGES
****
Generated from CSD

@<TRIPOS>ATOM
      1 N1         2.2293    4.9668    2.9675 N.3       1 RES1    0.0000
      2 N2         2.1277    5.4839    4.2156 N.2       1 RES1    0.0000
      3 N3         1.3032    4.7433    4.9077 N.2       1 RES1    0.0000
      4 C1         0.8743    3.7027    4.0975 C.ar      1 RES1    0.0000
      5 C2        -0.0083    2.6494    4.3391 C.ar      1 RES1    0.0000
      6 C3        -0.2610    1.7811    3.3355 C.ar      1 RES1    0.0000
      7 C4         0.3626    1.8960    2.0933 C.ar      1 RES1    0.0000
      8 C5         1.2597    2.9111    1.8327 C.ar      1 RES1    0.0000
      9 C6         1.4979    3.8176    2.8648 C.ar      1 RES1    0.0000
     10 C7         3.1512    5.5860    1.9811 C.3       1 RES1    0.0000
     11 C8         3.0373    7.0862    1.9425 C.3       1 RES1    0.0000
     12 C9         3.9136    7.6353    0.7763 C.3       1 RES1    0.0000
     13 C10        1.5621    7.5331    1.7277 C.3       1 RES1    0.0000
     14 O1         4.5062    5.2796    2.3776 O.3       1 RES1    0.0000
     15 N4         4.7569    3.9070    2.0422 N.2       1 RES1    0.0000
     16 C11        5.8549    3.5304    2.6001 C.2       1 RES1    0.0000
     17 C12        6.3148    2.1323    2.2126 C.ar      1 RES1    0.0000
     18 C13        7.1063    1.4045    3.1165 C.ar      1 RES1    0.0000
     19 C14        7.5123    0.0958    2.7823 C.ar      1 RES1    0.0000
     20 C15        7.1477   -0.4469    1.5407 C.ar      1 RES1    0.0000
     21 C16        6.3811    0.2745    0.6606 C.ar      1 RES1    0.0000
     22 C17        5.9896    1.5768    0.9911 C.ar      1 RES1    0.0000
     23 C18        6.6919    4.3220    3.5557 C.ar      1 RES1    0.0000
     24 C19        8.0220    4.5518    3.2310 C.ar      1 RES1    0.0000
     25 C20        8.8466    5.2093    4.1480 C.ar      1 RES1    0.0000
     26 C21        8.3473    5.6052    5.3623 C.ar      1 RES1    0.0000
     27 C22        7.0048    5.3881    5.6911 C.ar      1 RES1    0.0000
     28 C23        6.1553    4.7433    4.7569 C.ar      1 RES1    0.0000
     29 H1        -0.4226    2.5408    5.1955 H         1 RES1    0.0000
     30 H2        -0.8847    1.0661    3.4785 H         1 RES1    0.0000
     31 H3         0.1637    1.2576    1.4060 H         1 RES1    0.0000
     32 H4         1.6968    2.9877    0.9852 H         1 RES1    0.0000
     33 H5         2.9212    5.2413    1.1193 H         1 RES1    0.0000
     34 H6         3.3418    7.4310    2.7823 H         1 RES1    0.0000
     35 H7         3.8411    8.5929    0.7490 H         1 RES1    0.0000
     36 H8         3.6070    7.2714   -0.0534 H         1 RES1    0.0000
     37 H9         4.8273    7.3927    0.9170 H         1 RES1    0.0000
     38 H10        1.5207    8.4907    1.7063 H         1 RES1    0.0000
     39 H11        1.0214    7.2075    2.4452 H         1 RES1    0.0000
     40 H12        1.2389    7.1820    0.8980 H         1 RES1    0.0000
     41 H13        7.3652    1.7939    3.9521 H         1 RES1    0.0000
     42 H14        8.0344   -0.4213    3.3990 H         1 RES1    0.0000
     43 H15        7.4398   -1.3343    1.3063 H         1 RES1    0.0000
     44 H16        6.1118   -0.1149   -0.1727 H         1 RES1    0.0000
     45 H17        5.4903    2.1003    0.3591 H         1 RES1    0.0000
     46 H18        8.3721    4.2645    2.3882 H         1 RES1    0.0000
     47 H19        9.7623    5.3881    3.9266 H         1 RES1    0.0000
     48 H20        8.9253    6.0265    5.9949 H         1 RES1    0.0000
     49 H21        6.6629    5.6754    6.5392 H         1 RES1    0.0000
     50 H22        5.2292    4.6092    4.9534 H         1 RES1    0.0000
@<TRIPOS>BOND
     1    1    2 1
     2    2    3 2
     3    3    4 1
     4    4    5 ar
     5    5    6 ar
     6    6    7 ar
     7    7    8 ar
     8    8    9 ar
     9    9    1 1
    10   10    1 1
    11   11   10 1
    12   12   11 1
    13   13   11 1
    14   14   10 1
    15   15   14 1
    16   16   15 2
    17   17   16 1
    18   18   17 ar
    19   19   18 ar
    20   20   19 ar
    21   21   20 ar
    22   22   17 ar
    23   23   16 1
    24   24   23 ar
    25   25   24 ar
    26   26   25 ar
    27   27   26 ar
    28   28   23 ar
    29   29    5 1
    30   30    6 1
    31   31    7 1
    32   32    8 1
    33   33   10 1
    34   34   11 1
    35   35   12 1
    36   36   12 1
    37   37   12 1
    38   38   13 1
    39   39   13 1
    40   40   13 1
    41   41   18 1
    42   42   19 1
    43   43   20 1
    44   44   21 1
    45   45   22 1
    46   46   24 1
    47   47   25 1
    48   48   26 1
    49   49   27 1
    50   50   28 1
    51    4    9 ar
    52   21   22 ar
    53   27   28 ar
@<TRIPOS>SUBSTRUCTURE
     1 RES1 1

@<TRIPOS>CRYSIN
  20.7180   63.8400    5.9350  90.0000  90.0000  90.0000  43 1

