# MOL2 file generated by ConQuest
# Please check atom types

@<TRIPOS>MOLECULE
YAHYIP01
    28    32     1
SMALL
NO_CHARGES
****
Generated from CSD

@<TRIPOS>ATOM
      1 N1         6.1432   -0.4544   -1.3000 N.2       1 RES1    0.0000
      2 O1         7.2699   -0.9069   -0.5077 O.3       1 RES1    0.0000
      3 C1         8.4405   -0.1249   -0.8383 C.3       1 RES1    0.0000
      4 N2         7.9847    0.5947   -2.0276 N.pl3     1 RES1    0.0000
      5 C2         8.6499    1.8168   -2.5115 C.3       1 RES1    0.0000
      6 N3         7.9436    2.2188   -3.7416 N.3       1 RES1    0.0000
      7 C3         6.5203    2.4514   -3.4418 C.3       1 RES1    0.0000
      8 C4         5.8487    1.1264   -3.1351 C.3       1 RES1    0.0000
      9 C5         6.6361    0.4074   -2.1060 C.2       1 RES1    0.0000
     10 C6         8.8853    0.7505    0.3152 C.ar      1 RES1    0.0000
     11 C7         8.0766    1.7615    0.7974 C.ar      1 RES1    0.0000
     12 C8         8.5540    2.6066    1.8027 C.ar      1 RES1    0.0000
     13 C9         9.8167    2.4323    2.2968 C.ar      1 RES1    0.0000
     14 C10       10.6183    1.4237    1.8419 C.ar      1 RES1    0.0000
     15 C11       10.1458    0.5733    0.8485 C.ar      1 RES1    0.0000
     16 C12       10.1070    1.5319   -2.7841 C.ar      1 RES1    0.0000
     17 C13       10.4756    0.6274   -3.7553 C.ar      1 RES1    0.0000
     18 C14       11.8219    0.3961   -4.0092 C.ar      1 RES1    0.0000
     19 C15       12.7800    1.0645   -3.2629 C.ar      1 RES1    0.0000
     20 C16       12.4157    1.9482   -2.3070 C.ar      1 RES1    0.0000
     21 C17       11.0901    2.1927   -2.0463 C.ar      1 RES1    0.0000
     22 C18        8.5349    3.4356   -4.3278 C.3       1 RES1    0.0000
     23 C19        8.0697    3.6271   -5.7352 C.ar      1 RES1    0.0000
     24 C20        8.2714    2.6250   -6.6791 C.ar      1 RES1    0.0000
     25 C21        7.8560    2.7915   -7.9876 C.ar      1 RES1    0.0000
     26 C22        7.2227    3.9542   -8.3795 C.ar      1 RES1    0.0000
     27 C23        7.0389    4.9604   -7.4509 C.ar      1 RES1    0.0000
     28 C24        7.4667    4.7921   -6.1441 C.ar      1 RES1    0.0000
@<TRIPOS>BOND
     1    1    2 1
     2    2    3 1
     3    3    4 1
     4    4    5 1
     5    5    6 1
     6    6    7 1
     7    7    8 1
     8    8    9 1
     9    9    1 2
    10   10    3 1
    11   11   10 ar
    12   12   11 ar
    13   13   12 ar
    14   14   13 ar
    15   15   10 ar
    16   16    5 1
    17   17   16 ar
    18   18   17 ar
    19   19   18 ar
    20   20   19 ar
    21   21   16 ar
    22   22    6 1
    23   23   22 1
    24   24   23 ar
    25   25   24 ar
    26   26   25 ar
    27   27   26 ar
    28   28   23 ar
    29    4    9 1
    30   14   15 ar
    31   20   21 ar
    32   27   28 ar
@<TRIPOS>SUBSTRUCTURE
     1 RES1 1

@<TRIPOS>CRYSIN
  19.4950    5.9470   18.3740  90.0000 111.9800  90.0000   9 1

