# MOL2 file generated by ConQuest
# Please check atom types

@<TRIPOS>MOLECULE
YAHYIP
   102   110     2
SMALL
NO_CHARGES
****
Generated from CSD

@<TRIPOS>ATOM
      1 N1        -3.2043    6.1442    1.3000 N.2       1 RES1    0.0000
      2 O1        -3.6544    7.2675    0.4992 O.3       1 RES1    0.0000
      3 C1        -2.8807    8.4413    0.8400 C.3       1 RES1    0.0000
      4 N2        -2.1554    7.9851    2.0259 N.pl3     1 RES1    0.0000
      5 C2        -0.9398    8.6554    2.5081 C.3       1 RES1    0.0000
      6 N3        -0.5322    7.9414    3.7434 N.3       1 RES1    0.0000
      7 C3        -0.3011    6.5179    3.4384 C.3       1 RES1    0.0000
      8 C4        -1.6267    5.8537    3.1402 C.3       1 RES1    0.0000
      9 C5        -2.3469    6.6343    2.1111 C.2       1 RES1    0.0000
     10 C6        -2.0027    8.8870   -0.3186 C.ar      1 RES1    0.0000
     11 C7        -0.9896    8.0741   -0.7991 C.ar      1 RES1    0.0000
     12 C8        -0.1491    8.5520   -1.7959 C.ar      1 RES1    0.0000
     13 C9        -0.3217    9.8248   -2.3036 C.ar      1 RES1    0.0000
     14 C10       -1.3306   10.6201   -1.8521 C.ar      1 RES1    0.0000
     15 C11       -2.1777   10.1457   -0.8468 C.ar      1 RES1    0.0000
     16 C12       -1.2228   10.1106    2.7807 C.ar      1 RES1    0.0000
     17 C13       -2.1284   10.4740    3.7536 C.ar      1 RES1    0.0000
     18 C14       -2.3595   11.8242    4.0075 C.ar      1 RES1    0.0000
     19 C15       -1.6897   12.7810    3.2578 C.ar      1 RES1    0.0000
     20 C16       -0.8014   12.4102    2.3053 C.ar      1 RES1    0.0000
     21 C17       -0.5649   11.0872    2.0463 C.ar      1 RES1    0.0000
     22 C18        0.6798    8.5424    4.3244 C.3       1 RES1    0.0000
     23 C19        0.8710    8.0738    5.7403 C.ar      1 RES1    0.0000
     24 C20       -0.1296    8.2741    6.6808 C.ar      1 RES1    0.0000
     25 C21        0.0402    7.8615    7.9843 C.ar      1 RES1    0.0000
     26 C22        1.1981    7.2267    8.3847 C.ar      1 RES1    0.0000
     27 C23        2.2062    7.0458    7.4510 C.ar      1 RES1    0.0000
     28 C24        2.0396    7.4731    6.1526 C.ar      1 RES1    0.0000
     29 N4         0.6810   -0.1668    9.8193 N.2       2 RES2    0.0000
     30 O2         1.1353    0.9660    9.0373 O.3       2 RES2    0.0000
     31 C25        0.3453    2.1298    9.3559 C.3       2 RES2    0.0000
     32 N5        -0.3683    1.6781   10.5503 N.pl3     2 RES2    0.0000
     33 C26       -1.5975    2.3347   11.0325 C.3       2 RES2    0.0000
     34 N6        -1.9939    1.6341   12.2576 N.3       2 RES2    0.0000
     35 C27       -2.2272    0.2142   11.9662 C.3       2 RES2    0.0000
     36 C28       -0.9038   -0.4575   11.6663 C.3       2 RES2    0.0000
     37 C29       -0.1854    0.3306   10.6219 C.2       2 RES2    0.0000
     38 C30       -0.5275    2.5738    8.2075 C.ar      2 RES2    0.0000
     39 C31       -0.3489    3.8391    7.6691 C.ar      2 RES2    0.0000
     40 C32       -1.2021    4.3095    6.6876 C.ar      2 RES2    0.0000
     41 C33       -2.2098    3.4990    6.2276 C.ar      2 RES2    0.0000
     42 C34       -2.3859    2.2461    6.7098 C.ar      2 RES2    0.0000
     43 C35       -1.5372    1.7695    7.7219 C.ar      2 RES2    0.0000
     44 C36       -1.3113    3.7958   11.3051 C.ar      2 RES2    0.0000
     45 C37       -0.4069    4.1680   12.2780 C.ar      2 RES2    0.0000
     46 C38       -0.1751    5.5106   12.5302 C.ar      2 RES2    0.0000
     47 C39       -0.8434    6.4682   11.7873 C.ar      2 RES2    0.0000
     48 C40       -1.7216    6.1125   10.8263 C.ar      2 RES2    0.0000
     49 C41       -1.9746    4.7830   10.5656 C.ar      2 RES2    0.0000
     50 C42       -3.2157    2.2188   12.8488 C.3       2 RES2    0.0000
     51 C43       -3.4069    1.7583   14.2511 C.ar      2 RES2    0.0000
     52 C44       -4.5683    1.1510   14.6566 C.ar      2 RES2    0.0000
     53 C45       -4.7390    0.7220   15.9703 C.ar      2 RES2    0.0000
     54 C46       -3.7342    0.9115   16.8938 C.ar      2 RES2    0.0000
     55 C47       -2.5675    1.5421   16.5121 C.ar      2 RES2    0.0000
     56 C48       -2.4039    1.9607   15.1967 C.ar      2 RES2    0.0000
     57 H1        -3.3814    9.2342    1.0223 H         1 RES1    0.0000
     58 H2        -0.2412    8.6354    1.8572 H         1 RES1    0.0000
     59 H3         0.2775    6.4380    2.6921 H         1 RES1    0.0000
     60 H4         0.1079    6.0977    4.1915 H         1 RES1    0.0000
     61 H5        -2.1457    5.8191    3.9359 H         1 RES1    0.0000
     62 H6        -1.4759    4.9724    2.8284 H         1 RES1    0.0000
     63 H7        -0.8790    7.2030   -0.4600 H         1 RES1    0.0000
     64 H8         0.5511    8.0010   -2.1298 H         1 RES1    0.0000
     65 H9         0.2762   10.1594   -2.9647 H         1 RES1    0.0000
     66 H10       -1.4495   11.4952   -2.2150 H         1 RES1    0.0000
     67 H11       -2.8915   10.7041   -0.5282 H         1 RES1    0.0000
     68 H12       -2.5767    9.8098    4.2596 H         1 RES1    0.0000
     69 H13       -2.9768   12.1067    4.6856 H         1 RES1    0.0000
     70 H14       -1.8566   13.6993    3.3907 H         1 RES1    0.0000
     71 H15       -0.3275   13.0987    1.8061 H         1 RES1    0.0000
     72 H16        0.0488   10.8339    1.3631 H         1 RES1    0.0000
     73 H17        0.5992    9.4990    4.3108 H         1 RES1    0.0000
     74 H18        1.4357    8.2955    3.8166 H         1 RES1    0.0000
     75 H19       -0.9291    8.7141    6.4235 H         1 RES1    0.0000
     76 H20       -0.6704    8.0055    8.6045 H         1 RES1    0.0000
     77 H21        1.2986    6.9354    9.2860 H         1 RES1    0.0000
     78 H22        3.0208    6.6370    7.7014 H         1 RES1    0.0000
     79 H23        2.7413    7.3359    5.5205 H         1 RES1    0.0000
     80 H24        0.8404    2.9280    9.5246 H         2 RES2    0.0000
     81 H25       -2.2964    2.3068   10.3765 H         2 RES2    0.0000
     82 H26       -2.6312   -0.2046   12.7278 H         2 RES2    0.0000
     83 H27       -2.8095    0.1260   11.2284 H         2 RES2    0.0000
     84 H28       -1.0542   -1.3396   11.3647 H         2 RES2    0.0000
     85 H29       -0.3770   -0.4901   12.4552 H         2 RES2    0.0000
     86 H30        0.3670    4.3979    7.9741 H         2 RES2    0.0000
     87 H31       -1.0932    5.1832    6.3213 H         2 RES2    0.0000
     88 H32       -2.7959    3.8503    5.5546 H         2 RES2    0.0000
     89 H33       -3.0801    1.7045    6.3724 H         2 RES2    0.0000
     90 H34       -1.6527    0.9037    8.0593 H         2 RES2    0.0000
     91 H35        0.0424    3.5075   12.7960 H         2 RES2    0.0000
     92 H36        0.4481    5.7878   13.2049 H         2 RES2    0.0000
     93 H37       -0.6796    7.3873   11.9270 H         2 RES2    0.0000
     94 H38       -2.1835    6.7993   10.3254 H         2 RES2    0.0000
     95 H39       -2.5922    4.5345    9.8824 H         2 RES2    0.0000
     96 H40       -3.9736    1.9669   12.3359 H         2 RES2    0.0000
     97 H41       -3.1420    3.1675   12.8471 H         2 RES2    0.0000
     98 H42       -5.2638    1.0102   14.0228 H         2 RES2    0.0000
     99 H43       -5.5523    0.3153   16.2378 H         2 RES2    0.0000
    100 H44       -3.8431    0.6195   17.7883 H         2 RES2    0.0000
    101 H45       -1.8514    1.6769   17.1238 H         2 RES2    0.0000
    102 H46       -1.6046    2.4050   14.9428 H         2 RES2    0.0000
@<TRIPOS>BOND
     1    1    2 1
     2    2    3 1
     3    3    4 1
     4    4    5 1
     5    5    6 1
     6    6    7 1
     7    7    8 1
     8    8    9 1
     9    9    1 2
    10   10    3 1
    11   11   10 ar
    12   12   11 ar
    13   13   12 ar
    14   14   13 ar
    15   15   10 ar
    16   16    5 1
    17   17   16 ar
    18   18   17 ar
    19   19   18 ar
    20   20   19 ar
    21   21   16 ar
    22   22    6 1
    23   23   22 1
    24   24   23 ar
    25   25   24 ar
    26   26   25 ar
    27   27   26 ar
    28   28   23 ar
    29   29   30 1
    30   30   31 1
    31   31   32 1
    32   32   33 1
    33   33   34 1
    34   34   35 1
    35   35   36 1
    36   36   37 1
    37   37   29 2
    38   38   31 1
    39   39   38 ar
    40   40   39 ar
    41   41   40 ar
    42   42   41 ar
    43   43   38 ar
    44   44   33 1
    45   45   44 ar
    46   46   45 ar
    47   47   46 ar
    48   48   47 ar
    49   49   44 ar
    50   50   34 1
    51   51   50 1
    52   52   51 ar
    53   53   52 ar
    54   54   53 ar
    55   55   54 ar
    56   56   51 ar
    57   57    3 1
    58   58    5 1
    59   59    7 1
    60   60    7 1
    61   61    8 1
    62   62    8 1
    63   63   11 1
    64   64   12 1
    65   65   13 1
    66   66   14 1
    67   67   15 1
    68   68   17 1
    69   69   18 1
    70   70   19 1
    71   71   20 1
    72   72   21 1
    73   73   22 1
    74   74   22 1
    75   75   24 1
    76   76   25 1
    77   77   26 1
    78   78   27 1
    79   79   28 1
    80   80   31 1
    81   81   33 1
    82   82   35 1
    83   83   35 1
    84   84   36 1
    85   85   36 1
    86   86   39 1
    87   87   40 1
    88   88   41 1
    89   89   42 1
    90   90   43 1
    91   91   45 1
    92   92   46 1
    93   93   47 1
    94   94   48 1
    95   95   49 1
    96   96   50 1
    97   97   50 1
    98   98   52 1
    99   99   53 1
   100  100   54 1
   101  101   55 1
   102  102   56 1
   103    4    9 1
   104   14   15 ar
   105   20   21 ar
   106   27   28 ar
   107   32   37 1
   108   42   43 ar
   109   48   49 ar
   110   55   56 ar
@<TRIPOS>SUBSTRUCTURE
     1 RES1 1
     2 RES2 29

@<TRIPOS>CRYSIN
   5.9470   10.1930   17.5330  96.1400  99.7700 107.0000   1 1

