# MOL2 file generated by ConQuest
# Please check atom types

@<TRIPOS>MOLECULE
YAJGUL
    66    73     1
SMALL
NO_CHARGES
****
Generated from CSD

@<TRIPOS>ATOM
      1 O1        10.4372    1.0099    3.1525 O.3       1 RES1    0.0000
      2 O2        12.6000    1.5269    3.6330 O.3       1 RES1    0.0000
      3 O3         9.5742   -3.6702    2.4958 O.2       1 RES1    0.0000
      4 O4        11.1917   -5.0578    2.8050 O.2       1 RES1    0.0000
      5 O5        14.7770   -3.8564    5.7192 O.2       1 RES1    0.0000
      6 O6        15.0358   -1.8116    6.3415 O.2       1 RES1    0.0000
      7 N1        11.4744    0.7694    4.1075 N.3       1 RES1    0.0000
      8 N2        10.6791   -3.9582    2.9093 N.pl3     1 RES1    0.0000
      9 N3        14.4478   -2.6805    5.7311 N.pl3     1 RES1    0.0000
     10 C1        11.8263   -0.6262    4.0691 C.ar      1 RES1    0.0000
     11 C2        11.0689   -1.5877    3.4439 C.ar      1 RES1    0.0000
     12 C3        11.4699   -2.9086    3.5749 C.ar      1 RES1    0.0000
     13 C4        12.5636   -3.3010    4.2975 C.ar      1 RES1    0.0000
     14 C5        13.2714   -2.3049    4.9247 C.ar      1 RES1    0.0000
     15 C6        12.9325   -0.9751    4.8341 C.ar      1 RES1    0.0000
     16 C7        10.7752    2.2587    2.4633 C.3       1 RES1    0.0000
     17 C8         9.7660    2.2466    1.2986 C.3       1 RES1    0.0000
     18 C9         9.7785    3.5581    0.5080 C.3       1 RES1    0.0000
     19 C10        9.4533    4.7297    1.4227 C.3       1 RES1    0.0000
     20 C11       10.4847    4.7752    2.5510 C.3       1 RES1    0.0000
     21 C12       10.4485    3.4703    3.3632 C.3       1 RES1    0.0000
     22 C13        9.0389    3.3121    3.9362 C.3       1 RES1    0.0000
     23 C14        8.0130    3.2488    2.8069 C.3       1 RES1    0.0000
     24 C15        8.3431    2.0825    1.8785 C.3       1 RES1    0.0000
     25 C16        8.0556    4.5544    2.0124 C.3       1 RES1    0.0000
     26 C17       12.3158    1.9818    2.2694 C.3       1 RES1    0.0000
     27 C18       13.3641    3.1056    2.1119 C.3       1 RES1    0.0000
     28 C19       14.7565    2.4981    2.4112 C.3       1 RES1    0.0000
     29 C20       15.0820    1.3859    1.4148 C.3       1 RES1    0.0000
     30 C21       14.0191    0.2885    1.5152 C.3       1 RES1    0.0000
     31 C22       12.6363    0.8853    1.2267 C.3       1 RES1    0.0000
     32 C23       12.6646    1.4771   -0.1920 C.3       1 RES1    0.0000
     33 C24       13.7344    2.5617   -0.3091 C.3       1 RES1    0.0000
     34 C25       13.4201    3.6684    0.6931 C.3       1 RES1    0.0000
     35 C26       15.1044    1.9511    0.0010 C.3       1 RES1    0.0000
     36 H1        10.3319   -1.3652    2.9536 H         1 RES1    0.0000
     37 H2        12.7939   -4.1589    4.4009 H         1 RES1    0.0000
     38 H3        13.3872   -0.2988    5.2870 H         1 RES1    0.0000
     39 H4         9.9887    1.5189    0.7187 H         1 RES1    0.0000
     40 H5        10.6349    3.7021    0.0492 H         1 RES1    0.0000
     41 H6         9.1214    3.4412   -0.2166 H         1 RES1    0.0000
     42 H7         9.4835    5.5527    0.9058 H         1 RES1    0.0000
     43 H8        10.2685    5.5299    3.1801 H         1 RES1    0.0000
     44 H9        11.3776    4.9377    2.1660 H         1 RES1    0.0000
     45 H10       11.1198    3.5227    4.0859 H         1 RES1    0.0000
     46 H11        8.8571    4.0932    4.5191 H         1 RES1    0.0000
     47 H12        9.0124    2.4755    4.4994 H         1 RES1    0.0000
     48 H13        7.1367    3.0912    3.2096 H         1 RES1    0.0000
     49 H14        8.2630    1.2337    2.3432 H         1 RES1    0.0000
     50 H15        7.7183    2.0756    1.1322 H         1 RES1    0.0000
     51 H16        7.8287    5.2775    2.5598 H         1 RES1    0.0000
     52 H17        7.3884    4.5704    1.2898 H         1 RES1    0.0000
     53 H18       13.1766    3.8190    2.7370 H         1 RES1    0.0000
     54 H19       14.7888    2.1718    3.3475 H         1 RES1    0.0000
     55 H20       15.4025    3.1805    2.3137 H         1 RES1    0.0000
     56 H21       15.9547    1.0125    1.6147 H         1 RES1    0.0000
     57 H22       14.1767   -0.4377    0.8566 H         1 RES1    0.0000
     58 H23       14.0553   -0.1395    2.3826 H         1 RES1    0.0000
     59 H24       11.9481    0.1649    1.2898 H         1 RES1    0.0000
     60 H25       11.7742    1.8492   -0.4135 H         1 RES1    0.0000
     61 H26       12.8456    0.7609   -0.8073 H         1 RES1    0.0000
     62 H27       13.7398    2.9171   -1.2405 H         1 RES1    0.0000
     63 H28       14.1292    4.3035    0.6793 H         1 RES1    0.0000
     64 H29       12.5897    4.1313    0.4332 H         1 RES1    0.0000
     65 H30       15.8088    2.7029   -0.0492 H         1 RES1    0.0000
     66 H31       15.3096    1.2568   -0.6793 H         1 RES1    0.0000
@<TRIPOS>BOND
     1    1    7 1
     2    2    7 1
     3    3    8 2
     4    4    8 2
     5    5    9 2
     6    6    9 2
     7    7   10 1
     8    8   12 1
     9    9   14 1
    10   10   11 ar
    11   11   12 ar
    12   12   13 ar
    13   13   14 ar
    14   14   15 ar
    15   15   10 ar
    16   16    1 1
    17   17   16 1
    18   18   17 1
    19   19   18 1
    20   20   19 1
    21   21   16 1
    22   22   21 1
    23   23   22 1
    24   24   17 1
    25   25   19 1
    26   26    2 1
    27   27   26 1
    28   28   27 1
    29   29   28 1
    30   30   29 1
    31   31   26 1
    32   32   31 1
    33   33   32 1
    34   34   27 1
    35   35   29 1
    36   36   11 1
    37   37   13 1
    38   38   15 1
    39   39   17 1
    40   40   18 1
    41   41   18 1
    42   42   19 1
    43   43   20 1
    44   44   20 1
    45   45   21 1
    46   46   22 1
    47   47   22 1
    48   48   23 1
    49   49   24 1
    50   50   24 1
    51   51   25 1
    52   52   25 1
    53   53   27 1
    54   54   28 1
    55   55   28 1
    56   56   29 1
    57   57   30 1
    58   58   30 1
    59   59   31 1
    60   60   32 1
    61   61   32 1
    62   62   33 1
    63   63   34 1
    64   64   34 1
    65   65   35 1
    66   66   35 1
    67   16   26 1
    68   20   21 1
    69   23   24 1
    70   23   25 1
    71   30   31 1
    72   33   34 1
    73   33   35 1
@<TRIPOS>SUBSTRUCTURE
     1 RES1 1

@<TRIPOS>CRYSIN
  10.6190   11.5230   10.5650 110.5400  92.6000  68.1200   2 1

