# MOL2 file generated by ConQuest
# Please check atom types

@<TRIPOS>MOLECULE
YAJGAT
    69    71     1
SMALL
NO_CHARGES
****
Generated from CSD

@<TRIPOS>ATOM
      1 N1         1.8602    2.1042    6.7045 N.pl3     1 RES1    0.0000
      2 C1         2.6075    3.2460    7.0193 C.2       1 RES1    0.0000
      3 C2         2.7511    3.6201    8.3145 C.2       1 RES1    0.0000
      4 C3         2.2622    2.7211    9.4282 C.3       1 RES1    0.0000
      5 H1         1.9123    3.2952   10.1399 H         1 RES1    0.0000
      6 C4         1.1259    1.8397    8.9455 C.2       1 RES1    0.0000
      7 C5         1.0287    1.4993    7.6474 C.2       1 RES1    0.0000
      8 C6         3.2124    3.9822    5.8609 C.3       1 RES1    0.0000
      9 H2         2.9816    3.5357    5.0426 H         1 RES1    0.0000
     10 H3         4.1677    4.0000    5.9560 H         1 RES1    0.0000
     11 H4         2.8764    4.8810    5.8408 H         1 RES1    0.0000
     12 C7        -0.0001    0.5346    7.0971 C.3       1 RES1    0.0000
     13 H5         0.1233    0.4407    6.1505 H         1 RES1    0.0000
     14 H6        -0.8810    0.8726    7.2728 H         1 RES1    0.0000
     15 H7         0.1055   -0.3205    7.5207 H         1 RES1    0.0000
     16 C8         2.0317    1.4638    5.4114 C.ar      1 RES1    0.0000
     17 C9         2.9087    0.3919    5.3077 C.ar      1 RES1    0.0000
     18 H8         3.3663    0.0919    6.0583 H         1 RES1    0.0000
     19 C10        3.0990   -0.2226    4.1003 C.ar      1 RES1    0.0000
     20 H9         3.6781   -0.9467    4.0341 H         1 RES1    0.0000
     21 C11        2.4303    0.2346    2.9780 C.ar      1 RES1    0.0000
     22 C12        1.5519    1.2751    3.0832 C.ar      1 RES1    0.0000
     23 H10        1.0939    1.5779    2.3326 H         1 RES1    0.0000
     24 C13        1.3482    1.8707    4.2992 C.ar      1 RES1    0.0000
     25 H11        0.7342    2.5659    4.3698 H         1 RES1    0.0000
     26 O1         2.7290   -0.4241    1.8143 O.3       1 RES1    0.0000
     27 C14        2.2232    0.0968    0.6080 C.3       1 RES1    0.0000
     28 H12        2.5029   -0.4590   -0.1225 H         1 RES1    0.0000
     29 H13        2.5573    0.9874    0.4798 H         1 RES1    0.0000
     30 H14        1.2647    0.1169    0.6455 H         1 RES1    0.0000
     31 C15        3.4967    4.8240    8.7021 C.2       1 RES1    0.0000
     32 O2         4.0518    5.6304    8.0150 O.2       1 RES1    0.0000
     33 O3         3.5012    4.9342   10.0447 O.3       1 RES1    0.0000
     34 C16        4.2443    6.0199   10.6658 C.3       1 RES1    0.0000
     35 H15        4.9607    6.3051   10.0607 H         1 RES1    0.0000
     36 C17        4.8510    5.4628   11.9135 C.3       1 RES1    0.0000
     37 H16        5.4403    4.7398   11.6873 H         1 RES1    0.0000
     38 H17        4.1556    5.1404   12.4912 H         1 RES1    0.0000
     39 H18        5.3470    6.1513   12.3630 H         1 RES1    0.0000
     40 C18        3.3226    7.1693   10.9064 C.3       1 RES1    0.0000
     41 H19        2.9884    7.4927   10.0664 H         1 RES1    0.0000
     42 H20        3.7994    7.8729   11.3530 H         1 RES1    0.0000
     43 H21        2.5887    6.8815   11.4539 H         1 RES1    0.0000
     44 C19        0.1839    1.3325    9.9512 C.2       1 RES1    0.0000
     45 O4        -0.6685    0.5103    9.8106 O.2       1 RES1    0.0000
     46 O5         0.3640    1.9255   11.1306 O.3       1 RES1    0.0000
     47 C20       -0.5247    1.5692   12.2448 C.3       1 RES1    0.0000
     48 H22       -1.0502    0.7760   12.0100 H         1 RES1    0.0000
     49 C21        0.3559    1.2616   13.4291 C.3       1 RES1    0.0000
     50 H23        0.8984    0.4933   13.2332 H         1 RES1    0.0000
     51 H24       -0.1917    1.0805   14.1970 H         1 RES1    0.0000
     52 H25        0.9225    2.0145   13.6107 H         1 RES1    0.0000
     53 C22       -1.4301    2.7202   12.4667 C.3       1 RES1    0.0000
     54 H26       -1.9926    2.8380   11.6974 H         1 RES1    0.0000
     55 H27       -0.9095    3.5142   12.6065 H         1 RES1    0.0000
     56 H28       -1.9757    2.5542   13.2389 H         1 RES1    0.0000
     57 C23        3.4058    1.8983   10.0175 C.ar      1 RES1    0.0000
     58 C24        3.5460    1.7725   11.3890 C.ar      1 RES1    0.0000
     59 H29        2.9444    2.1931   11.9624 H         1 RES1    0.0000
     60 C25        4.5767    1.0225   11.8991 C.ar      1 RES1    0.0000
     61 C26        5.4695    0.3843   11.1081 C.ar      1 RES1    0.0000
     62 H30        6.1385   -0.1413   11.4841 H         1 RES1    0.0000
     63 C27        5.3747    0.5208    9.7365 C.ar      1 RES1    0.0000
     64 H31        5.9993    0.1166    9.1789 H         1 RES1    0.0000
     65 C28        4.3377    1.2680    9.2049 C.ar      1 RES1    0.0000
     66 H32        4.2646    1.3489    8.2814 H         1 RES1    0.0000
     67 N2         4.7021    0.9186   13.3787 N.pl3     1 RES1    0.0000
     68 O6         5.6638    0.2892   13.8037 O.2       1 RES1    0.0000
     69 O7         3.8747    1.4233   14.0630 O.2       1 RES1    0.0000
@<TRIPOS>BOND
     1    1    2 1
     2    2    3 2
     3    3    4 1
     4    4    5 1
     5    6    4 1
     6    7    1 1
     7    8    2 1
     8    9    8 1
     9   10    8 1
    10   11    8 1
    11   12    7 1
    12   13   12 1
    13   14   12 1
    14   15   12 1
    15   16    1 1
    16   17   16 ar
    17   18   17 1
    18   19   17 ar
    19   20   19 1
    20   21   19 ar
    21   22   21 ar
    22   23   22 1
    23   24   16 ar
    24   25   24 1
    25   26   21 1
    26   27   26 1
    27   28   27 1
    28   29   27 1
    29   30   27 1
    30   31    3 1
    31   32   31 2
    32   33   31 1
    33   34   33 1
    34   35   34 1
    35   36   34 1
    36   37   36 1
    37   38   36 1
    38   39   36 1
    39   40   34 1
    40   41   40 1
    41   42   40 1
    42   43   40 1
    43   44    6 1
    44   45   44 2
    45   46   44 1
    46   47   46 1
    47   48   47 1
    48   49   47 1
    49   50   49 1
    50   51   49 1
    51   52   49 1
    52   53   47 1
    53   54   53 1
    54   55   53 1
    55   56   53 1
    56   57    4 1
    57   58   57 ar
    58   59   58 1
    59   60   58 ar
    60   61   60 ar
    61   62   61 1
    62   63   61 ar
    63   64   63 1
    64   65   57 ar
    65   66   65 1
    66   67   60 1
    67   68   67 2
    68   69   67 2
    69    6    7 2
    70   22   24 ar
    71   63   65 ar
@<TRIPOS>SUBSTRUCTURE
     1 RES1 1

@<TRIPOS>CRYSIN
   9.5043   10.7570   15.1279  90.5010 105.8730 114.6010   2 1

