# MOL2 file generated by ConQuest
# Please check atom types

@<TRIPOS>MOLECULE
YAJQEF
    18    18     1
SMALL
NO_CHARGES
****
Generated from CSD

@<TRIPOS>ATOM
      1 C1         4.4888    2.4931    5.5780 C.3       1 RES1    0.0000
      2 C2         5.6597    2.3418    6.4901 C.ar      1 RES1    0.0000
      3 C3         6.8522    1.8365    6.0164 C.ar      1 RES1    0.0000
      4 C4         7.9560    1.7459    6.8563 C.ar      1 RES1    0.0000
      5 N1         9.0109    2.1377    9.0305 N.pl3     1 RES1    0.0000
      6 O1        10.0077    1.5664    8.6348 O.2       1 RES1    0.0000
      7 O2         8.9307    2.6860   10.1190 O.2       1 RES1    0.0000
      8 C5         7.8311    2.1770    8.1508 C.ar      1 RES1    0.0000
      9 C6         6.6450    2.6616    8.6554 C.ar      1 RES1    0.0000
     10 C7         5.5667    2.7499    7.8169 C.ar      1 RES1    0.0000
     11 O3         4.1189    3.8747    5.5192 O.3       1 RES1    0.0000
     12 C8         4.3397    4.5329    4.3600 C.2       1 RES1    0.0000
     13 O4         4.7875    4.0157    3.3862 O.2       1 RES1    0.0000
     14 C9         3.9549    5.9620    4.5013 C.3       1 RES1    0.0000
     15 O5         3.3884    1.8045    6.1679 O.3       1 RES1    0.0000
     16 C10        2.3239    1.5619    5.3750 C.2       1 RES1    0.0000
     17 O6         2.2819    1.8966    4.2321 O.2       1 RES1    0.0000
     18 C11        1.2466    0.8429    6.1120 C.3       1 RES1    0.0000
@<TRIPOS>BOND
     1    1    2 1
     2    2    3 ar
     3    3    4 ar
     4    4    8 ar
     5    5    6 2
     6    7    5 2
     7    8    5 1
     8    9    8 ar
     9   10    2 ar
    10   11    1 1
    11   12   11 1
    12   13   12 2
    13   14   12 1
    14   15    1 1
    15   16   15 1
    16   17   16 2
    17   18   16 1
    18    9   10 ar
@<TRIPOS>SUBSTRUCTURE
     1 RES1 1

@<TRIPOS>CRYSIN
  10.7850    7.4200   15.4070  90.0000 107.3000  90.0000 231 1

