# MOL2 file generated by ConQuest
# Please check atom types

@<TRIPOS>MOLECULE
YAJROR
    46    49     1
SMALL
NO_CHARGES
****
Generated from CSD

@<TRIPOS>ATOM
      1 N1         2.5690   13.1922    3.4010 N.pl3     1 RES1    0.0000
      2 N2         1.2676   10.1379   -0.1264 N.pl3     1 RES1    0.0000
      3 N3         2.3676    7.9384    1.4578 N.3       1 RES1    0.0000
      4 N4         2.9611    6.9483    2.2161 N.2       1 RES1    0.0000
      5 O1         1.9819   14.0708    2.7892 O.2       1 RES1    0.0000
      6 O2         3.1701   13.3865    4.4438 O.2       1 RES1    0.0000
      7 O3         1.1394    9.0025   -0.5716 O.2       1 RES1    0.0000
      8 O4         0.8949   11.1093   -0.7311 O.2       1 RES1    0.0000
      9 C1         2.5507   11.8412    2.8610 C.ar      1 RES1    0.0000
     10 C2         1.9330   11.6068    1.6632 C.ar      1 RES1    0.0000
     11 H1         1.5469   12.3049    1.1863 H         1 RES1    0.0000
     12 C3         1.8916   10.3147    1.1705 C.ar      1 RES1    0.0000
     13 C4         2.4437    9.2280    1.8844 C.ar      1 RES1    0.0000
     14 C5         3.0755    9.5313    3.1037 C.ar      1 RES1    0.0000
     15 H2         3.4628    8.8470    3.5993 H         1 RES1    0.0000
     16 C6         3.1303   10.8060    3.5748 C.ar      1 RES1    0.0000
     17 H3         3.5610   10.9839    4.3791 H         1 RES1    0.0000
     18 C7         2.7945    5.7251    1.8485 C.2       1 RES1    0.0000
     19 C8         1.9721    5.3165    0.6664 C.3       1 RES1    0.0000
     20 H4         1.3681    5.9005    0.2686 H         1 RES1    0.0000
     21 C9         2.1716    3.8965    0.1451 C.3       1 RES1    0.0000
     22 H5         1.5939    3.7662   -0.6233 H         1 RES1    0.0000
     23 H6         1.8887    3.2736    0.8316 H         1 RES1    0.0000
     24 C10        3.6002    3.5569   -0.2600 C.3       1 RES1    0.0000
     25 H7         3.5768    2.8788   -0.9537 H         1 RES1    0.0000
     26 H8         4.0177    4.3477   -0.6348 H         1 RES1    0.0000
     27 C11        4.4410    3.0568    0.8776 C.2       1 RES1    0.0000
     28 C12        4.9405    1.8298    0.8747 C.2       1 RES1    0.0000
     29 H9         4.7721    1.2608    0.1580 H         1 RES1    0.0000
     30 H10        5.4593    1.5365    1.5885 H         1 RES1    0.0000
     31 C13        4.7443    4.0281    1.9820 C.3       1 RES1    0.0000
     32 C14        5.5992    5.2212    1.6086 C.2       1 RES1    0.0000
     33 H11        5.7511    5.5333    0.7469 H         1 RES1    0.0000
     34 C15        6.0875    5.7376    2.7102 C.2       1 RES1    0.0000
     35 H12        6.6318    6.4896    2.7691 H         1 RES1    0.0000
     36 C16        4.0990    5.1924    4.0201 C.3       1 RES1    0.0000
     37 H13        3.9420    6.1437    4.1307 H         1 RES1    0.0000
     38 H14        3.7294    4.7199    4.7827 H         1 RES1    0.0000
     39 C17        3.4878    4.6761    2.6944 C.3       1 RES1    0.0000
     40 H15        2.8447    3.9654    2.9027 H         1 RES1    0.0000
     41 C18        5.6064    4.8916    3.8592 C.3       1 RES1    0.0000
     42 H16        6.1424    4.9393    4.6779 H         1 RES1    0.0000
     43 C19        5.5368    3.5318    3.1914 C.3       1 RES1    0.0000
     44 H17        5.0506    2.8788    3.7185 H         1 RES1    0.0000
     45 H18        6.4109    3.1859    2.9515 H         1 RES1    0.0000
     46 H19        1.9727    7.7955    0.7612 H         1 RES1    0.0000
@<TRIPOS>BOND
     1    1    5 2
     2    2    7 2
     3    3    4 1
     4    4   18 2
     5    6    1 2
     6    8    2 2
     7    9    1 1
     8   10    9 ar
     9   11   10 1
    10   12    2 1
    11   13    3 1
    12   14   13 ar
    13   15   14 1
    14   16    9 ar
    15   17   16 1
    16   18   19 1
    17   19   20 1
    18   21   19 1
    19   22   21 1
    20   23   21 1
    21   24   21 1
    22   25   24 1
    23   26   24 1
    24   27   24 1
    25   28   27 2
    26   29   28 1
    27   30   28 1
    28   31   27 1
    29   32   31 1
    30   33   32 1
    31   34   32 2
    32   35   34 1
    33   36   37 1
    34   38   36 1
    35   39   18 1
    36   40   39 1
    37   41   34 1
    38   42   41 1
    39   43   31 1
    40   44   43 1
    41   45   43 1
    42   46    3 1
    43   10   12 ar
    44   12   13 ar
    45   14   16 ar
    46   31   39 1
    47   36   39 1
    48   36   41 1
    49   41   43 1
@<TRIPOS>SUBSTRUCTURE
     1 RES1 1

@<TRIPOS>CRYSIN
   9.7950   12.5330   15.0100  90.0000 106.8900  90.0000 231 1

