# MOL2 file generated by ConQuest
# Please check atom types

@<TRIPOS>MOLECULE
YAJSAE
    50    53     1
SMALL
NO_CHARGES
****
Generated from CSD

@<TRIPOS>ATOM
      1 O1         5.4069    5.9627   -3.7021 O.2       1 RES1    0.0000
      2 O2         6.4590    7.7276   -3.1583 O.2       1 RES1    0.0000
      3 O3         7.8235    8.4762    1.2629 O.2       1 RES1    0.0000
      4 O4         7.5312    7.0673    2.8388 O.2       1 RES1    0.0000
      5 N1         5.4142    3.8208    2.8705 N.2       1 RES1    0.0000
      6 N2         6.0474    4.9837    2.4484 N.pl3     1 RES1    0.0000
      7 H1         6.4543    5.4714    3.0276 H         1 RES1    0.0000
      8 N3         5.9583    6.6608   -2.8846 N.pl3     1 RES1    0.0000
      9 N4         7.3834    7.4209    1.6716 N.pl3     1 RES1    0.0000
     10 C1         7.9008    6.4804    8.4295 C.2       1 RES1    0.0000
     11 H2         7.6113    7.0204    9.1284 H         1 RES1    0.0000
     12 C2         9.1580    6.1623    8.1938 C.2       1 RES1    0.0000
     13 H3         9.8714    6.4576    8.7128 H         1 RES1    0.0000
     14 C3         9.3064    5.2850    7.0149 C.3       1 RES1    0.0000
     15 H4         9.4709    4.3662    7.2791 H         1 RES1    0.0000
     16 H5        10.0301    5.5851    6.4440 H         1 RES1    0.0000
     17 C4         7.9548    5.4227    6.3129 C.3       1 RES1    0.0000
     18 H6         8.0288    6.1713    5.6852 H         1 RES1    0.0000
     19 C5         7.3892    4.2567    5.5545 C.3       1 RES1    0.0000
     20 H7         7.3980    3.4600    6.1085 H         1 RES1    0.0000
     21 H8         7.9172    4.0854    4.7587 H         1 RES1    0.0000
     22 C6         5.9473    4.6217    5.1690 C.3       1 RES1    0.0000
     23 H9         5.9815    5.5027    4.7396 H         1 RES1    0.0000
     24 C7         5.3913    3.6590    4.1474 C.2       1 RES1    0.0000
     25 C8         4.8161    2.3818    4.6641 C.3       1 RES1    0.0000
     26 H10        5.5353    1.8016    4.9570 H         1 RES1    0.0000
     27 H11        4.3414    1.9314    3.9465 H         1 RES1    0.0000
     28 C9         3.8649    2.6260    5.8191 C.3       1 RES1    0.0000
     29 H12        3.5563    1.7757    6.1695 H         1 RES1    0.0000
     30 H13        3.0924    3.1215    5.5060 H         1 RES1    0.0000
     31 C10        4.5566    3.4077    6.9191 C.3       1 RES1    0.0000
     32 H14        5.3107    2.8966    7.2524 H         1 RES1    0.0000
     33 H15        3.9390    3.5466    7.6528 H         1 RES1    0.0000
     34 C11        5.0484    4.7619    6.4036 C.3       1 RES1    0.0000
     35 H16        4.2557    5.2664    6.1237 H         1 RES1    0.0000
     36 C12        5.7334    5.5790    7.4903 C.2       1 RES1    0.0000
     37 C13        4.8606    6.0288    8.6339 C.3       1 RES1    0.0000
     38 H17        5.3774    6.5658    9.2390 H         1 RES1    0.0000
     39 H18        4.5213    5.2603    9.0979 H         1 RES1    0.0000
     40 H19        4.1276    6.5460    8.2934 H         1 RES1    0.0000
     41 C14        7.0265    5.8623    7.4316 C.2       1 RES1    0.0000
     42 C15        6.0419    5.3668    1.1645 C.ar      1 RES1    0.0000
     43 C16        5.4077    4.6055    0.1674 C.ar      1 RES1    0.0000
     44 H20        4.9920    3.8070    0.4004 H         1 RES1    0.0000
     45 C17        5.3864    5.0078   -1.1306 C.ar      1 RES1    0.0000
     46 H21        4.9684    4.4828   -1.7731 H         1 RES1    0.0000
     47 C18        5.9931    6.2086   -1.4932 C.ar      1 RES1    0.0000
     48 C19        6.6285    6.9795   -0.5735 C.ar      1 RES1    0.0000
     49 H22        7.0363    7.7763   -0.8274 H         1 RES1    0.0000
     50 C20        6.6634    6.5652    0.7451 C.ar      1 RES1    0.0000
@<TRIPOS>BOND
     1    1    8 2
     2    2    8 2
     3    3    9 2
     4    4    9 2
     5    5    6 1
     6    6    7 1
     7    8   47 1
     8    9   50 1
     9   10   11 1
    10   12   10 2
    11   13   12 1
    12   14   12 1
    13   15   14 1
    14   16   14 1
    15   17   14 1
    16   18   17 1
    17   19   17 1
    18   20   19 1
    19   21   19 1
    20   22   19 1
    21   23   22 1
    22   24    5 2
    23   25   24 1
    24   26   25 1
    25   27   25 1
    26   28   25 1
    27   29   28 1
    28   30   28 1
    29   31   28 1
    30   32   31 1
    31   33   31 1
    32   34   22 1
    33   35   34 1
    34   36   34 1
    35   37   36 1
    36   38   37 1
    37   39   37 1
    38   40   37 1
    39   41   10 1
    40   42    6 1
    41   43   42 ar
    42   44   43 1
    43   45   43 ar
    44   46   45 1
    45   47   45 ar
    46   48   47 ar
    47   49   48 1
    48   50   42 ar
    49   17   41 1
    50   22   24 1
    51   31   34 1
    52   36   41 2
    53   48   50 ar
@<TRIPOS>SUBSTRUCTURE
     1 RES1 1

@<TRIPOS>CRYSIN
   8.2559    6.0132   38.1960  90.0000  93.3580  90.0000  14 1

