# MOL2 file generated by ConQuest
# Please check atom types

@<TRIPOS>MOLECULE
YAJXOX
    18    18     1
SMALL
NO_CHARGES
****
Generated from CSD

@<TRIPOS>ATOM
      1 N1         0.8889    3.4842    3.0133 N.ar      1 RES1    0.0000
      2 N2         2.5986    1.8447    3.3908 N.ar      1 RES1    0.0000
      3 C1         1.6456    3.0527    5.2742 C.ar      1 RES1    0.0000
      4 N3         3.3809    1.3990    5.5032 N.pl3     1 RES1    0.0000
      5 H1         3.3179    1.6489    6.3253 H         1 RES1    0.0000
      6 N4        -0.0626    4.6703    4.7180 N.pl3     1 RES1    0.0000
      7 H2        -0.5502    5.0514    4.1022 H         1 RES1    0.0000
      8 H3        -0.1478    4.8993    5.6794 H         1 RES1    0.0000
      9 O1         2.2581    2.8403    7.4285 O.2       1 RES1    0.0000
     10 C2         4.3132    0.4044    4.9982 C.3       1 RES1    0.0000
     11 H4         4.5497   -0.1331    5.6290 H         1 RES1    0.0000
     12 H5         5.1082    0.8696    4.6475 H         1 RES1    0.0000
     13 H6         3.8599   -0.0950    4.3119 H         1 RES1    0.0000
     14 N5         1.5001    3.4091    6.5745 N.2       1 RES1    0.0000
     15 C3         2.5547    2.0847    4.7306 C.ar      1 RES1    0.0000
     16 C4         1.7672    2.5590    2.6627 C.ar      1 RES1    0.0000
     17 H7         1.8182    2.3665    1.6778 H         1 RES1    0.0000
     18 C5         0.8060    3.7484    4.3472 C.ar      1 RES1    0.0000
@<TRIPOS>BOND
     1    1   16 ar
     2    2   15 ar
     3    3   14 1
     4    4    5 1
     5    6    7 1
     6    8    6 1
     7    9   14 2
     8   10    4 1
     9   11   10 1
    10   12   10 1
    11   13   10 1
    12   15    3 ar
    13   16    2 ar
    14   17   16 1
    15   18    1 ar
    16    3   18 ar
    17    4   15 1
    18    6   18 1
@<TRIPOS>SUBSTRUCTURE
     1 RES1 1

@<TRIPOS>CRYSIN
  16.4250    4.7520    8.3890  90.0000  90.0000  90.0000  29 1

