# MOL2 file generated by ConQuest
# Please check atom types

@<TRIPOS>MOLECULE
YAKCIW
    76    76     2
SMALL
NO_CHARGES
****
Generated from CSD

@<TRIPOS>ATOM
      1 O1         9.9326    4.0815    1.6783 O.2       1 RES1    0.0000
      2 O2         8.8220    3.9385    6.3924 O.2       1 RES1    0.0000
      3 O3         6.7233    3.6040    6.2576 O.2       1 RES1    0.0000
      4 N1         7.8438    3.5087    5.8185 N.pl3     1 RES1    0.0000
      5 C1         9.8419    5.0238    2.4506 C.2       1 RES1    0.0000
      6 C2         8.6907    5.1497    3.3701 C.2       1 RES1    0.0000
      7 C3         8.5170    6.3061    4.0298 C.2       1 RES1    0.0000
      8 C4         9.5455    7.4013    4.0198 C.3       1 RES1    0.0000
      9 C5        10.9588    6.9481    3.6899 C.3       1 RES1    0.0000
     10 C6        10.8520    6.1298    2.4139 C.3       1 RES1    0.0000
     11 C7         7.7422    3.9727    3.4068 C.3       1 RES1    0.0000
     12 C8         8.0414    2.8684    4.4355 C.3       1 RES1    0.0000
     13 C9         9.4501    2.3352    4.3641 C.3       1 RES1    0.0000
     14 C10        7.0304    1.7453    4.3140 C.3       1 RES1    0.0000
     15 C11        7.2724    6.6334    4.8099 C.3       1 RES1    0.0000
     16 C12       11.5394    6.0948    4.8177 C.3       1 RES1    0.0000
     17 C13       11.8622    8.1530    3.4759 C.3       1 RES1    0.0000
     18 H1         9.5592    7.8042    4.8801 H         1 RES1    0.0000
     19 H2         9.2851    8.0469    3.3723 H         1 RES1    0.0000
     20 H3        11.7015    5.7441    2.2389 H         1 RES1    0.0000
     21 H4        10.6182    6.7179    1.7051 H         1 RES1    0.0000
     22 H5         7.7502    3.5707    2.5454 H         1 RES1    0.0000
     23 H6         6.8718    4.3090    3.5918 H         1 RES1    0.0000
     24 H7        10.0653    3.0483    4.4945 H         1 RES1    0.0000
     25 H8         9.5756    1.6797    5.0406 H         1 RES1    0.0000
     26 H9         9.5955    1.9432    3.5116 H         1 RES1    0.0000
     27 H10        6.1523    2.0987    4.3976 H         1 RES1    0.0000
     28 H11        7.1803    1.1069    5.0016 H         1 RES1    0.0000
     29 H12        7.1210    1.3254    3.4670 H         1 RES1    0.0000
     30 H13       11.5914    6.6127    5.6123 H         1 RES1    0.0000
     31 H14       10.9795    5.3412    4.9670 H         1 RES1    0.0000
     32 H15       12.4086    5.7980    4.5759 H         1 RES1    0.0000
     33 H16       11.9000    8.6674    4.2739 H         1 RES1    0.0000
     34 H17       11.5149    8.6890    2.7716 H         1 RES1    0.0000
     35 H18       12.7368    7.8581    3.2464 H         1 RES1    0.0000
     36 H19        6.9764    7.4993    4.7029 H         1 RES1    0.0000
     37 H20        6.5501    6.0426    4.6918 H         1 RES1    0.0000
     38 H21        7.3680    6.6811    5.7505 H         1 RES1    0.0000
     39 O4        23.1042    4.0635    2.6234 O.2       2 RES2    0.0000
     40 O5        24.1677    3.8989   -2.0584 O.2       2 RES2    0.0000
     41 O6        22.2352    3.5797   -2.8931 O.2       2 RES2    0.0000
     42 N2        23.0389    3.4781   -1.9804 N.pl3     2 RES2    0.0000
     43 C14       23.3482    4.9987    1.8734 C.2       2 RES2    0.0000
     44 C15       22.6905    5.1245    0.5550 C.2       2 RES2    0.0000
     45 C16       22.8091    6.2818   -0.1226 C.2       2 RES2    0.0000
     46 C17       23.7371    7.3806    0.3232 C.3       2 RES2    0.0000
     47 C18       24.8932    6.9184    1.2047 C.3       2 RES2    0.0000
     48 C19       24.2726    6.1002    2.3236 C.3       2 RES2    0.0000
     49 C20       21.8439    3.9529    0.1170 C.3       2 RES2    0.0000
     50 C21       22.5750    2.8352   -0.6675 C.3       2 RES2    0.0000
     51 C22       23.7908    2.2894    0.0357 C.3       2 RES2    0.0000
     52 C23       21.6001    1.7247   -1.0197 C.3       2 RES2    0.0000
     53 C24       22.0190    6.6109   -1.3485 C.3       2 RES2    0.0000
     54 C25       25.8798    6.0633    0.4157 C.3       2 RES2    0.0000
     55 C26       25.6322    8.1198    1.7820 C.3       2 RES2    0.0000
     56 H22       23.2275    8.0173    0.8124 H         2 RES2    0.0000
     57 H23       24.0987    7.7934   -0.4502 H         2 RES2    0.0000
     58 H24       23.7779    6.6909    2.8808 H         2 RES2    0.0000
     59 H25       24.9767    5.7063    2.8262 H         2 RES2    0.0000
     60 H26       21.1481    4.2892   -0.4369 H         2 RES2    0.0000
     61 H27       21.4678    3.5608    0.8960 H         2 RES2    0.0000
     62 H28       24.4010    2.9979    0.2140 H         2 RES2    0.0000
     63 H29       23.5293    1.8838    0.8548 H         2 RES2    0.0000
     64 H30       24.2149    1.6410   -0.5171 H         2 RES2    0.0000
     65 H31       21.2927    1.3056   -0.2240 H         2 RES2    0.0000
     66 H32       20.8598    2.0888   -1.4911 H         2 RES2    0.0000
     67 H33       22.0364    1.0808   -1.5669 H         2 RES2    0.0000
     68 H34       26.2558    6.5803   -0.2875 H         2 RES2    0.0000
     69 H35       26.5705    5.7621    0.9930 H         2 RES2    0.0000
     70 H36       25.4252    5.3125    0.0490 H         2 RES2    0.0000
     71 H37       25.0264    8.6548    2.2824 H         2 RES2    0.0000
     72 H38       25.9986    8.6368    1.0732 H         2 RES2    0.0000
     73 H39       26.3305    7.8194    2.3492 H         2 RES2    0.0000
     74 H40       22.4815    6.6990   -2.1174 H         2 RES2    0.0000
     75 H41       21.7537    7.4813   -1.3485 H         2 RES2    0.0000
     76 H42       21.4288    6.0156   -1.5825 H         2 RES2    0.0000
@<TRIPOS>BOND
     1    1    5 2
     2    2    4 2
     3    3    4 2
     4    4   12 1
     5    5    6 1
     6    6    7 2
     7    7    8 1
     8    8    9 1
     9    9   10 1
    10   10    5 1
    11   11    6 1
    12   12   11 1
    13   13   12 1
    14   14   12 1
    15   15    7 1
    16   16    9 1
    17   17    9 1
    18   18    8 1
    19   19    8 1
    20   20   10 1
    21   21   10 1
    22   22   11 1
    23   23   11 1
    24   24   13 1
    25   25   13 1
    26   26   13 1
    27   27   14 1
    28   28   14 1
    29   29   14 1
    30   30   16 1
    31   31   16 1
    32   32   16 1
    33   33   17 1
    34   34   17 1
    35   35   17 1
    36   36   15 1
    37   37   15 1
    38   38   15 1
    39   39   43 2
    40   40   42 2
    41   41   42 2
    42   42   50 1
    43   43   44 1
    44   44   45 2
    45   45   46 1
    46   46   47 1
    47   47   48 1
    48   48   43 1
    49   49   44 1
    50   50   49 1
    51   51   50 1
    52   52   50 1
    53   53   45 1
    54   54   47 1
    55   55   47 1
    56   56   46 1
    57   57   46 1
    58   58   48 1
    59   59   48 1
    60   60   49 1
    61   61   49 1
    62   62   51 1
    63   63   51 1
    64   64   51 1
    65   65   52 1
    66   66   52 1
    67   67   52 1
    68   68   54 1
    69   69   54 1
    70   70   54 1
    71   71   55 1
    72   72   55 1
    73   73   55 1
    74   74   53 1
    75   75   53 1
    76   76   53 1
@<TRIPOS>SUBSTRUCTURE
     1 RES1 1
     2 RES2 39

@<TRIPOS>CRYSIN
  26.7970    8.9920   11.3980  90.0000 102.1100  90.0000  14 1

