# MOL2 file generated by ConQuest
# Please check atom types

@<TRIPOS>MOLECULE
YAKJID
    26    30     1
SMALL
NO_CHARGES
****
Generated from CSD

@<TRIPOS>ATOM
      1 C1         0.7567   11.4256    0.2198 C.2       1 RES1    0.0000
      2 C2         1.0280   10.2032    0.8667 C.2       1 RES1    0.0000
      3 C3        -0.5589   12.8711   -1.3070 C.3       1 RES1    0.0000
      4 C4         0.3816   13.2181   -2.4389 C.3       1 RES1    0.0000
      5 C5         0.4521   12.1711   -3.5105 C.3       1 RES1    0.0000
      6 C6         1.3808   12.5717   -4.6441 C.3       1 RES1    0.0000
      7 C7         1.0234   13.9202   -5.2249 C.3       1 RES1    0.0000
      8 C8         0.9510   14.9754   -4.1740 C.3       1 RES1    0.0000
      9 C9         0.0286   14.5851   -3.0123 C.3       1 RES1    0.0000
     10 N1        -0.2851   11.5929   -0.6618 N.3       1 RES1    0.0000
     11 N2         1.6073   12.3342    0.5759 N.2       1 RES1    0.0000
     12 N3         2.0466   10.3126    1.6483 N.2       1 RES1    0.0000
     13 O1         2.4462   11.6590    1.4839 O.3       1 RES1    0.0000
     14 N1B        0.2851    9.0571    0.6618 N.3       1 RES1    0.0000
     15 C2B       -1.0280   10.4468   -0.8667 C.2       1 RES1    0.0000
     16 C1B       -0.7567    9.2244   -0.2198 C.2       1 RES1    0.0000
     17 C3B        0.5589    7.7789    1.3070 C.3       1 RES1    0.0000
     18 N3B       -2.0466   10.3374   -1.6483 N.2       1 RES1    0.0000
     19 N2B       -1.6073    8.3158   -0.5759 N.2       1 RES1    0.0000
     20 C4B       -0.3816    7.4319    2.4389 C.3       1 RES1    0.0000
     21 O1B       -2.4462    8.9910   -1.4839 O.3       1 RES1    0.0000
     22 C5B       -0.4521    8.4789    3.5105 C.3       1 RES1    0.0000
     23 C9B       -0.0286    6.0649    3.0123 C.3       1 RES1    0.0000
     24 C6B       -1.3808    8.0783    4.6441 C.3       1 RES1    0.0000
     25 C8B       -0.9510    5.6746    4.1740 C.3       1 RES1    0.0000
     26 C7B       -1.0234    6.7298    5.2249 C.3       1 RES1    0.0000
@<TRIPOS>BOND
     1    1    2 1
     2    2   12 2
     3    3    4 1
     4    4    5 1
     5    5    6 1
     6    6    7 1
     7    7    8 1
     8    8    9 1
     9    9    4 1
    10   10    1 1
    11   11    1 2
    12   12   13 1
    13   13   11 1
    14   14    2 1
    15   15   10 1
    16   16   14 1
    17   17   14 1
    18   18   15 2
    19   19   16 2
    20   20   17 1
    21   21   18 1
    22   22   20 1
    23   23   20 1
    24   24   22 1
    25   25   23 1
    26   26   24 1
    27    3   10 1
    28   15   16 1
    29   19   21 1
    30   25   26 1
@<TRIPOS>SUBSTRUCTURE
     1 RES1 1

@<TRIPOS>CRYSIN
   5.3170   20.6500    8.4510  90.0000 102.1400  90.0000 231 1

