# MOL2 file generated by ConQuest
# Please check atom types

@<TRIPOS>MOLECULE
YALBUJ
   100   102     2
SMALL
NO_CHARGES
****
Generated from CSD

@<TRIPOS>ATOM
      1 O1         2.8780    7.3476    0.8447 O.2       1 RES1    0.0000
      2 O2         3.2863    8.6633    4.6150 Du        2 SUP2    0.0000
      3 N1         1.6068    7.2453    1.1582 N.pl3     1 RES1    0.0000
      4 N2         2.2517    8.7974    4.5274 N.ar      1 RES1    0.0000
      5 C1        -2.4889    7.3303    2.5560 C.ar      1 RES1    0.0000
      6 C2        -3.4344    6.6458    1.8085 C.ar      1 RES1    0.0000
      7 H1        -3.1433    6.0538    1.1253 H         1 RES1    0.0000
      8 C3        -4.8068    6.8028    2.0344 C.ar      1 RES1    0.0000
      9 H2        -5.4259    6.3217    1.4991 H         1 RES1    0.0000
     10 C4        -5.2681    7.6348    3.0105 C.ar      1 RES1    0.0000
     11 H3        -6.2020    7.7530    3.1406 H         1 RES1    0.0000
     12 C5        -4.8520    9.1575    4.8573 C.ar      1 RES1    0.0000
     13 H4        -5.7901    9.2181    4.9942 H         1 RES1    0.0000
     14 C6        -3.9952    9.8754    5.6514 C.ar      1 RES1    0.0000
     15 H5        -4.3313   10.4399    6.3359 H         1 RES1    0.0000
     16 C7        -2.6243    9.7634    5.4378 C.ar      1 RES1    0.0000
     17 H6        -2.0432   10.2699    5.9922 H         1 RES1    0.0000
     18 C8        -2.0677    8.9700    4.4781 C.ar      1 RES1    0.0000
     19 C9        -2.9204    8.1930    3.6156 C.ar      1 RES1    0.0000
     20 C10       -4.3341    8.3235    3.8292 C.ar      1 RES1    0.0000
     21 C11       -1.0861    7.2299    2.0754 C.ar      1 RES1    0.0000
     22 C12       -0.3852    5.4948    3.7374 C.ar      1 RES1    0.0000
     23 H7        -1.2715    5.4280    4.0729 H         1 RES1    0.0000
     24 C13        0.5874    4.7176    4.2919 C.ar      1 RES1    0.0000
     25 H8         0.3645    4.1240    5.0011 H         1 RES1    0.0000
     26 C14        1.9327    4.7792    3.8264 C.ar      1 RES1    0.0000
     27 C15        2.2280    5.6316    2.8024 C.ar      1 RES1    0.0000
     28 H9         3.1206    5.6884    2.4820 H         1 RES1    0.0000
     29 C16        1.0393    8.6647   -0.6708 C.ar      1 RES1    0.0000
     30 H10        1.9505    8.6715   -0.9378 H         1 RES1    0.0000
     31 C17        0.1098    9.3463   -1.3896 C.ar      1 RES1    0.0000
     32 H11        0.3675    9.7984   -2.1850 H         1 RES1    0.0000
     33 C18       -1.2185    9.3894   -0.9720 C.ar      1 RES1    0.0000
     34 H12       -1.8540    9.8805   -1.4799 H         1 RES1    0.0000
     35 C19       -1.6178    8.7352    0.1561 C.ar      1 RES1    0.0000
     36 H13       -2.5245    8.7968    0.4354 H         1 RES1    0.0000
     37 C20       -0.7033    7.9614    0.9186 C.ar      1 RES1    0.0000
     38 C21        0.6368    7.9420    0.4819 C.ar      1 RES1    0.0000
     39 C22        1.2252    6.4319    2.2124 C.ar      1 RES1    0.0000
     40 C23       -0.1186    6.4110    2.6628 C.ar      1 RES1    0.0000
     41 C24        3.0084    3.9420    4.3987 C.ar      1 RES1    0.0000
     42 C25        4.2852    4.4910    4.5808 C.ar      1 RES1    0.0000
     43 H14        4.4260    5.4111    4.3918 H         1 RES1    0.0000
     44 C26        5.3546    3.7132    5.0353 C.ar      1 RES1    0.0000
     45 C27        5.1122    2.3673    5.3392 C.ar      1 RES1    0.0000
     46 H15        5.8312    1.8199    5.6322 H         1 RES1    0.0000
     47 C28        3.8363    1.8143    5.2201 C.ar      1 RES1    0.0000
     48 C29        2.8069    2.6111    4.7492 C.ar      1 RES1    0.0000
     49 H16        1.9370    2.2369    4.6643 H         1 RES1    0.0000
     50 C30        6.7404    4.3105    5.1434 C.3       1 RES1    0.0000
     51 H17        7.2763    4.0348    4.3713 H         1 RES1    0.0000
     52 H18        7.1688    3.9942    5.9662 H         1 RES1    0.0000
     53 H19        6.6751    5.2871    5.1653 H         1 RES1    0.0000
     54 C31        3.6258    0.3568    5.5815 C.3       1 RES1    0.0000
     55 H20        4.4716   -0.0284    5.8923 H         1 RES1    0.0000
     56 H21        3.3156   -0.1340    4.7916 H         1 RES1    0.0000
     57 H22        2.9544    0.2897    6.2921 H         1 RES1    0.0000
     58 H23        2.6891    0.1140    5.4241 Du        2 SUP2    0.0000
     59 H24        3.8462    0.2191    6.5262 Du        2 SUP2    0.0000
     60 H25        4.2063   -0.2046    5.0257 Du        2 SUP2    0.0000
     61 C32       -0.5808    8.9051    4.4521 C.ar      1 RES1    0.0000
     62 C33       -0.3645   10.6002    2.6436 C.ar      1 RES1    0.0000
     63 H26       -1.3095   10.6619    2.5628 H         1 RES1    0.0000
     64 C34        0.4271   11.3585    1.8468 C.ar      1 RES1    0.0000
     65 H27        0.0196   11.9507    1.2253 H         1 RES1    0.0000
     66 C35        1.8533   11.2996    1.9084 C.ar      1 RES1    0.0000
     67 C36        2.4260   10.4410    2.8092 C.ar      1 RES1    0.0000
     68 H28        3.3737   10.3841    2.8613 H         1 RES1    0.0000
     69 C37        2.2292    7.2042    6.2962 C.ar      1 RES1    0.0000
     70 H29        3.1744    7.1234    6.2482 H         1 RES1    0.0000
     71 C38        1.5269    6.5126    7.2408 C.ar      1 RES1    0.0000
     72 H30        1.9903    5.9511    7.8514 H         1 RES1    0.0000
     73 C39        0.1330    6.6211    7.3229 C.ar      1 RES1    0.0000
     74 H31       -0.3241    6.1636    8.0184 H         1 RES1    0.0000
     75 C40       -0.5879    7.3643    6.4331 C.ar      1 RES1    0.0000
     76 H32       -1.5370    7.3833    6.4824 H         1 RES1    0.0000
     77 C41        0.1002    8.1199    5.4227 C.ar      1 RES1    0.0000
     78 C42        1.5291    8.0521    5.3762 C.ar      1 RES1    0.0000
     79 C43        1.6266    9.6280    3.6731 C.ar      1 RES1    0.0000
     80 C44        0.2077    9.7047    3.6060 C.ar      1 RES1    0.0000
     81 C45        2.6751   12.1533    1.0186 C.ar      1 RES1    0.0000
     82 C46        2.5732   12.0000   -0.3696 C.ar      1 RES1    0.0000
     83 H33        1.9680   11.3595   -0.7242 H         1 RES1    0.0000
     84 C47        3.3414   12.7673   -1.2403 C.ar      1 RES1    0.0000
     85 C48        4.1265   13.7728   -0.7119 C.ar      1 RES1    0.0000
     86 H34        4.6090   14.3364   -1.3033 H         1 RES1    0.0000
     87 C49        4.2358   13.9888    0.6653 C.ar      1 RES1    0.0000
     88 C50        3.5024   13.1527    1.5141 C.ar      1 RES1    0.0000
     89 H35        3.5710   13.2724    2.4533 H         1 RES1    0.0000
     90 C51        3.3069   12.4861   -2.7298 C.3       1 RES1    0.0000
     91 H36        3.2774   13.3341   -3.2213 H         1 RES1    0.0000
     92 H37        2.5112   11.9564   -2.9434 H         1 RES1    0.0000
     93 H38        4.1112   11.9867   -2.9859 H         1 RES1    0.0000
     94 C52        5.0510   15.1262    1.2034 C.3       1 RES1    0.0000
     95 H39        5.0122   15.1219    2.1822 H         1 RES1    0.0000
     96 H40        4.6924   15.9734    0.8666 H         1 RES1    0.0000
     97 H41        5.9817   15.0266    0.9131 H         1 RES1    0.0000
     98 H42        5.4453   15.6262    0.4586 Du        2 SUP2    0.0000
     99 H43        5.7651   14.7742    1.7756 Du        2 SUP2    0.0000
    100 H44        4.4759   15.7215    1.7277 Du        2 SUP2    0.0000
@<TRIPOS>BOND
     1    1    3 1
     2    3   38 ar
     3    4   78 ar
     4    5    6 ar
     5    6    7 1
     6    8    6 ar
     7    9    8 1
     8   10    8 ar
     9   11   10 1
    10   12   13 1
    11   14   12 ar
    12   15   14 1
    13   16   14 ar
    14   17   16 1
    15   18   16 ar
    16   19    5 ar
    17   20   10 ar
    18   21    5 1
    19   22   23 1
    20   24   22 ar
    21   25   24 1
    22   26   24 ar
    23   27   26 ar
    24   28   27 1
    25   29   30 1
    26   31   29 ar
    27   32   31 1
    28   33   31 ar
    29   34   33 1
    30   35   33 ar
    31   36   35 1
    32   37   21 ar
    33   38   29 ar
    34   39    3 ar
    35   40   21 ar
    36   41   26 1
    37   42   41 ar
    38   43   42 1
    39   44   42 ar
    40   45   44 ar
    41   46   45 1
    42   47   45 ar
    43   48   41 ar
    44   49   48 1
    45   50   44 1
    46   51   50 1
    47   52   50 1
    48   53   50 1
    49   54   47 1
    50   55   54 1
    51   56   54 1
    52   57   54 1
    53   61   18 1
    54   62   63 1
    55   64   62 ar
    56   65   64 1
    57   66   64 ar
    58   67   66 ar
    59   68   67 1
    60   69   70 1
    61   71   69 ar
    62   72   71 1
    63   73   71 ar
    64   74   73 1
    65   75   73 ar
    66   76   75 1
    67   77   61 ar
    68   78   69 ar
    69   79    4 ar
    70   80   61 ar
    71   81   66 1
    72   82   81 ar
    73   83   82 1
    74   84   82 ar
    75   85   84 ar
    76   86   85 1
    77   87   85 ar
    78   88   81 ar
    79   89   88 1
    80   90   84 1
    81   91   90 1
    82   92   90 1
    83   93   90 1
    84   94   87 1
    85   95   94 1
    86   96   94 1
    87   97   94 1
    88   12   20 ar
    89   18   19 ar
    90   19   20 ar
    91   22   40 ar
    92   27   39 ar
    93   35   37 ar
    94   37   38 ar
    95   39   40 ar
    96   47   48 ar
    97   62   80 ar
    98   67   79 ar
    99   75   77 ar
   100   77   78 ar
   101   79   80 ar
   102   87   88 ar
@<TRIPOS>SUBSTRUCTURE
     1 RES1 1
     2 SUP2 2

@<TRIPOS>CRYSIN
  10.8531   12.2879   14.4533 108.6550  90.7940  91.4400   2 1

