# MOL2 file generated by ConQuest
# Please check atom types

@<TRIPOS>MOLECULE
YALBIX
    58    64     2
SMALL
NO_CHARGES
****
Generated from CSD

@<TRIPOS>ATOM
      1 N1         5.6117   10.5110    1.5951 N.pl3     1 RES1    0.0000
      2 N2         1.5158    2.9471    1.3559 N.pl3     2 RES2    0.0000
      3 O1         5.3684   11.5282    0.9810 O.2       1 RES1    0.0000
      4 O2         6.6994   10.2538    2.0581 O.2       1 RES1    0.0000
      5 O3         3.9995   10.7232    3.7894 O.3       1 RES1    0.0000
      6 O4         2.6257    8.0454    3.4087 O.3       1 RES1    0.0000
      7 O5         1.8074    7.6620    1.0648 O.3       1 RES1    0.0000
      8 O6         2.6128    3.1272    1.8203 O.2       2 RES2    0.0000
      9 O7         1.2325    1.9956    0.6639 O.2       2 RES2    0.0000
     10 O8        -0.0505    2.8193    3.6732 O.3       2 RES2    0.0000
     11 O9        -1.4416    5.4572    3.2536 O.3       2 RES2    0.0000
     12 O10       -2.1916    5.8290    0.8866 O.3       2 RES2    0.0000
     13 C1         4.5004    9.5436    1.8292 C.3       1 RES1    0.0000
     14 C2         3.4086   10.2348    2.5960 C.3       1 RES1    0.0000
     15 C3         2.2329    9.3164    2.8556 C.3       1 RES1    0.0000
     16 C4         1.3959    8.9047    1.6515 C.3       1 RES1    0.0000
     17 C5         0.7857    7.6622    2.0701 C.3       1 RES1    0.0000
     18 C6         1.3000    7.4777    3.4806 C.3       1 RES1    0.0000
     19 C7         0.5342    8.5049    4.3185 C.3       1 RES1    0.0000
     20 C8         1.2351    9.8277    3.9169 C.3       1 RES1    0.0000
     21 C9         1.9708   10.4842    5.0799 C.3       1 RES1    0.0000
     22 C10        3.0527   11.4224    4.6006 C.3       1 RES1    0.0000
     23 C11        0.4441    3.9275    1.6558 C.3       2 RES2    0.0000
     24 C12       -0.6445    3.2637    2.4632 C.3       2 RES2    0.0000
     25 C13       -1.8138    4.1806    2.6970 C.3       2 RES2    0.0000
     26 C14       -2.6265    4.5874    1.4750 C.3       2 RES2    0.0000
     27 C15       -3.2411    5.8369    1.8673 C.3       2 RES2    0.0000
     28 C16       -2.7641    6.0162    3.2868 C.3       2 RES2    0.0000
     29 C17       -3.5639    4.9841    4.1040 C.3       2 RES2    0.0000
     30 C18       -2.8284    3.6773    3.7455 C.3       2 RES2    0.0000
     31 C19       -2.1041    3.0606    4.9321 C.3       2 RES2    0.0000
     32 C20       -1.0071    2.1331    4.5019 C.3       2 RES2    0.0000
     33 H1         0.6362   10.4715    3.5135 H         1 RES1    0.0000
     34 H2         0.9910    9.5589    1.1031 H         1 RES1    0.0000
     35 H3         3.0974   10.9474    2.0858 H         1 RES1    0.0000
     36 H4         2.3983    9.7511    5.6303 H         1 RES1    0.0000
     37 H5        -0.9904    2.4786    1.9712 H         2 RES2    0.0000
     38 H6        -2.7275    6.9310    3.6465 H         2 RES2    0.0000
     39 H7        -1.3523    1.3380    4.0020 H         2 RES2    0.0000
     40 H8         3.5760   11.7497    5.3666 H         1 RES1    0.0000
     41 H9         0.8501    4.6148    2.1329 H         2 RES2    0.0000
     42 H10       -2.9720    3.9333    0.9013 H         2 RES2    0.0000
     43 H11        4.8960    8.8459    2.3106 H         1 RES1    0.0000
     44 H12       -0.4906    1.8055    5.2748 H         2 RES2    0.0000
     45 H13       -3.3906    2.9939    3.3667 H         2 RES2    0.0000
     46 H14        1.3293   11.0207    5.6314 H         1 RES1    0.0000
     47 H15       -2.7247    2.5589    5.5053 H         2 RES2    0.0000
     48 H16        4.1992    9.2514    0.9403 H         1 RES1    0.0000
     49 H17        2.5958   12.1835    4.0593 H         1 RES1    0.0000
     50 H18        0.0766    4.2388    0.7912 H         2 RES2    0.0000
     51 H19       -4.4808    4.9969    3.8644 H         2 RES2    0.0000
     52 H20        1.3549    6.5762    3.8300 H         1 RES1    0.0000
     53 H21       -0.0893    7.3915    1.8095 H         1 RES1    0.0000
     54 H22       -4.1445    6.1422    1.5824 H         2 RES2    0.0000
     55 H23       -1.6985    3.7537    5.4583 H         2 RES2    0.0000
     56 H24        0.6520    8.3326    5.2519 H         1 RES1    0.0000
     57 H25       -3.4872    5.1871    5.0340 H         2 RES2    0.0000
     58 H26       -0.3985    8.5083    4.0822 H         1 RES1    0.0000
@<TRIPOS>BOND
     1    1    3 2
     2    2    8 2
     3    4    1 2
     4    5   14 1
     5    6   15 1
     6    7   16 1
     7    9    2 2
     8   10   24 1
     9   11   25 1
    10   12   26 1
    11   13    1 1
    12   14   13 1
    13   15   14 1
    14   16   15 1
    15   17    7 1
    16   18    6 1
    17   19   18 1
    18   20   15 1
    19   21   20 1
    20   22    5 1
    21   23    2 1
    22   24   23 1
    23   25   24 1
    24   26   25 1
    25   27   12 1
    26   28   11 1
    27   29   28 1
    28   30   25 1
    29   31   30 1
    30   32   10 1
    31   33   20 1
    32   34   16 1
    33   35   14 1
    34   36   21 1
    35   37   24 1
    36   38   28 1
    37   39   32 1
    38   40   22 1
    39   41   23 1
    40   42   26 1
    41   43   13 1
    42   44   32 1
    43   45   30 1
    44   46   21 1
    45   47   31 1
    46   48   13 1
    47   49   22 1
    48   50   23 1
    49   51   29 1
    50   52   18 1
    51   53   17 1
    52   54   27 1
    53   55   31 1
    54   56   19 1
    55   57   29 1
    56   58   19 1
    57   16   17 1
    58   17   18 1
    59   19   20 1
    60   21   22 1
    61   26   27 1
    62   27   28 1
    63   29   30 1
    64   31   32 1
@<TRIPOS>SUBSTRUCTURE
     1 RES1 1
     2 RES2 2

@<TRIPOS>CRYSIN
   8.1670   10.7620   11.8230 103.0690  95.2010  89.9540   2 1

