# MOL2 file generated by ConQuest
# Please check atom types

@<TRIPOS>MOLECULE
YALQEK
    15    15     1
SMALL
NO_CHARGES
****
Generated from CSD

@<TRIPOS>ATOM
      1 N1        -1.3431    3.1821    6.4579 N.pl3     1 RES1    0.0000
      2 N2         0.0450    1.9848    9.0112 N.pl3     1 RES1    0.0000
      3 H1         0.4001    1.5384    9.6550 H         1 RES1    0.0000
      4 H2         0.0777    2.8444    9.0144 H         1 RES1    0.0000
      5 N3        -1.6587    0.8296    6.0978 N.2       1 RES1    0.0000
      6 N4        -1.3059   -0.2194    6.7776 N.3       1 RES1    0.0000
      7 N5        -0.6470    0.0041    7.9323 N.2       1 RES1    0.0000
      8 O1        -0.8637    4.0377    7.1980 O.2       1 RES1    0.0000
      9 O2        -1.9353    3.4451    5.4125 O.2       1 RES1    0.0000
     10 C1        -1.1919    1.8376    6.8494 C.2       1 RES1    0.0000
     11 C2        -0.5616    1.3384    7.9984 C.2       1 RES1    0.0000
     12 C3        -1.6455   -1.5730    6.3609 C.3       1 RES1    0.0000
     13 H3        -2.2067   -1.5367    5.5826 H         1 RES1    0.0000
     14 H4        -2.1123   -2.0196    7.0718 H         1 RES1    0.0000
     15 H5        -0.8420   -2.0561    6.1537 H         1 RES1    0.0000
@<TRIPOS>BOND
     1    1    8 2
     2    2    3 1
     3    4    2 1
     4    5    6 1
     5    6    7 1
     6    7   11 2
     7    9    1 2
     8   10    1 1
     9   11    2 1
    10   12    6 1
    11   13   12 1
    12   14   12 1
    13   15   12 1
    14    5   10 2
    15   10   11 1
@<TRIPOS>SUBSTRUCTURE
     1 RES1 1

@<TRIPOS>CRYSIN
   3.8235   16.5950    9.6410  90.0000  99.6760  90.0000 231 1

