# MOL2 file generated by ConQuest
# Please check atom types

@<TRIPOS>MOLECULE
YALTUA
    22    23     1
SMALL
NO_CHARGES
****
Generated from CSD

@<TRIPOS>ATOM
      1 O1         5.3374    1.6443    9.4291 O.2       1 RES1    0.0000
      2 O2         3.5189    2.6241    9.9762 O.2       1 RES1    0.0000
      3 O3        -0.5789    1.3072    7.9663 O.2       1 RES1    0.0000
      4 O4        -0.5724    0.1479    6.1482 O.2       1 RES1    0.0000
      5 O5         5.0985   -0.7362    4.7347 O.2       1 RES1    0.0000
      6 O6         3.4825    0.1131    3.5634 O.2       1 RES1    0.0000
      7 N1         5.6203    1.1712    6.8164 N.pl3     1 RES1    0.0000
      8 N2         4.1653    1.9249    9.2255 N.pl3     1 RES1    0.0000
      9 N3        -0.0091    0.7341    7.0416 N.pl3     1 RES1    0.0000
     10 N4         4.0783   -0.0685    4.6137 N.pl3     1 RES1    0.0000
     11 N5         5.6074    2.1456    4.6953 N.ar      1 RES1    0.0000
     12 C1         4.2626    1.0027    6.8846 C.ar      1 RES1    0.0000
     13 C2         3.5072    1.3811    8.0344 C.ar      1 RES1    0.0000
     14 C3         2.1300    1.2996    8.0963 C.ar      1 RES1    0.0000
     15 C4         1.4525    0.7982    7.0173 C.ar      1 RES1    0.0000
     16 C5         2.1118    0.3828    5.8711 C.ar      1 RES1    0.0000
     17 C6         3.4760    0.4894    5.8325 C.ar      1 RES1    0.0000
     18 C7         6.3265    1.6030    5.6783 C.ar      1 RES1    0.0000
     19 C8         7.7114    1.4899    5.6675 C.ar      1 RES1    0.0000
     20 C9         8.3695    1.9814    4.5571 C.ar      1 RES1    0.0000
     21 C10        7.6517    2.5339    3.5096 C.ar      1 RES1    0.0000
     22 C11        6.2914    2.5785    3.6190 C.ar      1 RES1    0.0000
@<TRIPOS>BOND
     1    1    8 2
     2    2    8 2
     3    3    9 2
     4    4    9 2
     5    5   10 2
     6    6   10 2
     7    7   12 1
     8    8   13 1
     9    9   15 1
    10   10   17 1
    11   11   18 ar
    12   12   13 ar
    13   13   14 ar
    14   14   15 ar
    15   15   16 ar
    16   16   17 ar
    17   17   12 ar
    18   18    7 1
    19   19   18 ar
    20   20   19 ar
    21   21   20 ar
    22   22   11 ar
    23   21   22 ar
@<TRIPOS>SUBSTRUCTURE
     1 RES1 1

@<TRIPOS>CRYSIN
  12.9800   10.8750    8.9690  90.0000  90.0000  90.0000  33 1

