# MOL2 file generated by ConQuest
# Please check atom types

@<TRIPOS>MOLECULE
YALZOA
    36    38     2
SMALL
NO_CHARGES
****
Generated from CSD

@<TRIPOS>ATOM
      1 O1         0.7613    3.0271    1.3756 O.2       1 RES1    0.0000
      2 O2        -0.6236    0.7351   -3.1035 O.3       1 RES1    0.0000
      3 N1         1.5920    3.8718   -0.5948 N.am      1 RES1    0.0000
      4 N2        -0.5123    1.7755   -2.1485 N.2       1 RES1    0.0000
      5 C1         0.5985    3.5204    0.2796 C.2       1 RES1    0.0000
      6 C2        -0.7107    3.8134   -0.3034 C.3       1 RES1    0.0000
      7 C3        -0.3705    4.1107   -1.7621 C.3       1 RES1    0.0000
      8 C4         1.1239    4.5337   -1.7674 C.3       1 RES1    0.0000
      9 C5        -0.5020    2.9100   -2.6722 C.2       1 RES1    0.0000
     10 C6        -0.5517    3.1803   -4.1138 C.3       1 RES1    0.0000
     11 C7         3.0257    3.7794   -0.3231 C.3       1 RES1    0.0000
     12 C8         3.6945    2.7774   -1.2688 C.3       1 RES1    0.0000
     13 C9         3.6706    5.1406   -0.3245 C.ar      1 RES1    0.0000
     14 C10        4.1736    5.7493   -1.4442 C.ar      1 RES1    0.0000
     15 C11        4.7086    7.0033   -1.4442 C.ar      1 RES1    0.0000
     16 C12        4.7970    7.6835   -0.2730 C.ar      1 RES1    0.0000
     17 C13        4.3326    7.0826    0.8573 C.ar      1 RES1    0.0000
     18 C14        3.7470    5.8252    0.8388 C.ar      1 RES1    0.0000
     19 O3         7.5424    7.4349    4.6743 O.2       2 RES2    0.0000
     20 O4         9.3001    0.6793    4.8932 O.3       2 RES2    0.0000
     21 N3         6.6000    5.4877    5.3905 N.am      2 RES2    0.0000
     22 N4         8.4959    1.8173    5.1821 N.2       2 RES2    0.0000
     23 C15        7.6199    6.2193    4.9144 C.2       2 RES2    0.0000
     24 C16        8.8348    5.3639    4.7205 C.3       2 RES2    0.0000
     25 C17        8.4989    4.1360    5.5910 C.3       2 RES2    0.0000
     26 C18        6.9633    4.0811    5.5659 C.3       2 RES2    0.0000
     27 C19        9.2010    2.8576    5.2480 C.2       2 RES2    0.0000
     28 C20       10.6940    2.9073    5.0199 C.3       2 RES2    0.0000
     29 C21        5.2153    5.9830    5.6028 C.3       2 RES2    0.0000
     30 C22        4.2967    5.2679    4.6585 C.3       2 RES2    0.0000
     31 C23        4.7707    5.8923    7.0603 C.ar      2 RES2    0.0000
     32 C24        3.5662    5.3656    7.5074 C.ar      2 RES2    0.0000
     33 C25        3.1775    5.3316    8.8065 C.ar      2 RES2    0.0000
     34 C26        4.0095    5.8504    9.7126 C.ar      2 RES2    0.0000
     35 C27        5.2746    6.4138    9.2945 C.ar      2 RES2    0.0000
     36 C28        5.6087    6.4068    7.9743 C.ar      2 RES2    0.0000
@<TRIPOS>BOND
     1    1    5 2
     2    2    4 1
     3    3    5 1
     4    4    9 2
     5    5    6 1
     6    6    7 1
     7    7    8 1
     8    8    3 1
     9    9    7 1
    10   10    9 1
    11   11    3 1
    12   12   11 1
    13   13   11 1
    14   14   13 ar
    15   15   14 ar
    16   16   15 ar
    17   17   16 ar
    18   18   13 ar
    19   19   23 2
    20   20   22 1
    21   21   23 1
    22   22   27 2
    23   23   24 1
    24   24   25 1
    25   25   26 1
    26   26   21 1
    27   27   25 1
    28   28   27 1
    29   29   21 1
    30   30   29 1
    31   31   29 1
    32   32   31 ar
    33   33   32 ar
    34   34   33 ar
    35   35   34 ar
    36   36   31 ar
    37   17   18 ar
    38   35   36 ar
@<TRIPOS>SUBSTRUCTURE
     1 RES1 1
     2 RES2 19

@<TRIPOS>CRYSIN
  11.9148    8.7203   13.7431  90.0000 106.3200  90.0000   4 1

