# MOL2 file generated by ConQuest
# Please check atom types

@<TRIPOS>MOLECULE
YALZUG
    18    19     1
SMALL
NO_CHARGES
****
Generated from CSD

@<TRIPOS>ATOM
      1 O1         4.4317    7.5711    6.4376 O.2       1 RES1    0.0000
      2 O2         4.2998   14.0502    7.5135 O.3       1 RES1    0.0000
      3 N1         5.9927    8.9034    7.4620 N.am      1 RES1    0.0000
      4 N2         4.9072   13.1879    6.7817 N.2       1 RES1    0.0000
      5 C1         5.0276    8.6386    6.5589 C.2       1 RES1    0.0000
      6 C2         4.8201    9.8502    5.7054 C.3       1 RES1    0.0000
      7 C3         5.5935   10.9828    6.3936 C.3       1 RES1    0.0000
      8 C4         6.5375   10.2437    7.3653 C.3       1 RES1    0.0000
      9 C5         4.7079   11.9657    7.0970 C.2       1 RES1    0.0000
     10 C6         3.7160   11.4740    8.0861 C.3       1 RES1    0.0000
     11 C7         6.4906    7.9241    8.4368 C.3       1 RES1    0.0000
     12 C8         8.0184    7.8611    8.3978 C.3       1 RES1    0.0000
     13 C9         5.8904    8.1922    9.8045 C.ar      1 RES1    0.0000
     14 C10        4.5874    7.8316   10.0306 C.ar      1 RES1    0.0000
     15 C11        3.9773    8.0553   11.2504 C.ar      1 RES1    0.0000
     16 C12        4.6665    8.6501   12.2575 C.ar      1 RES1    0.0000
     17 C13        5.9599    9.0026   12.0826 C.ar      1 RES1    0.0000
     18 C14        6.5658    8.7758   10.8318 C.ar      1 RES1    0.0000
@<TRIPOS>BOND
     1    1    5 2
     2    2    4 1
     3    3    5 1
     4    4    9 2
     5    5    6 1
     6    6    7 1
     7    7    8 1
     8    8    3 1
     9    9    7 1
    10   10    9 1
    11   11    3 1
    12   12   11 1
    13   13   11 1
    14   14   13 ar
    15   15   14 ar
    16   16   15 ar
    17   17   16 ar
    18   18   13 ar
    19   17   18 ar
@<TRIPOS>SUBSTRUCTURE
     1 RES1 1

@<TRIPOS>CRYSIN
   6.8028    8.9244   11.1684  90.0000  93.2830  90.0000   4 1

