# MOL2 file generated by ConQuest
# Please check atom types

@<TRIPOS>MOLECULE
YAMJOL
    15    15     1
SMALL
NO_CHARGES
****
Generated from CSD

@<TRIPOS>ATOM
      1 N1         9.2010    1.6136    2.7581 N.pl3     1 RES1    0.0000
      2 N2         5.0520    1.1258   -4.0784 N.3       1 RES1    0.0000
      3 O1        10.2149    1.1627    3.2962 O.2       1 RES1    0.0000
      4 O2         8.4638    2.4181    3.3425 O.2       1 RES1    0.0000
      5 C1         7.1285    1.4518   -0.4092 C.ar      1 RES1    0.0000
      6 C2         5.9215    2.1290   -0.6590 C.ar      1 RES1    0.0000
      7 C3         5.2428    2.0446   -1.8425 C.ar      1 RES1    0.0000
      8 C4         5.7226    1.2324   -2.9005 C.ar      1 RES1    0.0000
      9 C5         6.9332    0.5460   -2.6620 C.ar      1 RES1    0.0000
     10 C6         7.6114    0.6580   -1.4751 C.ar      1 RES1    0.0000
     11 C7         7.7384    1.6443    0.8896 C.2       1 RES1    0.0000
     12 C8         8.8834    1.1673    1.3971 C.2       1 RES1    0.0000
     13 C9         9.8770    0.2370    0.7969 C.3       1 RES1    0.0000
     14 C10        5.4486    0.1503   -5.0889 C.3       1 RES1    0.0000
     15 C11        3.7653    1.7831   -4.2898 C.3       1 RES1    0.0000
@<TRIPOS>BOND
     1    1    3 2
     2    2    8 1
     3    4    1 2
     4    5    6 ar
     5    6    7 ar
     6    7    8 ar
     7    8    9 ar
     8    9   10 ar
     9   10    5 ar
    10   11    5 1
    11   12    1 1
    12   13   12 1
    13   14    2 1
    14   15    2 1
    15   11   12 2
@<TRIPOS>SUBSTRUCTURE
     1 RES1 1

@<TRIPOS>CRYSIN
  12.3402    7.6692   12.8082  90.0000 118.0500  90.0000  14 1

