# MOL2 file generated by ConQuest
# Please check atom types

@<TRIPOS>MOLECULE
YAMMOR
    74    80     2
SMALL
NO_CHARGES
****
Generated from CSD

@<TRIPOS>ATOM
      1 O1         3.3763    5.8347    3.6394 O.2       1 RES1    0.0000
      2 O2         4.2973    6.2225    1.7134 O.2       1 RES1    0.0000
      3 N1         3.2237   12.1425    3.5561 N.pl3     1 RES1    0.0000
      4 N2         3.7988    6.6017    2.7734 N.pl3     1 RES1    0.0000
      5 C1         3.3887   10.7389    3.4171 C.ar      1 RES1    0.0000
      6 C2         2.8805    9.8519    4.3740 C.ar      1 RES1    0.0000
      7 C3         3.0525    8.4810    4.1517 C.ar      1 RES1    0.0000
      8 C4         3.6854    8.0463    3.0067 C.ar      1 RES1    0.0000
      9 C5         4.1899    8.9113    2.0477 C.ar      1 RES1    0.0000
     10 C6         4.0439   10.2685    2.2693 C.ar      1 RES1    0.0000
     11 C7         3.7430   12.9504    4.5716 C.ar      1 RES1    0.0000
     12 C8         4.4790   12.5888    5.6959 C.ar      1 RES1    0.0000
     13 C9         4.8990   13.6117    6.5429 C.ar      1 RES1    0.0000
     14 C10        4.5928   14.9499    6.2768 C.ar      1 RES1    0.0000
     15 C11        3.8867   15.3078    5.1403 C.ar      1 RES1    0.0000
     16 C12        3.4637   14.3002    4.2679 C.ar      1 RES1    0.0000
     17 C13        2.7774   14.3155    2.9963 C.ar      1 RES1    0.0000
     18 C14        2.2707   15.3418    2.1934 C.ar      1 RES1    0.0000
     19 C15        1.6117   15.0021    1.0213 C.ar      1 RES1    0.0000
     20 C16        1.4591   13.6601    0.6456 C.ar      1 RES1    0.0000
     21 C17        1.9733   12.6284    1.4159 C.ar      1 RES1    0.0000
     22 C18        2.6453   12.9731    2.5913 C.ar      1 RES1    0.0000
     23 C19        2.1398   10.3030    5.5966 C.3       1 RES1    0.0000
     24 H1         2.7308    7.8449    4.7948 H         1 RES1    0.0000
     25 H2         4.6247    8.5800    1.2584 H         1 RES1    0.0000
     26 H3         4.3943   10.8948    1.6315 H         1 RES1    0.0000
     27 H4         4.6890   11.6704    5.8806 H         1 RES1    0.0000
     28 H5         5.4096   13.3934    7.3260 H         1 RES1    0.0000
     29 H6         4.8764   15.6308    6.8911 H         1 RES1    0.0000
     30 H7         3.6915   16.2294    4.9553 H         1 RES1    0.0000
     31 H8         2.3767   16.2614    2.4477 H         1 RES1    0.0000
     32 H9         1.2554   15.6947    0.4601 H         1 RES1    0.0000
     33 H10        0.9876   13.4506   -0.1640 H         1 RES1    0.0000
     34 H11        1.8712   11.7111    1.1515 H         1 RES1    0.0000
     35 H12        1.3544    9.7633    5.7123 H         1 RES1    0.0000
     36 H13        2.7068   10.2123    6.3659 H         1 RES1    0.0000
     37 H14        1.8839   11.2227    5.4944 H         1 RES1    0.0000
     38 O3         7.8060   -0.2695    4.4224 O.2       2 RES2    0.0000
     39 O4         6.5335   -0.2107    2.6733 O.2       2 RES2    0.0000
     40 N3         7.0977    5.9520    3.8213 N.pl3     2 RES2    0.0000
     41 N4         7.1565    0.3419    3.5798 N.pl3     2 RES2    0.0000
     42 C20        7.1003    4.5343    3.7966 C.ar      2 RES2    0.0000
     43 C21        6.3973    3.8839    2.7804 C.ar      2 RES2    0.0000
     44 C22        6.4138    2.5023    2.6961 C.ar      2 RES2    0.0000
     45 C23        7.1223    1.8079    3.6567 C.ar      2 RES2    0.0000
     46 C24        7.8155    2.4297    4.6792 C.ar      2 RES2    0.0000
     47 C25        7.8293    3.8200    4.7555 C.ar      2 RES2    0.0000
     48 C26        6.5419    6.7764    4.8005 C.ar      2 RES2    0.0000
     49 C27        5.8228    6.4223    5.9412 C.ar      2 RES2    0.0000
     50 C28        5.3853    7.4494    6.7643 C.ar      2 RES2    0.0000
     51 C29        5.6562    8.7918    6.4601 C.ar      2 RES2    0.0000
     52 C30        6.3376    9.1398    5.3043 C.ar      2 RES2    0.0000
     53 C31        6.7802    8.1226    4.4540 C.ar      2 RES2    0.0000
     54 C32        7.4831    8.1173    3.1912 C.ar      2 RES2    0.0000
     55 C33        7.9516    9.1231    2.3388 C.ar      2 RES2    0.0000
     56 C34        8.6313    8.7511    1.1884 C.ar      2 RES2    0.0000
     57 C35        8.8597    7.4007    0.8859 C.ar      2 RES2    0.0000
     58 C36        8.3845    6.3876    1.7056 C.ar      2 RES2    0.0000
     59 C37        7.6761    6.7661    2.8433 C.ar      2 RES2    0.0000
     60 C38        8.6371    4.5211    5.8104 C.3       2 RES2    0.0000
     61 H15        5.9010    4.3966    2.1382 H         2 RES2    0.0000
     62 H16        5.9483    2.0423    1.9937 H         2 RES2    0.0000
     63 H17        8.2845    1.9058    5.3327 H         2 RES2    0.0000
     64 H18        5.6376    5.5034    6.1489 H         2 RES2    0.0000
     65 H19        4.8876    7.2376    7.5574 H         2 RES2    0.0000
     66 H20        5.3649    9.4807    7.0619 H         2 RES2    0.0000
     67 H21        6.5024   10.0614    5.0920 H         2 RES2    0.0000
     68 H22        7.8059   10.0492    2.5456 H         2 RES2    0.0000
     69 H23        8.9508    9.4296    0.5889 H         2 RES2    0.0000
     70 H24        9.3548    7.1730    0.0957 H         2 RES2    0.0000
     71 H25        8.5378    5.4631    1.4971 H         2 RES2    0.0000
     72 H26        9.1667    5.2101    5.4028 H         2 RES2    0.0000
     73 H27        8.0465    4.9124    6.4583 H         2 RES2    0.0000
     74 H28        9.2142    3.8885    6.2446 H         2 RES2    0.0000
@<TRIPOS>BOND
     1    1    4 2
     2    2    4 2
     3    3    5 1
     4    4    8 1
     5    5    6 ar
     6    6    7 ar
     7    7    8 ar
     8    8    9 ar
     9    9   10 ar
    10   10    5 ar
    11   11    3 1
    12   12   11 ar
    13   13   12 ar
    14   14   13 ar
    15   15   14 ar
    16   16   11 ar
    17   17   16 1
    18   18   17 ar
    19   19   18 ar
    20   20   19 ar
    21   21   20 ar
    22   22    3 1
    23   23    6 1
    24   24    7 1
    25   25    9 1
    26   26   10 1
    27   27   12 1
    28   28   13 1
    29   29   14 1
    30   30   15 1
    31   31   18 1
    32   32   19 1
    33   33   20 1
    34   34   21 1
    35   35   23 1
    36   36   23 1
    37   37   23 1
    38   38   41 2
    39   39   41 2
    40   40   42 1
    41   41   45 1
    42   42   43 ar
    43   43   44 ar
    44   44   45 ar
    45   45   46 ar
    46   46   47 ar
    47   47   42 ar
    48   48   40 1
    49   49   48 ar
    50   50   49 ar
    51   51   50 ar
    52   52   51 ar
    53   53   48 ar
    54   54   53 1
    55   55   54 ar
    56   56   55 ar
    57   57   56 ar
    58   58   57 ar
    59   59   40 1
    60   60   47 1
    61   61   43 1
    62   62   44 1
    63   63   46 1
    64   64   49 1
    65   65   50 1
    66   66   51 1
    67   67   52 1
    68   68   55 1
    69   69   56 1
    70   70   57 1
    71   71   58 1
    72   72   60 1
    73   73   60 1
    74   74   60 1
    75   15   16 ar
    76   17   22 ar
    77   21   22 ar
    78   52   53 ar
    79   54   59 ar
    80   58   59 ar
@<TRIPOS>SUBSTRUCTURE
     1 RES1 1
     2 RES2 38

@<TRIPOS>CRYSIN
   7.7738   12.6026   15.4833 104.4551  92.5790  90.6132   2 1

