# MOL2 file generated by ConQuest
# Please check atom types

@<TRIPOS>MOLECULE
YAMPEK
    36    38     1
SMALL
NO_CHARGES
****
Generated from CSD

@<TRIPOS>ATOM
      1 O1         8.0456    7.8915    6.6777 O.3       1 RES1    0.0000
      2 N1         8.7577    5.7942    6.3516 N.2       1 RES1    0.0000
      3 C1         9.0054    7.0461    6.1525 C.2       1 RES1    0.0000
      4 O2         4.8202    4.1817    8.8454 O.2       1 RES1    0.0000
      5 C2         7.5547    5.7780    7.0685 C.2       1 RES1    0.0000
      6 N2         6.9977    3.4025    7.5147 N.2       1 RES1    0.0000
      7 O3         8.2366    3.2229    6.8702 O.3       1 RES1    0.0000
      8 C3         6.7656    4.6767    7.5822 C.2       1 RES1    0.0000
      9 O4         7.9547    0.9958    6.9720 O.2       1 RES1    0.0000
     10 C4         5.4984    5.0417    8.3290 C.2       1 RES1    0.0000
     11 C5         5.1133    6.4890    8.4287 C.ar      1 RES1    0.0000
     12 C6         3.9429    6.8473    9.0820 C.ar      1 RES1    0.0000
     13 H1         3.3839    6.1888    9.4270 H         1 RES1    0.0000
     14 C7         3.6058    8.1774    9.2195 C.ar      1 RES1    0.0000
     15 H2         2.8233    8.4096    9.6654 H         1 RES1    0.0000
     16 C8         4.4119    9.1655    8.7049 C.ar      1 RES1    0.0000
     17 H3         4.1737   10.0595    8.8046 H         1 RES1    0.0000
     18 C9         5.5742    8.8329    8.0425 C.ar      1 RES1    0.0000
     19 H4         6.1138    9.5008    7.6883 H         1 RES1    0.0000
     20 C10        5.9379    7.4974    7.9049 C.ar      1 RES1    0.0000
     21 C11        7.1353    7.0496    7.2459 C.2       1 RES1    0.0000
     22 C12       10.1604    7.6739    5.4671 C.3       1 RES1    0.0000
     23 H5        10.6677    8.1707    6.1422 H         1 RES1    0.0000
     24 C13        9.6926    8.6756    4.4126 C.3       1 RES1    0.0000
     25 H6         9.1404    9.3429    4.8264 H         1 RES1    0.0000
     26 H7         9.1885    8.2173    3.7364 H         1 RES1    0.0000
     27 H8        10.4555    9.0959    4.0103 H         1 RES1    0.0000
     28 C14       11.0855    6.6259    4.8803 C.3       1 RES1    0.0000
     29 H9        11.3801    6.0329    5.5748 H         1 RES1    0.0000
     30 H10       11.8468    7.0573    4.4837 H         1 RES1    0.0000
     31 H11       10.6170    6.1240    4.2086 H         1 RES1    0.0000
     32 C15        8.6377    1.9232    6.7370 C.2       1 RES1    0.0000
     33 C16       10.0265    1.9263    6.2373 C.3       1 RES1    0.0000
     34 H12       10.3310    1.0224    6.1341 H         1 RES1    0.0000
     35 H13       10.5905    2.3848    6.8654 H         1 RES1    0.0000
     36 H14       10.0607    2.3747    5.3891 H         1 RES1    0.0000
@<TRIPOS>BOND
     1    1    3 1
     2    2    3 2
     3    3   22 1
     4    4   10 2
     5    5    2 1
     6    6    7 1
     7    7   32 1
     8    8    5 1
     9    9   32 2
    10   10    8 1
    11   11   10 1
    12   12   11 ar
    13   13   12 1
    14   14   12 ar
    15   15   14 1
    16   16   14 ar
    17   17   16 1
    18   18   16 ar
    19   19   18 1
    20   20   11 ar
    21   21    1 1
    22   22   23 1
    23   24   22 1
    24   25   24 1
    25   26   24 1
    26   27   24 1
    27   28   22 1
    28   29   28 1
    29   30   28 1
    30   31   28 1
    31   32   33 1
    32   33   34 1
    33   35   33 1
    34   36   33 1
    35    5   21 2
    36    6    8 2
    37   18   20 ar
    38   20   21 1
@<TRIPOS>SUBSTRUCTURE
     1 RES1 1

@<TRIPOS>CRYSIN
  12.6680   20.2446   12.8544  90.0000 116.9210  90.0000  15 1

