# MOL2 file generated by ConQuest
# Please check atom types

@<TRIPOS>MOLECULE
YAMPAG
   104   102     4
SMALL
NO_CHARGES
****
Generated from CSD

@<TRIPOS>ATOM
      1 O1         8.4390    3.5616    2.6711 O.3       1 RES1    0.0000
      2 N1         9.1059    4.1845    4.7168 N.2       1 RES1    0.0000
      3 C1         8.8205    4.5730    3.5282 C.2       1 RES1    0.0000
      4 C2         8.9177    2.8067    4.6907 C.ar      1 RES1    0.0000
      5 N2         9.4957    2.1310    7.0103 N.pl3     1 RES1    0.0000
      6 O2         9.7794    3.2807    7.2680 O.2       1 RES1    0.0000
      7 C3         9.0642    1.8010    5.6881 C.ar      1 RES1    0.0000
      8 O3         9.5673    1.2380    7.8755 O.2       1 RES1    0.0000
      9 O4         8.9039   -0.5371    6.2041 O.3       1 RES1    0.0000
     10 H1         9.1348   -0.2524    6.9372 H         1 RES1    0.0000
     11 C4         8.8031    0.4800    5.3424 C.ar      1 RES1    0.0000
     12 C5         8.4048    0.1251    4.0126 C.ar      1 RES1    0.0000
     13 C6         8.1747   -1.2228    3.6585 C.ar      1 RES1    0.0000
     14 H2         8.2884   -1.8947    4.2901 H         1 RES1    0.0000
     15 C7         7.7867   -1.5379    2.3929 C.ar      1 RES1    0.0000
     16 H3         7.6392   -2.4283    2.1698 H         1 RES1    0.0000
     17 C8         7.6065   -0.5557    1.4291 C.ar      1 RES1    0.0000
     18 H4         7.3271   -0.7956    0.5750 H         1 RES1    0.0000
     19 C9         7.8344    0.7565    1.7244 C.ar      1 RES1    0.0000
     20 H5         7.7195    1.4092    1.0722 H         1 RES1    0.0000
     21 C10        8.2426    1.1164    3.0174 C.ar      1 RES1    0.0000
     22 C11        8.5145    2.4345    3.4445 C.ar      1 RES1    0.0000
     23 C12        8.8185    5.9540    2.9814 C.3       1 RES1    0.0000
     24 H6         8.8331    5.9105    2.0126 H         1 RES1    0.0000
     25 H7         9.6244    6.4098    3.2703 H         1 RES1    0.0000
     26 C13        7.6242    6.7425    3.4204 C.3       1 RES1    0.0000
     27 H8         7.5909    6.7590    4.3906 H         1 RES1    0.0000
     28 H9         6.8190    6.3063    3.1018 H         1 RES1    0.0000
     29 C14        7.6651    8.1744    2.8936 C.3       1 RES1    0.0000
     30 H10        6.8871    8.6493    3.1967 H         1 RES1    0.0000
     31 H11        7.6792    8.1622    1.9347 H         1 RES1    0.0000
     32 H12        8.4544    8.6128    3.2207 H         1 RES1    0.0000
     33 O5         4.8841    3.7189    2.8405 O.3       2 RES2    0.0000
     34 N3         4.3132    1.9899    1.5299 N.2       2 RES2    0.0000
     35 C15        4.4673    3.2605    1.6108 C.2       2 RES2    0.0000
     36 C16        4.6505    1.5155    2.7914 C.ar      2 RES2    0.0000
     37 O6         3.9641   -0.7854    1.4262 O.2       2 RES2    0.0000
     38 N4         4.3220   -0.9367    2.5616 N.pl3     2 RES2    0.0000
     39 C17        4.6753    0.2109    3.3506 C.ar      2 RES2    0.0000
     40 O7         4.3880   -2.0719    3.0849 O.2       2 RES2    0.0000
     41 O8         5.0931   -1.1226    5.2998 O.3       2 RES2    0.0000
     42 H13        4.8954   -1.7159    4.7702 H         2 RES2    0.0000
     43 C18        5.0278    0.0578    4.6875 C.ar      2 RES2    0.0000
     44 C19        5.3524    1.2000    5.4971 C.ar      2 RES2    0.0000
     45 C20        5.6635    1.0455    6.8647 C.ar      2 RES2    0.0000
     46 H14        5.6494    0.1999    7.2516 H         2 RES2    0.0000
     47 C21        5.9834    2.1327    7.6211 C.ar      2 RES2    0.0000
     48 H15        6.1897    2.0184    8.5206 H         2 RES2    0.0000
     49 C22        6.0069    3.4103    7.0739 C.ar      2 RES2    0.0000
     50 H16        6.2422    4.1385    7.6029 H         2 RES2    0.0000
     51 C23        5.6863    3.6003    5.7584 C.ar      2 RES2    0.0000
     52 H17        5.6909    4.4573    5.3991 H         2 RES2    0.0000
     53 C24        5.3509    2.5032    4.9455 C.ar      2 RES2    0.0000
     54 C25        4.9903    2.5778    3.5896 C.ar      2 RES2    0.0000
     55 C26        4.1990    4.2905    0.5694 C.3       2 RES2    0.0000
     56 H18        3.9234    3.8360   -0.2422 H         2 RES2    0.0000
     57 H19        3.4510    4.8330    0.8654 H         2 RES2    0.0000
     58 C27        5.3112    5.1828    0.2394 C.3       2 RES2    0.0000
     59 H20        5.5281    5.6994    1.0325 H         2 RES2    0.0000
     60 H21        5.0063    5.8076   -0.4376 H         2 RES2    0.0000
     61 C28        6.5692    4.5383   -0.2535 C.3       2 RES2    0.0000
     62 H22        7.2218    5.2158   -0.4447 H         2 RES2    0.0000
     63 H23        6.3816    4.0407   -1.0523 H         2 RES2    0.0000
     64 H24        6.9119    3.9463    0.4192 H         2 RES2    0.0000
     65 H25        4.1561    5.1605    0.9957 Du        4 SUP4    0.0000
     66 H26        3.3310    4.1138    0.1728 Du        4 SUP4    0.0000
     67 C29        5.2212    4.3364   -0.5155 Du        4 SUP4    0.0000
     68 H27        5.1536    3.4992   -1.0013 Du        4 SUP4    0.0000
     69 H28        4.9474    5.0361   -1.1302 Du        4 SUP4    0.0000
     70 H29        7.0603    4.5329   -1.0792 Du        4 SUP4    0.0000
     71 H30        6.8936    3.8379    0.3173 Du        4 SUP4    0.0000
     72 H31        6.6864    5.3863    0.1813 Du        4 SUP4    0.0000
     73 O9         2.0818    3.9570    5.1613 O.3       3 RES3    0.0000
     74 N5         1.5995    4.9732    3.2239 N.2       3 RES3    0.0000
     75 C30        1.9869    5.1159    4.4473 C.2       3 RES3    0.0000
     76 C31        1.4117    3.5971    3.0859 C.ar      3 RES3    0.0000
     77 O10        0.5526    4.5719    0.6531 O.2       3 RES3    0.0000
     78 N6         0.6046    3.3539    0.7482 N.pl3     3 RES3    0.0000
     79 C32        0.9902    2.7702    1.9868 C.ar      3 RES3    0.0000
     80 O11        0.2922    2.6122   -0.1977 O.2       3 RES3    0.0000
     81 O12        0.5876    0.5391    1.2032 O.3       3 RES3    0.0000
     82 H32        0.4037    0.9509    0.5184 H         3 RES3    0.0000
     83 C33        0.9370    1.4007    2.1595 C.ar      3 RES3    0.0000
     84 C34        1.2496    0.8040    3.4352 C.ar      3 RES3    0.0000
     85 C35        1.1553   -0.5887    3.6322 C.ar      3 RES3    0.0000
     86 H33        0.9102   -1.1436    2.9276 H         3 RES3    0.0000
     87 C36        1.4245   -1.1185    4.8623 C.ar      3 RES3    0.0000
     88 H34        1.3558   -2.0373    4.9869 H         3 RES3    0.0000
     89 C37        1.7980   -0.3143    5.9302 C.ar      3 RES3    0.0000
     90 H35        1.9709   -0.6984    6.7587 H         3 RES3    0.0000
     91 C38        1.9116    1.0295    5.7764 C.ar      3 RES3    0.0000
     92 H36        2.1705    1.5614    6.4953 H         3 RES3    0.0000
     93 C39        1.6395    1.6155    4.5290 C.ar      3 RES3    0.0000
     94 C40        1.7070    2.9960    4.2660 C.ar      3 RES3    0.0000
     95 C41        2.3215    6.3670    5.1937 C.3       3 RES3    0.0000
     96 H37        3.1175    6.2097    5.7248 H         3 RES3    0.0000
     97 H38        1.5956    6.5697    5.8041 H         3 RES3    0.0000
     98 C42        2.5606    7.5706    4.3071 C.3       3 RES3    0.0000
     99 H39        1.8262    7.6618    3.6796 H         3 RES3    0.0000
    100 H40        2.5908    8.3726    4.8509 H         3 RES3    0.0000
    101 C43        3.8495    7.4325    3.5493 C.3       3 RES3    0.0000
    102 H41        3.9679    8.1944    2.9771 H         3 RES3    0.0000
    103 H42        3.8232    6.6345    3.0182 H         3 RES3    0.0000
    104 H43        4.5805    7.3822    4.1697 H         3 RES3    0.0000
@<TRIPOS>BOND
     1    1    3 1
     2    2    3 2
     3    3   23 1
     4    4    2 1
     5    5    6 2
     6    7    4 ar
     7    8    5 2
     8    9   10 1
     9   11    7 ar
    10   12   11 ar
    11   13   12 ar
    12   14   13 1
    13   15   13 ar
    14   16   15 1
    15   17   15 ar
    16   18   17 1
    17   19   17 ar
    18   20   19 1
    19   21   12 ar
    20   22    1 1
    21   23   24 1
    22   25   23 1
    23   26   23 1
    24   27   26 1
    25   28   26 1
    26   29   26 1
    27   30   29 1
    28   31   29 1
    29   32   29 1
    30   33   35 1
    31   34   35 2
    32   35   55 1
    33   36   34 1
    34   37   38 2
    35   38   39 1
    36   39   36 ar
    37   40   38 2
    38   41   42 1
    39   43   39 ar
    40   44   43 ar
    41   45   44 ar
    42   46   45 1
    43   47   45 ar
    44   48   47 1
    45   49   47 ar
    46   50   49 1
    47   51   49 ar
    48   52   51 1
    49   53   44 ar
    50   54   33 1
    51   55   56 1
    52   57   55 1
    53   58   55 1
    54   59   58 1
    55   60   58 1
    56   61   58 1
    57   62   61 1
    58   63   61 1
    59   64   61 1
    60   73   75 1
    61   74   75 2
    62   75   95 1
    63   76   74 1
    64   77   78 2
    65   78   79 1
    66   79   76 ar
    67   80   78 2
    68   81   82 1
    69   83   79 ar
    70   84   83 ar
    71   85   84 ar
    72   86   85 1
    73   87   85 ar
    74   88   87 1
    75   89   87 ar
    76   90   89 1
    77   91   89 ar
    78   92   91 1
    79   93   84 ar
    80   94   73 1
    81   95   96 1
    82   97   95 1
    83   98   95 1
    84   99   98 1
    85  100   98 1
    86  101   98 1
    87  102  101 1
    88  103  101 1
    89  104  101 1
    90    4   22 ar
    91    5    7 1
    92    9   11 1
    93   19   21 ar
    94   21   22 ar
    95   36   54 ar
    96   41   43 1
    97   51   53 ar
    98   53   54 ar
    99   76   94 ar
   100   81   83 1
   101   91   93 ar
   102   93   94 ar
@<TRIPOS>SUBSTRUCTURE
     1 RES1 1
     2 RES2 33
     3 RES3 73
     4 SUP4 65

@<TRIPOS>CRYSIN
  10.6183   13.3033   14.5230  98.0870  97.1010 106.5230   2 1

