# MOL2 file generated by ConQuest
# Please check atom types

@<TRIPOS>MOLECULE
YAMQUA
    59    59     1
SMALL
NO_CHARGES
****
Generated from CSD

@<TRIPOS>ATOM
      1 C1         4.5733    3.1696    7.6432 C.2       1 RES1    0.0000
      2 C2         5.1141    2.4285    8.8340 C.3       1 RES1    0.0000
      3 H1         5.6344    1.6692    8.5276 H         1 RES1    0.0000
      4 H2         4.3745    2.0899    9.3622 H         1 RES1    0.0000
      5 C3         5.9782    3.3079    9.6974 C.3       1 RES1    0.0000
      6 H3         6.0218    2.9303   10.5908 H         1 RES1    0.0000
      7 H4         6.8777    3.3211    9.3356 H         1 RES1    0.0000
      8 C4         5.4650    4.7080    9.7832 C.3       1 RES1    0.0000
      9 H5         4.5127    4.6078    9.9909 H         1 RES1    0.0000
     10 C5         5.4879    5.3729    8.4182 C.3       1 RES1    0.0000
     11 H6         6.3245    5.8548    8.3217 H         1 RES1    0.0000
     12 H7         4.7686    6.0229    8.3770 H         1 RES1    0.0000
     13 C6         5.3404    4.4008    7.2387 C.3       1 RES1    0.0000
     14 H8         6.2502    4.0845    7.0554 H         1 RES1    0.0000
     15 C7         6.0187    5.5758   10.9225 C.3       1 RES1    0.0000
     16 C8         7.5056    5.6966   10.8492 C.3       1 RES1    0.0000
     17 H9         7.8984    4.8206   10.8454 H         1 RES1    0.0000
     18 H10        7.8248    6.1860   11.6114 H         1 RES1    0.0000
     19 H11        7.7497    6.1603   10.0440 H         1 RES1    0.0000
     20 C9         5.6380    4.9928   12.2789 C.3       1 RES1    0.0000
     21 H12        6.1660    4.2096   12.4504 H         1 RES1    0.0000
     22 H13        4.7071    4.7577   12.2756 H         1 RES1    0.0000
     23 H14        5.8005    5.6453   12.9640 H         1 RES1    0.0000
     24 C10        5.4128    6.9759   10.8676 C.3       1 RES1    0.0000
     25 H15        5.5876    7.4330   11.6933 H         1 RES1    0.0000
     26 H16        4.4634    6.9088   10.7347 H         1 RES1    0.0000
     27 H17        5.8047    7.4661   10.1414 H         1 RES1    0.0000
     28 C11        4.8630    5.0400    5.9075 C.3       1 RES1    0.0000
     29 C12        5.6622    6.3342    5.7061 C.2       1 RES1    0.0000
     30 C13        5.5064    8.6311    5.1099 C.3       1 RES1    0.0000
     31 H18        6.3850    8.6642    5.5212 H         1 RES1    0.0000
     32 H19        4.9709    9.3514    5.4792 H         1 RES1    0.0000
     33 C14        5.6330    8.8000    3.6534 C.3       1 RES1    0.0000
     34 H20        6.2285    8.1326    3.3052 H         1 RES1    0.0000
     35 H21        5.9834    9.6735    3.4624 H         1 RES1    0.0000
     36 H22        4.7707    8.7039    3.2432 H         1 RES1    0.0000
     37 C15        3.3713    5.3704    5.8803 C.2       1 RES1    0.0000
     38 C16        1.5486    6.2216    7.1107 C.3       1 RES1    0.0000
     39 H23        0.9875    5.4325    7.0465 H         1 RES1    0.0000
     40 H24        1.3127    6.8277    6.3913 H         1 RES1    0.0000
     41 C17        1.3587    6.8832    8.4269 C.3       1 RES1    0.0000
     42 H25        1.7038    6.3176    9.1209 H         1 RES1    0.0000
     43 H26        0.4229    7.0388    8.5763 H         1 RES1    0.0000
     44 H27        1.8281    7.7211    8.4346 H         1 RES1    0.0000
     45 C18        5.2219    4.1135    4.7116 C.3       1 RES1    0.0000
     46 H28        6.0753    3.6945    4.9014 H         1 RES1    0.0000
     47 H29        4.5585    3.4080    4.6667 H         1 RES1    0.0000
     48 C19        5.3072    4.7486    3.3800 C.2       1 RES1    0.0000
     49 H30        4.5511    5.1849    3.0595 H         1 RES1    0.0000
     50 C20        6.3559    4.7378    2.6355 C.2       1 RES1    0.0000
     51 H31        7.1285    4.3106    2.9267 H         1 RES1    0.0000
     52 H32        6.3405    5.1584    1.8065 H         1 RES1    0.0000
     53 N1         3.5451    2.8417    6.9702 N.2       1 RES1    0.0000
     54 O1         2.9778    1.6485    7.4574 O.3       1 RES1    0.0000
     55 H33        2.2754    1.4987    7.0620 H         1 RES1    0.0000
     56 O2         2.6789    5.2197    4.9027 O.2       1 RES1    0.0000
     57 O3         2.9467    5.8548    7.0242 O.3       1 RES1    0.0000
     58 O4         4.8771    7.3537    5.3975 O.3       1 RES1    0.0000
     59 O5         6.8499    6.3855    5.7707 O.2       1 RES1    0.0000
@<TRIPOS>BOND
     1    1    2 1
     2    2    3 1
     3    4    2 1
     4    5    2 1
     5    6    5 1
     6    7    5 1
     7    8    5 1
     8    9    8 1
     9   10    8 1
    10   11   10 1
    11   12   10 1
    12   13    1 1
    13   14   13 1
    14   15    8 1
    15   16   15 1
    16   17   16 1
    17   18   16 1
    18   19   16 1
    19   20   15 1
    20   21   20 1
    21   22   20 1
    22   23   20 1
    23   24   15 1
    24   25   24 1
    25   26   24 1
    26   27   24 1
    27   28   13 1
    28   29   28 1
    29   30   31 1
    30   32   30 1
    31   33   30 1
    32   34   33 1
    33   35   33 1
    34   36   33 1
    35   37   28 1
    36   38   39 1
    37   40   38 1
    38   41   38 1
    39   42   41 1
    40   43   41 1
    41   44   41 1
    42   45   28 1
    43   46   45 1
    44   47   45 1
    45   48   45 1
    46   49   48 1
    47   50   48 2
    48   51   50 1
    49   52   50 1
    50   53    1 2
    51   54   53 1
    52   55   54 1
    53   56   37 2
    54   57   37 1
    55   58   29 1
    56   59   29 2
    57   10   13 1
    58   30   58 1
    59   38   57 1
@<TRIPOS>SUBSTRUCTURE
     1 RES1 1

@<TRIPOS>CRYSIN
  11.8390    8.2800   22.7740  90.0000 103.5720  90.0000 231 1

