# MOL2 file generated by ConQuest
# Please check atom types

@<TRIPOS>MOLECULE
YAMRIP
   136   136     4
SMALL
NO_CHARGES
****
Generated from CSD

@<TRIPOS>ATOM
      1 C1         1.1813    4.3082   13.3592 C.2       1 RES1    0.0000
      2 C2         1.9611    4.7892   14.5528 C.3       1 RES1    0.0000
      3 H1         2.5345    5.5521   14.2521 H         1 RES1    0.0000
      4 C3         0.9866    5.3305   15.5800 C.3       1 RES1    0.0000
      5 H2         1.4981    5.6629   16.3613 H         1 RES1    0.0000
      6 H3         0.4086    4.5901   15.8921 H         1 RES1    0.0000
      7 C4         0.1010    6.4595   15.0584 C.3       1 RES1    0.0000
      8 H4         0.7193    7.1494   14.6803 H         1 RES1    0.0000
      9 C5        -0.6863    5.9013   13.8785 C.3       1 RES1    0.0000
     10 H5        -1.3212    5.2197   14.2134 H         1 RES1    0.0000
     11 H6        -1.2157    6.6334   13.4731 H         1 RES1    0.0000
     12 C6         0.1819    5.2730   12.8034 C.3       1 RES1    0.0000
     13 H7        -0.3976    4.8004   12.1565 H         1 RES1    0.0000
     14 H8         0.6612    5.9897   12.3160 H         1 RES1    0.0000
     15 C7         2.8653    3.7528   15.1427 C.3       1 RES1    0.0000
     16 H9         2.3256    3.0460   15.5550 H         1 RES1    0.0000
     17 H10        3.4365    4.1665   15.8238 H         1 RES1    0.0000
     18 H11        3.4240    3.3672   14.4366 H         1 RES1    0.0000
     19 C8        -0.7513    7.1817   16.1199 C.3       1 RES1    0.0000
     20 C9        -1.6368    6.1930   16.8624 C.3       1 RES1    0.0000
     21 H12       -2.1186    6.6600   17.5754 H         1 RES1    0.0000
     22 H13       -1.0814    5.4848   17.2496 H         1 RES1    0.0000
     23 H14       -2.2801    5.7975   16.2360 H         1 RES1    0.0000
     24 C10        0.1455    7.8436   17.1426 C.3       1 RES1    0.0000
     25 H15       -0.4002    8.1984   17.8760 H         1 RES1    0.0000
     26 H16        0.6393    8.5771   16.7189 H         1 RES1    0.0000
     27 H17        0.7792    7.1859   17.4979 H         1 RES1    0.0000
     28 C11       -1.6106    8.2784   15.4935 C.3       1 RES1    0.0000
     29 H18       -2.3174    7.8703   14.9514 H         1 RES1    0.0000
     30 H19       -1.0497    8.8463   14.9218 H         1 RES1    0.0000
     31 H20       -2.0124    8.8225   16.2019 H         1 RES1    0.0000
     32 N1         1.4133    3.1189   12.9219 N.2       1 RES1    0.0000
     33 O1         0.6083    2.8090   11.8057 O.3       1 RES1    0.0000
     34 H21        0.8792    2.0952   11.4550 H         1 RES1    0.0000
     35 C12        6.1233    2.2396   11.4208 C.2       2 RES2    0.0000
     36 C13        5.6590    1.4627   10.2318 C.3       2 RES2    0.0000
     37 H22        4.9110    0.8835   10.5507 H         2 RES2    0.0000
     38 C14        5.0530    2.4149    9.1977 C.3       2 RES2    0.0000
     39 H23        4.6775    1.8792    8.4551 H         2 RES2    0.0000
     40 H24        5.7735    2.9801    8.8241 H         2 RES2    0.0000
     41 C15        3.9542    3.3237    9.7489 C.3       2 RES2    0.0000
     42 H25        3.2558    2.7207   10.1316 H         2 RES2    0.0000
     43 C16        4.5314    4.1062   10.9197 C.3       2 RES2    0.0000
     44 H26        5.2199    4.7331   10.5803 H         2 RES2    0.0000
     45 H27        3.8122    4.6447   11.3342 H         2 RES2    0.0000
     46 C17        5.1495    3.2129   11.9697 C.3       2 RES2    0.0000
     47 H28        5.6061    3.7781   12.6417 H         2 RES2    0.0000
     48 H29        4.4285    2.7179   12.4321 H         2 RES2    0.0000
     49 C18        6.6836    0.5357    9.6373 C.3       2 RES2    0.0000
     50 H30        7.3960    1.0616    9.2182 H         2 RES2    0.0000
     51 H31        6.2580   -0.0323    8.9631 H         2 RES2    0.0000
     52 H32        7.0645   -0.0252   10.3457 H         2 RES2    0.0000
     53 C19        3.2518    4.1665    8.6670 C.3       2 RES2    0.0000
     54 C20        4.2016    5.0711    7.9290 C.3       2 RES2    0.0000
     55 H33        4.6329    5.6797    8.5645 H         2 RES2    0.0000
     56 H34        3.7070    5.5914    7.2616 H         2 RES2    0.0000
     57 H35        4.8857    4.5312    7.4802 H         2 RES2    0.0000
     58 C21        2.1708    5.0038    9.2706 C.3       2 RES2    0.0000
     59 H36        2.5683    5.7807    9.7147 H         2 RES2    0.0000
     60 H37        1.6727    4.4709    9.9266 H         2 RES2    0.0000
     61 H38        1.5611    5.3081    8.5667 H         2 RES2    0.0000
     62 C22        2.6031    3.1947    7.6488 C.3       2 RES2    0.0000
     63 H39        1.9439    3.6799    7.1090 H         2 RES2    0.0000
     64 H40        2.1591    2.4654    8.1294 H         2 RES2    0.0000
     65 H41        3.2964    2.8258    7.0611 H         2 RES2    0.0000
     66 N2         7.2987    1.9956   11.8445 N.2       2 RES2    0.0000
     67 O2         7.6220    2.7950   12.9765 O.3       2 RES2    0.0000
     68 H42        7.7544    3.5873   12.7305 H         2 RES2    0.0000
     69 C23        4.2190    8.2573   13.4070 C.2       3 RES3    0.0000
     70 C24        4.6629    9.0805   14.5801 C.3       3 RES3    0.0000
     71 H43        5.3707    9.7046   14.2475 H         3 RES3    0.0000
     72 C25        5.3113    8.1886   15.6074 C.3       3 RES3    0.0000
     73 H44        4.6131    7.6206   16.0196 H         3 RES3    0.0000
     74 H45        5.6947    8.7566   16.3226 H         3 RES3    0.0000
     75 C26        6.4183    7.2813   15.0584 C.3       3 RES3    0.0000
     76 H46        7.0942    7.8899   14.6416 H         3 RES3    0.0000
     77 C27        5.8498    6.4426   13.9195 C.3       3 RES3    0.0000
     78 H47        5.1635    5.8256   14.2771 H         3 RES3    0.0000
     79 H48        6.5740    5.8957   13.5232 H         3 RES3    0.0000
     80 C28        5.2259    7.3177   12.8353 C.3       3 RES3    0.0000
     81 H49        5.9382    7.8352   12.3820 H         3 RES3    0.0000
     82 H50        4.7906    6.7399   12.1588 H         3 RES3    0.0000
     83 C29        3.5830    9.9290   15.1928 C.3       3 RES3    0.0000
     84 H51        3.3226   10.6330   14.5641 H         3 RES3    0.0000
     85 H52        3.9160   10.3371   16.0196 H         3 RES3    0.0000
     86 H53        2.8040    9.3694   15.3978 H         3 RES3    0.0000
     87 C30        7.1771    6.4651   16.1335 C.3       3 RES3    0.0000
     88 C31        6.2221    5.6040   16.9740 C.3       3 RES3    0.0000
     89 H54        6.7419    5.0613   17.6050 H         3 RES3    0.0000
     90 H55        5.7080    5.0150   16.3818 H         3 RES3    0.0000
     91 H56        5.6093    6.1846   17.4706 H         3 RES3    0.0000
     92 C32        8.2166    5.5801   15.4775 C.3       3 RES3    0.0000
     93 H57        8.8412    6.1341   14.9650 H         3 RES3    0.0000
     94 H58        7.7729    4.9463   14.8762 H         3 RES3    0.0000
     95 H59        8.7075    5.0865   16.1677 H         3 RES3    0.0000
     96 C33        7.9434    7.3822   17.0446 C.3       3 RES3    0.0000
     97 H60        7.3249    8.0175   17.4638 H         3 RES3    0.0000
     98 H61        8.6145    7.8731   16.5253 H         3 RES3    0.0000
     99 H62        8.3893    6.8535   17.7394 H         3 RES3    0.0000
    100 N3         3.0472    8.4410   12.9651 N.2       3 RES3    0.0000
    101 O3         2.7266    7.6543   11.8331 O.3       3 RES3    0.0000
    102 H63        2.0184    7.9404   11.4846 H         3 RES3    0.0000
    103 C34        2.1668   13.1952   11.4162 C.2       4 RES4    0.0000
    104 C35        1.3629   12.7408   10.2295 C.3       4 RES4    0.0000
    105 H64        0.7588   12.0186   10.5644 H         4 RES4    0.0000
    106 C36        2.2562   12.0929    9.1977 C.3       4 RES4    0.0000
    107 H65        2.8211   12.7941    8.7831 H         4 RES4    0.0000
    108 H66        1.6875   11.7086    8.4847 H         4 RES4    0.0000
    109 C37        3.1690   10.9906    9.7444 C.3       4 RES4    0.0000
    110 H67        2.5650   10.3062   10.1521 H         4 RES4    0.0000
    111 C38        3.9938   11.5712   10.8924 C.3       4 RES4    0.0000
    112 H68        4.5386   10.8518   11.3001 H         4 RES4    0.0000
    113 H69        4.6113   12.2584   10.5370 H         4 RES4    0.0000
    114 C39        3.1149   12.1925   11.9561 C.3       4 RES4    0.0000
    115 H70        2.6018   11.4772   12.4094 H         4 RES4    0.0000
    116 H71        3.6904   12.6272   12.6349 H         4 RES4    0.0000
    117 C40        0.4605   13.7996    9.6305 C.3       4 RES4    0.0000
    118 H72       -0.1455   14.1404   10.3229 H         4 RES4    0.0000
    119 H73       -0.0642   13.4069    8.9039 H         4 RES4    0.0000
    120 H74        1.0048   14.5345    9.2820 H         4 RES4    0.0000
    121 C41        3.9829   10.2515    8.6579 C.3       4 RES4    0.0000
    122 C42        4.8212   11.1799    7.8242 C.3       4 RES4    0.0000
    123 H75        4.2433   11.6806    7.2115 H         4 RES4    0.0000
    124 H76        5.4698   10.6582    7.3071 H         4 RES4    0.0000
    125 H77        5.2977   11.8054    8.4096 H         4 RES4    0.0000
    126 C43        4.8741    9.2530    9.2956 C.3       4 RES4    0.0000
    127 H78        5.5575    9.7158    9.8241 H         4 RES4    0.0000
    128 H79        5.3061    8.7117    8.6032 H         4 RES4    0.0000
    129 H80        4.3463    8.6724    9.8833 H         4 RES4    0.0000
    130 C44        3.0301    9.4886    7.7467 C.3       4 RES4    0.0000
    131 H81        2.4958    8.8646    8.2820 H         4 RES4    0.0000
    132 H82        3.5454    8.9894    7.0793 H         4 RES4    0.0000
    133 H83        2.4337   10.1225    7.2935 H         4 RES4    0.0000
    134 N4         1.9780   14.3732   11.8240 N.2       4 RES4    0.0000
    135 O4         2.7628   14.7406   12.9537 O.3       4 RES4    0.0000
    136 H84        3.3672   14.1684   13.0722 H         4 RES4    0.0000
@<TRIPOS>BOND
     1    1    2 1
     2    2    3 1
     3    4    2 1
     4    5    4 1
     5    6    4 1
     6    7    4 1
     7    8    7 1
     8    9    7 1
     9   10    9 1
    10   11    9 1
    11   12    1 1
    12   13   12 1
    13   14   12 1
    14   15    2 1
    15   16   15 1
    16   17   15 1
    17   18   15 1
    18   19    7 1
    19   20   19 1
    20   21   20 1
    21   22   20 1
    22   23   20 1
    23   24   19 1
    24   25   24 1
    25   26   24 1
    26   27   24 1
    27   28   19 1
    28   29   28 1
    29   30   28 1
    30   31   28 1
    31   32    1 2
    32   33   32 1
    33   34   33 1
    34   35   36 1
    35   36   37 1
    36   38   36 1
    37   39   38 1
    38   40   38 1
    39   41   38 1
    40   42   41 1
    41   43   41 1
    42   44   43 1
    43   45   43 1
    44   46   35 1
    45   47   46 1
    46   48   46 1
    47   49   36 1
    48   50   49 1
    49   51   49 1
    50   52   49 1
    51   53   41 1
    52   54   53 1
    53   55   54 1
    54   56   54 1
    55   57   54 1
    56   58   53 1
    57   59   58 1
    58   60   58 1
    59   61   58 1
    60   62   53 1
    61   63   62 1
    62   64   62 1
    63   65   62 1
    64   66   35 2
    65   67   66 1
    66   68   67 1
    67   69   70 1
    68   70   71 1
    69   72   70 1
    70   73   72 1
    71   74   72 1
    72   75   72 1
    73   76   75 1
    74   77   75 1
    75   78   77 1
    76   79   77 1
    77   80   69 1
    78   81   80 1
    79   82   80 1
    80   83   70 1
    81   84   83 1
    82   85   83 1
    83   86   83 1
    84   87   75 1
    85   88   87 1
    86   89   88 1
    87   90   88 1
    88   91   88 1
    89   92   87 1
    90   93   92 1
    91   94   92 1
    92   95   92 1
    93   96   87 1
    94   97   96 1
    95   98   96 1
    96   99   96 1
    97  100   69 2
    98  101  100 1
    99  102  101 1
   100  103  104 1
   101  104  105 1
   102  106  104 1
   103  107  106 1
   104  108  106 1
   105  109  106 1
   106  110  109 1
   107  111  109 1
   108  112  111 1
   109  113  111 1
   110  114  103 1
   111  115  114 1
   112  116  114 1
   113  117  104 1
   114  118  117 1
   115  119  117 1
   116  120  117 1
   117  121  109 1
   118  122  121 1
   119  123  122 1
   120  124  122 1
   121  125  122 1
   122  126  121 1
   123  127  126 1
   124  128  126 1
   125  129  126 1
   126  130  121 1
   127  131  130 1
   128  132  130 1
   129  133  130 1
   130  134  103 2
   131  135  134 1
   132  136  135 1
   133    9   12 1
   134   43   46 1
   135   77   80 1
   136  111  114 1
@<TRIPOS>SUBSTRUCTURE
     1 RES1 1
     2 RES2 35
     3 RES3 69
     4 RES4 103

@<TRIPOS>CRYSIN
  14.0260   14.0240   22.7930  90.0000  92.0910  90.0000   9 1

