# MOL2 file generated by ConQuest
# Please check atom types

@<TRIPOS>MOLECULE
YANREM
    13    13     1
SMALL
USER_CHARGES
****
Generated from CSD

@<TRIPOS>ATOM
      1 O1        -0.1026    5.4572    2.2088 O.2       1 RES1   -1.0000
      2 O2         0.2072    4.6551    0.2112 O.2       1 RES1   -1.0000
      3 N1         1.7508    4.0911    3.1513 N.pl3     1 RES1    0.0000
      4 N2         1.2479    3.2708    4.1269 N.2       1 RES1    0.0000
      5 N3         1.6704    3.7173    5.2492 N.2       1 RES1    0.0000
      6 N4         2.4389    4.8188    5.0197 N.pl3     1 RES1    1.0000
      7 N5         1.4980    3.9064    1.8041 N.2       1 RES1    0.0000
      8 N6         0.4844    4.7163    1.4227 N.pl3     1 RES1    1.0000
      9 N7         3.0995    6.0427    3.0815 N.3       1 RES1    0.0000
     10 C1         2.4848    5.0708    3.7116 C.2       1 RES1    0.0000
     11 H1         2.7177    5.3861    5.7489 H         1 RES1    0.0000
     12 H2         3.1429    6.0421    2.1945 H         1 RES1    0.0000
     13 H3         3.5774    6.5273    3.5338 H         1 RES1    0.0000
@<TRIPOS>BOND
     1    1    8 1
     2    2    8 1
     3    3    4 1
     4    4    5 2
     5    5    6 1
     6    6   10 2
     7    7    3 1
     8    8    7 2
     9    9   10 1
    10   10    3 1
    11   11    6 1
    12   12    9 1
    13   13    9 1
@<TRIPOS>SUBSTRUCTURE
     1 RES1 1

@<TRIPOS>CRYSIN
   9.2439    5.5129   10.3026  90.0000  90.0000  90.0000  33 1

