# MOL2 file generated by ConQuest
# Please check atom types

@<TRIPOS>MOLECULE
YANSIR
    16    16     1
SMALL
USER_CHARGES
****
Generated from CSD

@<TRIPOS>ATOM
      1 N1         3.2473    0.6990    3.0052 N.pl3     1 RES1    0.0000
      2 N2         2.1745   -0.4454    1.4418 N.pl3     1 RES1    0.0000
      3 N3         4.8136    0.8885    4.4130 N.pl3     1 RES1    0.0000
      4 N4         3.3358   -0.9577    4.6800 N.pl3     1 RES1    1.0000
      5 N5         2.0060    0.4163    2.4485 N.2       1 RES1   -1.0000
      6 O1         1.1002   -0.7554    0.8666 O.2       1 RES1    0.0000
      7 N6         4.9125    1.9242    3.5201 N.2       1 RES1    0.0000
      8 C1         3.7744    0.1192    4.0933 C.2       1 RES1    0.0000
      9 O2         3.2638   -0.8862    1.0880 O.2       1 RES1    0.0000
     10 N7         3.9608    1.8166    2.6810 N.2       1 RES1    0.0000
     11 C2         5.7267    0.7431    5.5273 C.3       1 RES1    0.0000
     12 H1         5.2160    0.6646    6.3605 H         1 RES1    0.0000
     13 H2         6.3109    1.5287    5.5760 H         1 RES1    0.0000
     14 H3         6.2712   -0.0616    5.4012 H         1 RES1    0.0000
     15 H4         3.7845   -1.3316    5.3325 H         1 RES1    0.0000
     16 H5         2.6037   -1.3549    4.3382 H         1 RES1    0.0000
@<TRIPOS>BOND
     1    1    5 1
     2    2    5 1
     3    3    7 1
     4    4    8 2
     5    6    2 2
     6    7   10 2
     7    8    1 1
     8    9    2 2
     9   10    1 1
    10   11    3 1
    11   12   11 1
    12   13   11 1
    13   14   11 1
    14   15    4 1
    15   16    4 1
    16    3    8 1
@<TRIPOS>SUBSTRUCTURE
     1 RES1 1

@<TRIPOS>CRYSIN
   8.8549    5.8149   12.8131  90.0000 102.8720  90.0000 231 1

