# MOL2 file generated by ConQuest
# Please check atom types

@<TRIPOS>MOLECULE
YANWAN
    24    25     1
SMALL
NO_CHARGES
****
Generated from CSD

@<TRIPOS>ATOM
      1 O1         4.2163    2.1555    8.3343 O.3       1 RES1    0.0000
      2 O2         7.2987    6.9022    4.3289 O.2       1 RES1    0.0000
      3 O3         8.8803    6.8873    5.8041 O.2       1 RES1    0.0000
      4 O4         1.0980    3.4103    5.5277 O.2       1 RES1    0.0000
      5 O5         0.7624    1.4564    6.4233 O.2       1 RES1    0.0000
      6 N1         6.8205    7.4869    6.4364 N.3       1 RES1    0.0000
      7 N2         6.9238    5.7994    8.0916 N.3       1 RES1    0.0000
      8 N3         5.0964    5.8519    6.7042 N.3       1 RES1    0.0000
      9 N4         5.5405    3.9875    8.1106 N.2       1 RES1    0.0000
     10 N5         2.9837    1.6655    7.8361 N.2       1 RES1    0.0000
     11 N6         3.4465    3.6905    6.8951 N.2       1 RES1    0.0000
     12 N7         7.7170    7.0300    5.4586 N.pl3     1 RES1    0.0000
     13 N8         1.4011    2.4872    6.2596 N.pl3     1 RES1    0.0000
     14 C1         7.2067    7.1931    7.8061 C.3       1 RES1    0.0000
     15 H1         8.1726    7.3723    7.9288 H         1 RES1    0.0000
     16 H2         6.7020    7.7733    8.4298 H         1 RES1    0.0000
     17 C2         5.8249    5.2167    7.6170 C.2       1 RES1    0.0000
     18 C3         5.4282    7.1843    6.1814 C.3       1 RES1    0.0000
     19 H3         5.2547    7.2119    5.2068 H         1 RES1    0.0000
     20 H4         4.8547    7.8651    6.6160 H         1 RES1    0.0000
     21 C4         4.4305    3.3714    7.7343 C.2       1 RES1    0.0000
     22 C5         2.6391    2.6176    7.0370 C.2       1 RES1    0.0000
     23 H5         4.3751    5.5231    6.4551 H         1 RES1    0.0000
     24 H6         7.3447    5.4024    8.6371 H         1 RES1    0.0000
@<TRIPOS>BOND
     1    1   10 1
     2    2   12 2
     3    3   12 2
     4    4   13 2
     5    5   13 2
     6    6   12 1
     7    7   14 1
     8    8   17 1
     9    9   17 2
    10   10   22 2
    11   11   21 2
    12   13   22 1
    13   14    6 1
    14   15   14 1
    15   16   14 1
    16   17    7 1
    17   18    6 1
    18   19   18 1
    19   20   18 1
    20   21    1 1
    21   22   11 1
    22   23    8 1
    23   24    7 1
    24    8   18 1
    25    9   21 1
@<TRIPOS>SUBSTRUCTURE
     1 RES1 1

@<TRIPOS>CRYSIN
   6.2935    8.7210    9.5100  86.0500  72.9450  75.4860   2 1

