# MOL2 file generated by ConQuest
# Please check atom types

@<TRIPOS>MOLECULE
YANWER
    16    16     1
SMALL
NO_CHARGES
****
Generated from CSD

@<TRIPOS>ATOM
      1 O1         1.3920    9.7382    4.9987 O.3       1 RES1    0.0000
      2 O2         1.0430    5.8498    4.0419 O.2       1 RES1    0.0000
      3 O3        -0.1899    5.7576    5.8238 O.2       1 RES1    0.0000
      4 N1         1.3913    8.4618    4.3927 N.2       1 RES1    0.0000
      5 N2         0.3194    8.3623    6.3929 N.2       1 RES1    0.0000
      6 N3         0.6407   10.7240    6.8968 N.2       1 RES1    0.0000
      7 N4        -0.4276    9.6142    8.7034 N.3       1 RES1    0.0000
      8 N5         0.0071   11.8570    8.7554 N.3       1 RES1    0.0000
      9 N6         0.5196    6.3421    5.0303 N.pl3     1 RES1    0.0000
     10 C1         0.7563    7.7674    5.2835 C.2       1 RES1    0.0000
     11 C2         0.7345    9.6115    6.1965 C.2       1 RES1    0.0000
     12 C3         0.0589   10.6977    8.1154 C.2       1 RES1    0.0000
     13 H1        -0.7667    9.6922    9.5173 H         1 RES1    0.0000
     14 H2        -0.3940    8.8648    8.2998 H         1 RES1    0.0000
     15 H3        -0.4467   11.9393    9.4943 H         1 RES1    0.0000
     16 H4         0.3289   12.5655    8.3702 H         1 RES1    0.0000
@<TRIPOS>BOND
     1    1    4 1
     2    2    9 2
     3    3    9 2
     4    4   10 2
     5    5   10 1
     6    6   11 1
     7    7   12 1
     8    8   12 1
     9    9   10 1
    10   11    1 1
    11   12    6 2
    12   13    7 1
    13   14    7 1
    14   15    8 1
    15   16    8 1
    16    5   11 2
@<TRIPOS>SUBSTRUCTURE
     1 RES1 1

@<TRIPOS>CRYSIN
   3.6038   12.4980   14.4820  90.0000  96.9890  90.0000 231 1

