# MOL2 file generated by ConQuest
# Please check atom types

@<TRIPOS>MOLECULE
YAPDEA
    50    53     1
SMALL
NO_CHARGES
****
Generated from CSD

@<TRIPOS>ATOM
      1 N1         0.8752    4.0181   -0.2114 N.ar      1 RES1    0.0000
      2 N2         0.7925    2.3809   -2.3085 N.ar      1 RES1    0.0000
      3 N3         0.1509    7.0945    1.2958 N.2       1 RES1    0.0000
      4 O1         1.0450    0.9267    1.6957 O.3       1 RES1    0.0000
      5 O2         1.2301    2.8404    3.7349 O.3       1 RES1    0.0000
      6 O3         1.2882    1.2268    5.3315 O.3       1 RES1    0.0000
      7 O4         1.1162   -0.7700    3.2073 O.3       1 RES1    0.0000
      8 O5        -1.4718   -0.1700    2.5126 O.3       1 RES1    0.0000
      9 H1        -1.7896    0.2746    1.9005 H         1 RES1    0.0000
     10 O6        -2.3034    0.4788    5.1605 O.3       1 RES1    0.0000
     11 O7        -0.0958    8.3506    0.7409 O.3       1 RES1    0.0000
     12 H2        -0.3912    8.8516    1.3188 H         1 RES1    0.0000
     13 C1         0.5936    6.2876    0.4200 C.2       1 RES1    0.0000
     14 H3         0.7627    6.5778   -0.4463 H         1 RES1    0.0000
     15 C2         0.8317    4.8947    0.7988 C.ar      1 RES1    0.0000
     16 C3         0.9594    4.5247    2.1284 C.ar      1 RES1    0.0000
     17 H4         0.9696    5.1652    2.8032 H         1 RES1    0.0000
     18 C4         1.0697    3.2055    2.4193 C.ar      1 RES1    0.0000
     19 C5         1.0131    2.2634    1.3988 C.ar      1 RES1    0.0000
     20 C6         0.9340    2.6945    0.0654 C.ar      1 RES1    0.0000
     21 C7         0.9050    1.7753   -1.1170 C.ar      1 RES1    0.0000
     22 C8         0.9717    0.4052   -1.0320 C.ar      1 RES1    0.0000
     23 H5         1.0465   -0.0052   -0.2006 H         1 RES1    0.0000
     24 C9         0.9267   -0.3596   -2.1763 C.ar      1 RES1    0.0000
     25 H6         0.9783   -1.2861   -2.1212 H         1 RES1    0.0000
     26 C10        0.8085    0.2446   -3.3818 C.ar      1 RES1    0.0000
     27 H7         0.7656   -0.2508   -4.1671 H         1 RES1    0.0000
     28 C11        0.7540    1.6167   -3.4019 C.ar      1 RES1    0.0000
     29 H8         0.6865    2.0385   -4.2273 H         1 RES1    0.0000
     30 C12        1.5683    1.4727    3.9981 C.3       1 RES1    0.0000
     31 H9         2.5255    1.3390    3.8387 H         1 RES1    0.0000
     32 C13        0.7714    0.5659    3.0647 C.3       1 RES1    0.0000
     33 C14       -0.7170    0.6705    3.3640 C.3       1 RES1    0.0000
     34 H10       -0.9986    1.5970    3.2144 H         1 RES1    0.0000
     35 C15       -0.9253    0.3358    4.8403 C.3       1 RES1    0.0000
     36 H11       -0.6372   -0.5845    5.0171 H         1 RES1    0.0000
     37 C16       -0.1067    1.3037    5.6878 C.3       1 RES1    0.0000
     38 H12       -0.4253    2.2157    5.5236 H         1 RES1    0.0000
     39 C17       -0.1771    1.0219    7.1751 C.3       1 RES1    0.0000
     40 H13        0.1437    0.1337    7.3489 H         1 RES1    0.0000
     41 H14       -1.0864    1.0965    7.4718 H         1 RES1    0.0000
     42 H15        0.3679    1.6561    7.6473 H         1 RES1    0.0000
     43 C18        2.4065   -1.1752    2.7362 C.3       1 RES1    0.0000
     44 H16        2.4043   -1.1980    1.7777 H         1 RES1    0.0000
     45 H17        2.6111   -2.0499    3.0765 H         1 RES1    0.0000
     46 H18        3.0691   -0.5513    3.0388 H         1 RES1    0.0000
     47 C19       -2.8760   -0.6778    5.7467 C.3       1 RES1    0.0000
     48 H19       -2.7251   -1.4343    5.1751 H         1 RES1    0.0000
     49 H20       -3.8202   -0.5451    5.8596 H         1 RES1    0.0000
     50 H21       -2.4704   -0.8374    6.6017 H         1 RES1    0.0000
@<TRIPOS>BOND
     1    1   15 ar
     2    2   21 ar
     3    3   11 1
     4    4   19 1
     5    5   18 1
     6    6   30 1
     7    7   32 1
     8    8    9 1
     9   10   35 1
    10   11   12 1
    11   13    3 2
    12   14   13 1
    13   15   13 1
    14   16   15 ar
    15   17   16 1
    16   18   16 ar
    17   19   18 ar
    18   20    1 ar
    19   21   20 1
    20   22   21 ar
    21   23   22 1
    22   24   22 ar
    23   25   24 1
    24   26   24 ar
    25   27   26 1
    26   28    2 ar
    27   29   28 1
    28   30    5 1
    29   31   30 1
    30   32    4 1
    31   33    8 1
    32   34   33 1
    33   35   33 1
    34   36   35 1
    35   37    6 1
    36   38   37 1
    37   39   37 1
    38   40   39 1
    39   41   39 1
    40   42   39 1
    41   43    7 1
    42   44   43 1
    43   45   43 1
    44   46   43 1
    45   47   10 1
    46   48   47 1
    47   49   47 1
    48   50   47 1
    49   19   20 ar
    50   26   28 ar
    51   30   32 1
    52   32   33 1
    53   35   37 1
@<TRIPOS>SUBSTRUCTURE
     1 RES1 1

@<TRIPOS>CRYSIN
   7.2572   10.3636   25.0730  90.0000  90.0000  90.0000  19 1

