# MOL2 file generated by ConQuest
# Please check atom types

@<TRIPOS>MOLECULE
YAPGUU
    88    88     2
SMALL
NO_CHARGES
****
Generated from CSD

@<TRIPOS>ATOM
      1 C1         0.5581    6.5455    8.8900 C.2       1 RES1    0.0000
      2 C2         0.6497    5.1106    8.4536 C.3       1 RES1    0.0000
      3 H1         1.5527    4.7468    8.6793 H         1 RES1    0.0000
      4 C3        -0.4208    4.2643    9.1111 C.3       1 RES1    0.0000
      5 H2        -0.3537    4.3714   10.0932 H         1 RES1    0.0000
      6 H3        -1.3090    4.5975    8.8318 H         1 RES1    0.0000
      7 C4        -0.3217    2.7959    8.7713 C.ar      1 RES1    0.0000
      8 C5         0.4732    1.8505    9.4202 C.ar      1 RES1    0.0000
      9 C6         0.4519    0.4957    9.1087 C.ar      1 RES1    0.0000
     10 H4         1.0020   -0.1087    9.5921 H         1 RES1    0.0000
     11 C7        -0.3611    0.0275    8.1029 C.ar      1 RES1    0.0000
     12 C8        -1.1731    0.9639    7.4094 C.ar      1 RES1    0.0000
     13 C9        -1.1429    2.2973    7.7528 C.ar      1 RES1    0.0000
     14 H5        -1.7017    2.9032    7.2807 H         1 RES1    0.0000
     15 C10       -0.5315    7.4210    8.3467 C.3       1 RES1    0.0000
     16 H6        -0.9077    7.9616    9.0715 H         1 RES1    0.0000
     17 H7        -1.2351    6.8615    7.9560 H         1 RES1    0.0000
     18 H8        -0.1623    8.0109    7.6576 H         1 RES1    0.0000
     19 C11        1.4801    5.2193    6.2441 C.2       1 RES1    0.0000
     20 H9         1.3411    5.1990    5.3048 H         1 RES1    0.0000
     21 C12       -2.8009    1.3277    5.6908 C.3       1 RES1    0.0000
     22 H10       -3.3893    1.8045    6.3134 H         1 RES1    0.0000
     23 H11       -3.3437    0.8146    5.0564 H         1 RES1    0.0000
     24 H12       -2.2492    1.9741    5.2024 H         1 RES1    0.0000
     25 C13        0.3279   -2.2756    8.3721 C.3       1 RES1    0.0000
     26 H13        0.3962   -2.0669    9.3481 H         1 RES1    0.0000
     27 C14        1.6930   -2.2944    7.7730 C.3       1 RES1    0.0000
     28 H14        1.6286   -2.5017    6.8167 H         1 RES1    0.0000
     29 H15        2.2364   -2.9771    8.2196 H         1 RES1    0.0000
     30 H16        2.1127   -1.4161    7.8885 H         1 RES1    0.0000
     31 C15       -0.4074   -3.5757    8.1898 C.3       1 RES1    0.0000
     32 H17       -1.3180   -3.4873    8.5421 H         1 RES1    0.0000
     33 H18        0.0621   -4.2874    8.6728 H         1 RES1    0.0000
     34 H19       -0.4465   -3.7989    7.2371 H         1 RES1    0.0000
     35 N1         1.4336    6.8921    9.7462 N.2       1 RES1    0.0000
     36 N2         1.3757    2.2311   10.5108 N.pl3     1 RES1    0.0000
     37 O1         1.2917    8.2308   10.1538 O.3       1 RES1    0.0000
     38 H20        1.8143    8.3863   10.7925 H         1 RES1    0.0000
     39 O2         2.6066    5.4222    6.6402 O.2       1 RES1    0.0000
     40 O3         0.4338    5.0245    7.0171 O.3       1 RES1    0.0000
     41 O4         1.7654    3.3965   10.5866 O.2       1 RES1    0.0000
     42 O5         1.6869    1.3697   11.3256 O.2       1 RES1    0.0000
     43 O6        -0.4858   -1.2630    7.7140 O.3       1 RES1    0.0000
     44 O7        -1.9485    0.4302    6.4284 O.3       1 RES1    0.0000
     45 C16        4.2566    7.7862   12.8166 C.2       2 RES2    0.0000
     46 C17        4.1617    9.1965   13.3133 C.3       2 RES2    0.0000
     47 H21        3.2372    9.5444   13.1540 H         2 RES2    0.0000
     48 C18        5.1740   10.1183   12.6471 C.3       2 RES2    0.0000
     49 H22        6.0874    9.8198   12.8883 H         2 RES2    0.0000
     50 H23        5.0815   10.0415   11.6639 H         2 RES2    0.0000
     51 C19        5.0166   11.5721   13.0399 C.ar      2 RES2    0.0000
     52 C20        4.0802   12.4736   12.5231 C.ar      2 RES2    0.0000
     53 C21        4.0236   13.8158   12.9103 C.ar      2 RES2    0.0000
     54 H24        3.3728   14.3926   12.5288 H         2 RES2    0.0000
     55 C22        4.9102   14.3028   13.8453 C.ar      2 RES2    0.0000
     56 C23        5.8768   13.4085   14.3886 C.ar      2 RES2    0.0000
     57 C24        5.9052   12.0939   13.9799 C.ar      2 RES2    0.0000
     58 H25        6.5593   11.5156   14.3544 H         2 RES2    0.0000
     59 C25        5.3702    6.8775   13.2741 C.3       2 RES2    0.0000
     60 H26        5.0429    6.2933   13.9906 H         2 RES2    0.0000
     61 H27        6.1163    7.4181   13.6094 H         2 RES2    0.0000
     62 H28        5.6760    6.3310   12.5201 H         2 RES2    0.0000
     63 C26        7.7821   13.1519   15.8051 C.3       2 RES2    0.0000
     64 H29        7.4081   12.4069   16.3195 H         2 RES2    0.0000
     65 H30        8.3568   13.6940   16.3848 H         2 RES2    0.0000
     66 H31        8.3105   12.8012   15.0581 H         2 RES2    0.0000
     67 C27        4.0479   16.5581   13.7525 C.3       2 RES2    0.0000
     68 H32        3.1318   16.1711   13.6464 H         2 RES2    0.0000
     69 C28        4.5754   16.9856   12.4160 C.3       2 RES2    0.0000
     70 H33        5.4734   17.3625   12.5245 H         2 RES2    0.0000
     71 H34        3.9809   17.6640   12.0321 H         2 RES2    0.0000
     72 H35        4.6161   16.2102   11.8164 H         2 RES2    0.0000
     73 C29        4.0120   17.6900   14.7387 C.3       2 RES2    0.0000
     74 H36        3.6944   17.3596   15.6049 H         2 RES2    0.0000
     75 H37        3.4068   18.3887   14.4132 H         2 RES2    0.0000
     76 H38        4.9133   18.0625   14.8424 H         2 RES2    0.0000
     77 C30        3.4164    9.2139   15.5618 C.2       2 RES2    0.0000
     78 H39        3.6012    9.1835   16.4938 H         2 RES2    0.0000
     79 N3         3.0958   12.0866   11.4947 N.pl3     2 RES2    0.0000
     80 N4         3.3423    7.4571   11.9927 N.2       2 RES2    0.0000
     81 O8         3.4681    6.1356   11.5406 O.3       2 RES2    0.0000
     82 H40        2.9425    6.0078   10.8971 H         2 RES2    0.0000
     83 O9         4.4446    9.2094   14.7394 O.3       2 RES2    0.0000
     84 O10        2.2684    9.2516   15.2309 O.2       2 RES2    0.0000
     85 O11        2.8946   10.9020   11.2714 O.2       2 RES2    0.0000
     86 O12        2.5162   12.9753   10.8988 O.2       2 RES2    0.0000
     87 O13        6.7173   13.9642   15.2960 O.3       2 RES2    0.0000
     88 O14        4.9375   15.5633   14.3296 O.3       2 RES2    0.0000
@<TRIPOS>BOND
     1    1    2 1
     2    2    3 1
     3    4    2 1
     4    5    4 1
     5    6    4 1
     6    7    4 1
     7    8    7 ar
     8    9    8 ar
     9   10    9 1
    10   11    9 ar
    11   12   11 ar
    12   13    7 ar
    13   14   13 1
    14   15    1 1
    15   16   15 1
    16   17   15 1
    17   18   15 1
    18   19   20 1
    19   21   22 1
    20   23   21 1
    21   24   21 1
    22   25   26 1
    23   27   25 1
    24   28   27 1
    25   29   27 1
    26   30   27 1
    27   31   25 1
    28   32   31 1
    29   33   31 1
    30   34   31 1
    31   35    1 2
    32   36    8 1
    33   37   35 1
    34   38   37 1
    35   39   19 2
    36   40    2 1
    37   41   36 2
    38   42   36 2
    39   43   11 1
    40   44   12 1
    41   45   46 1
    42   46   47 1
    43   48   46 1
    44   49   48 1
    45   50   48 1
    46   51   48 1
    47   52   51 ar
    48   53   52 ar
    49   54   53 1
    50   55   53 ar
    51   56   55 ar
    52   57   51 ar
    53   58   57 1
    54   59   45 1
    55   60   59 1
    56   61   59 1
    57   62   59 1
    58   63   64 1
    59   65   63 1
    60   66   63 1
    61   67   68 1
    62   69   67 1
    63   70   69 1
    64   71   69 1
    65   72   69 1
    66   73   67 1
    67   74   73 1
    68   75   73 1
    69   76   73 1
    70   77   78 1
    71   79   52 1
    72   80   45 2
    73   81   80 1
    74   82   81 1
    75   83   46 1
    76   84   77 2
    77   85   79 2
    78   86   79 2
    79   87   56 1
    80   88   55 1
    81   12   13 ar
    82   19   40 1
    83   21   44 1
    84   25   43 1
    85   56   57 ar
    86   63   87 1
    87   67   88 1
    88   77   83 1
@<TRIPOS>SUBSTRUCTURE
     1 RES1 1
     2 RES2 45

@<TRIPOS>CRYSIN
  10.6032   14.4941   21.7899  90.0000  91.1590  90.0000  14 1

