# MOL2 file generated by ConQuest
# Please check atom types

@<TRIPOS>MOLECULE
YAPQEO
    96    98     2
SMALL
NO_CHARGES
****
Generated from CSD

@<TRIPOS>ATOM
      1 C1        11.5744    0.4632    2.0847 C.3       1 RES1    0.0000
      2 C2        10.5914   -0.5116    2.6771 C.3       1 RES1    0.0000
      3 H1        10.8793   -1.4532    2.7797 H         1 RES1    0.0000
      4 H2         9.6327   -0.3893    2.4618 H         1 RES1    0.0000
      5 C3        11.2572    0.5289    3.5500 C.3       1 RES1    0.0000
      6 H3        11.9760    0.1704    4.1451 H         1 RES1    0.0000
      7 C4        10.4215    1.6280    4.1705 C.3       1 RES1    0.0000
      8 H4         9.6041    1.7649    3.6292 H         1 RES1    0.0000
      9 H5        10.9362    2.4735    4.1674 H         1 RES1    0.0000
     10 C5        10.0303    1.2807    5.5962 C.3       1 RES1    0.0000
     11 H6        10.8571    1.2248    6.1377 H         1 RES1    0.0000
     12 H7         9.6192    0.3801    5.5923 H         1 RES1    0.0000
     13 C6         9.0661    2.2406    6.2977 C.3       1 RES1    0.0000
     14 C7         8.9548    1.7642    7.7171 C.3       1 RES1    0.0000
     15 H8         8.5756    0.8498    7.7346 H         1 RES1    0.0000
     16 H9         9.8527    1.7354    8.1323 H         1 RES1    0.0000
     17 C8        12.9240   -0.1094    1.7102 C.3       1 RES1    0.0000
     18 H10       12.8665   -0.5307    0.8272 H         1 RES1    0.0000
     19 H11       13.1909   -0.7784    2.3746 H         1 RES1    0.0000
     20 H12       13.5887    0.6104    1.6860 H         1 RES1    0.0000
     21 C9        11.0676    1.5347    1.1660 C.3       1 RES1    0.0000
     22 H13       11.0742    1.2037    0.2436 H         1 RES1    0.0000
     23 H14       11.6460    2.3230    1.2342 H         1 RES1    0.0000
     24 H15       10.1531    1.7773    1.4200 H         1 RES1    0.0000
     25 C10        9.5296    3.6737    6.2253 C.3       1 RES1    0.0000
     26 H16        9.5825    3.9531    5.2875 H         1 RES1    0.0000
     27 H17       10.4145    3.7520    6.6397 H         1 RES1    0.0000
     28 H18        8.8940    4.2473    6.7019 H         1 RES1    0.0000
     29 C11        7.9189    2.3332    9.7391 C.2       1 RES1    0.0000
     30 C12        7.1037    3.3438   10.4776 C.ar      1 RES1    0.0000
     31 C13        6.5585    4.4452    9.8354 C.ar      1 RES1    0.0000
     32 H19        6.7058    4.5908    8.9082 H         1 RES1    0.0000
     33 C14        5.7967    5.3256   10.5778 C.ar      1 RES1    0.0000
     34 C15        5.5484    5.1762   11.9152 C.ar      1 RES1    0.0000
     35 H20        5.0123    5.7935   12.3994 H         1 RES1    0.0000
     36 C16        6.1306    4.0616   12.5278 C.ar      1 RES1    0.0000
     37 C17        6.9044    3.1514   11.8403 C.ar      1 RES1    0.0000
     38 H21        7.2931    2.4089   12.2875 H         1 RES1    0.0000
     39 N1         5.2316    6.5101    9.9077 N.pl3     1 RES1    0.0000
     40 N2         5.9108    3.8631   13.9720 N.pl3     1 RES1    0.0000
     41 O1         7.8111    2.0983    5.6253 O.3       1 RES1    0.0000
     42 H22        7.2151    2.5051    6.0555 H         1 RES1    0.0000
     43 O2         8.0963    2.6661    8.4644 O.3       1 RES1    0.0000
     44 O3         8.3507    1.3333   10.2589 O.2       1 RES1    0.0000
     45 O4         5.3923    6.6009    8.6854 O.2       1 RES1    0.0000
     46 O5         4.6384    7.3420   10.5813 O.2       1 RES1    0.0000
     47 O6         5.0678    4.5480   14.5314 O.2       1 RES1    0.0000
     48 O7         6.5974    3.0163   14.5354 O.2       1 RES1    0.0000
     49 C18        6.7754    4.9060    2.1553 C.3       2 RES2    0.0000
     50 C19        6.9916    5.6531    3.4417 C.3       2 RES2    0.0000
     51 H23        7.0741    6.6387    3.3945 H         2 RES2    0.0000
     52 H24        7.5476    5.2214    4.1380 H         2 RES2    0.0000
     53 C20        5.6460    5.0459    3.1407 C.3       2 RES2    0.0000
     54 H25        4.9446    5.7069    2.8744 H         2 RES2    0.0000
     55 C21        5.1351    3.8990    3.9800 C.3       2 RES2    0.0000
     56 H26        5.8907    3.3125    4.2361 H         2 RES2    0.0000
     57 H27        4.4926    3.3617    3.4529 H         2 RES2    0.0000
     58 C22        4.4485    4.4327    5.2397 C.3       2 RES2    0.0000
     59 H28        5.0487    5.0949    5.6653 H         2 RES2    0.0000
     60 H29        3.6252    4.9100    4.9674 H         2 RES2    0.0000
     61 C23        4.0723    3.3808    6.2846 C.3       2 RES2    0.0000
     62 C24        3.2442    4.0956    7.3446 C.3       2 RES2    0.0000
     63 H30        3.7962    4.7834    7.7945 H         2 RES2    0.0000
     64 H31        2.4721    4.5460    6.9198 H         2 RES2    0.0000
     65 C25        6.6796    5.7182    0.8826 C.3       2 RES2    0.0000
     66 H32        7.5808    5.9131    0.5505 H         2 RES2    0.0000
     67 H33        6.2101    6.5586    1.0658 H         2 RES2    0.0000
     68 H34        6.1856    5.2088    0.2065 H         2 RES2    0.0000
     69 C26        7.4399    3.5595    1.9699 C.3       2 RES2    0.0000
     70 H35        8.3317    3.6859    1.5830 H         2 RES2    0.0000
     71 H36        6.8980    3.0079    1.3683 H         2 RES2    0.0000
     72 H37        7.5212    3.1131    2.8385 H         2 RES2    0.0000
     73 C27        3.3329    2.1909    5.6879 C.3       2 RES2    0.0000
     74 H38        3.9083    1.7424    5.0338 H         2 RES2    0.0000
     75 H39        2.5161    2.5028    5.2447 H         2 RES2    0.0000
     76 H40        3.0969    1.5615    6.4013 H         2 RES2    0.0000
     77 C28        2.6300    3.5506    9.5742 C.2       2 RES2    0.0000
     78 C29        1.8634    2.5728   10.4064 C.ar      2 RES2    0.0000
     79 C30        1.3241    1.4146    9.8545 C.ar      2 RES2    0.0000
     80 H41        1.4937    1.1859    8.9482 H         2 RES2    0.0000
     81 C31        0.5325    0.6006   10.6530 C.ar      2 RES2    0.0000
     82 C32        0.2514    0.8911   11.9634 C.ar      2 RES2    0.0000
     83 H42       -0.3158    0.3384   12.4883 H         2 RES2    0.0000
     84 C33        0.8387    2.0338   12.4789 C.ar      2 RES2    0.0000
     85 C34        1.6440    2.8770   11.7455 C.ar      2 RES2    0.0000
     86 H43        2.0380    3.6441   12.1431 H         2 RES2    0.0000
     87 N3        -0.0538   -0.6006   10.0581 N.pl3     2 RES2    0.0000
     88 N4         0.6115    2.3481   13.9023 N.pl3     2 RES2    0.0000
     89 O8         5.3073    2.9464    6.8892 O.3       2 RES2    0.0000
     90 H44        5.1574    2.2902    7.3916 H         2 RES2    0.0000
     91 O9         2.7755    3.1269    8.3171 O.3       2 RES2    0.0000
     92 O10        3.0007    4.6192    9.9949 O.2       2 RES2    0.0000
     93 O11        0.1263   -0.8068    8.8534 O.2       2 RES2    0.0000
     94 O12       -0.6927   -1.3525   10.7857 O.2       2 RES2    0.0000
     95 O13       -0.2550    1.7069   14.5006 O.2       2 RES2    0.0000
     96 O14        1.3035    3.2141   14.4249 O.2       2 RES2    0.0000
@<TRIPOS>BOND
     1    1    2 1
     2    2    3 1
     3    4    2 1
     4    5    1 1
     5    6    5 1
     6    7    5 1
     7    8    7 1
     8    9    7 1
     9   10    7 1
    10   11   10 1
    11   12   10 1
    12   13   10 1
    13   14   13 1
    14   15   14 1
    15   16   14 1
    16   17    1 1
    17   18   17 1
    18   19   17 1
    19   20   17 1
    20   21    1 1
    21   22   21 1
    22   23   21 1
    23   24   21 1
    24   25   13 1
    25   26   25 1
    26   27   25 1
    27   28   25 1
    28   29   30 1
    29   30   31 ar
    30   31   32 1
    31   33   31 ar
    32   34   33 ar
    33   35   34 1
    34   36   34 ar
    35   37   30 ar
    36   38   37 1
    37   39   33 1
    38   40   36 1
    39   41   13 1
    40   42   41 1
    41   43   14 1
    42   44   29 2
    43   45   39 2
    44   46   39 2
    45   47   40 2
    46   48   40 2
    47   49   50 1
    48   50   51 1
    49   52   50 1
    50   53   49 1
    51   54   53 1
    52   55   53 1
    53   56   55 1
    54   57   55 1
    55   58   55 1
    56   59   58 1
    57   60   58 1
    58   61   58 1
    59   62   61 1
    60   63   62 1
    61   64   62 1
    62   65   49 1
    63   66   65 1
    64   67   65 1
    65   68   65 1
    66   69   49 1
    67   70   69 1
    68   71   69 1
    69   72   69 1
    70   73   61 1
    71   74   73 1
    72   75   73 1
    73   76   73 1
    74   77   78 1
    75   78   79 ar
    76   79   80 1
    77   81   79 ar
    78   82   81 ar
    79   83   82 1
    80   84   82 ar
    81   85   78 ar
    82   86   85 1
    83   87   81 1
    84   88   84 1
    85   89   61 1
    86   90   89 1
    87   91   62 1
    88   92   77 2
    89   93   87 2
    90   94   87 2
    91   95   88 2
    92   96   88 2
    93    2    5 1
    94   29   43 1
    95   36   37 ar
    96   50   53 1
    97   77   91 1
    98   84   85 ar
@<TRIPOS>SUBSTRUCTURE
     1 RES1 1
     2 RES2 49

@<TRIPOS>CRYSIN
  10.7132    5.9764   28.5202  90.0000  93.0620  90.0000   4 1

