# MOL2 file generated by ConQuest
# Please check atom types

@<TRIPOS>MOLECULE
YAPRIT
    72    76     2
SMALL
USER_CHARGES
****
Generated from CSD

@<TRIPOS>ATOM
      1 O1        -0.3767    6.6857    9.8167 O.2       1 RES1   -1.0000
      2 N1         0.7967    6.6096    9.2530 N.pl3     1 RES1    1.0000
      3 C1         2.2348    6.4487   11.2572 C.ar      1 RES1    0.0000
      4 C2         3.5188    6.6959   11.7338 C.ar      1 RES1    0.0000
      5 H1         4.2117    6.9125   11.1363 H         1 RES1    0.0000
      6 C3         3.7717    6.6214   13.0996 C.ar      1 RES1    0.0000
      7 H2         4.6375    6.8041   13.4180 H         1 RES1    0.0000
      8 C4         2.7851    6.2883   13.9959 C.ar      1 RES1    0.0000
      9 H3         2.9704    6.2413   14.9154 H         1 RES1    0.0000
     10 C5         1.5164    6.0239   13.5193 C.ar      1 RES1    0.0000
     11 H4         0.8387    5.7843   14.1240 H         1 RES1    0.0000
     12 C6         1.2200    6.1030   12.1695 C.ar      1 RES1    0.0000
     13 H5         0.3490    5.9266   11.8637 H         1 RES1    0.0000
     14 C7         2.0041    6.5351    9.8221 C.2       1 RES1    0.0000
     15 C8         2.9906    6.5215    8.7586 C.2       1 RES1    0.0000
     16 H6         3.9197    6.4655    8.8884 H         1 RES1    0.0000
     17 C9         2.3941    6.6027    7.5688 C.2       1 RES1    0.0000
     18 C10        0.9138    6.7502    7.7591 C.3       1 RES1    0.0000
     19 C11        0.2159    5.6217    7.0246 C.3       1 RES1    0.0000
     20 H7        -0.7529    5.6876    7.1562 H         1 RES1    0.0000
     21 H8         0.5160    4.7589    7.3803 H         1 RES1    0.0000
     22 C12        0.5482    5.7123    5.5184 C.3       1 RES1    0.0000
     23 H9         0.3006    4.8706    5.0826 H         1 RES1    0.0000
     24 H10        0.0146    6.4286    5.1147 H         1 RES1    0.0000
     25 C13        2.0064    5.9854    5.2694 C.2       1 RES1    0.0000
     26 H11        2.3350    5.8682    4.3962 H         1 RES1    0.0000
     27 C14        2.8684    6.3872    6.2173 C.2       1 RES1    0.0000
     28 H12        3.7730    6.5272    6.0056 H         1 RES1    0.0000
     29 C15        0.3392    8.1411    7.3928 C.3       1 RES1    0.0000
     30 H13        0.4719    8.2884    6.4324 H         1 RES1    0.0000
     31 H14       -0.6265    8.1308    7.5582 H         1 RES1    0.0000
     32 C16        0.9288    9.2844    8.1290 C.2       1 RES1    0.0000
     33 H15        1.0552    9.1258    9.0467 H         1 RES1    0.0000
     34 C17        1.2747   10.3796    7.7680 C.2       1 RES1    0.0000
     35 H16        1.1853   10.6270    6.8664 H         1 RES1    0.0000
     36 H17        1.6350   10.9870    8.3887 H         1 RES1    0.0000
     37 O2         2.9145    7.6940    2.3919 O.2       2 RES2   -1.0000
     38 N2         4.1204    8.0822    2.6658 N.pl3     2 RES2    1.0000
     39 C18        5.4160    6.1194    1.8904 C.ar      2 RES2    0.0000
     40 C19        6.6665    5.5078    1.8726 C.ar      2 RES2    0.0000
     41 H18        7.4074    5.9588    2.2337 H         2 RES2    0.0000
     42 C20        6.8355    4.2468    1.3285 C.ar      2 RES2    0.0000
     43 H19        7.6832    3.8409    1.3391 H         2 RES2    0.0000
     44 C21        5.7631    3.5853    0.7736 C.ar      2 RES2    0.0000
     45 H20        5.8828    2.7349    0.3930 H         2 RES2    0.0000
     46 C22        4.5209    4.1658    0.7754 C.ar      2 RES2    0.0000
     47 H21        3.7925    3.7096    0.3930 H         2 RES2    0.0000
     48 C23        4.3301    5.4307    1.3409 C.ar      2 RES2    0.0000
     49 H22        3.4735    5.8178    1.3498 H         2 RES2    0.0000
     50 C24        5.2946    7.4638    2.4560 C.2       2 RES2    0.0000
     51 C25        6.3553    8.3374    2.9023 C.2       2 RES2    0.0000
     52 H23        7.2735    8.1380    2.8614 H         2 RES2    0.0000
     53 C26        5.8302    9.4833    3.3878 C.2       2 RES2    0.0000
     54 C27        4.3545    9.4561    3.2349 C.3       2 RES2    0.0000
     55 C28        3.6979    9.5933    4.6114 C.3       2 RES2    0.0000
     56 H24        2.7222    9.5868    4.5171 H         2 RES2    0.0000
     57 H25        3.9553    8.8379    5.1805 H         2 RES2    0.0000
     58 C29        4.1464   10.9033    5.2587 C.3       2 RES2    0.0000
     59 H26        3.5920   11.6329    4.9084 H         2 RES2    0.0000
     60 H27        3.9907   10.8475    6.2244 H         2 RES2    0.0000
     61 C30        5.5749   11.2346    5.0222 C.2       2 RES2    0.0000
     62 H28        5.9428   11.9532    5.5059 H         2 RES2    0.0000
     63 C31        6.3799   10.5782    4.1650 C.2       2 RES2    0.0000
     64 H29        7.2815   10.8252    4.0707 H         2 RES2    0.0000
     65 C32        3.7837   10.4774    2.2194 C.3       2 RES2    0.0000
     66 H30        2.8542   10.2401    2.0203 H         2 RES2    0.0000
     67 H31        3.7827   11.3672    2.6320 H         2 RES2    0.0000
     68 C33        4.5565   10.5399    0.9319 C.2       2 RES2    0.0000
     69 H32        5.4767   10.7024    1.0315 H         2 RES2    0.0000
     70 C34        4.1744   10.4117   -0.2436 C.2       2 RES2    0.0000
     71 H33        3.2680   10.2470   -0.4268 H         2 RES2    0.0000
     72 H34        4.7925   10.4796   -0.9479 H         2 RES2    0.0000
@<TRIPOS>BOND
     1    1    2 1
     2    2   14 2
     3    3    4 ar
     4    4    5 1
     5    6    4 ar
     6    7    6 1
     7    8    6 ar
     8    9    8 1
     9   10    8 ar
    10   11   10 1
    11   12    3 ar
    12   13   12 1
    13   14    3 1
    14   15   14 1
    15   16   15 1
    16   17   15 2
    17   18    2 1
    18   19   18 1
    19   20   19 1
    20   21   19 1
    21   22   19 1
    22   23   22 1
    23   24   22 1
    24   25   22 1
    25   26   25 1
    26   27   17 1
    27   28   27 1
    28   29   18 1
    29   30   29 1
    30   31   29 1
    31   32   29 1
    32   33   32 1
    33   34   32 2
    34   35   34 1
    35   36   34 1
    36   37   38 1
    37   38   50 2
    38   39   40 ar
    39   40   41 1
    40   42   40 ar
    41   43   42 1
    42   44   42 ar
    43   45   44 1
    44   46   44 ar
    45   47   46 1
    46   48   39 ar
    47   49   48 1
    48   50   39 1
    49   51   50 1
    50   52   51 1
    51   53   51 2
    52   54   38 1
    53   55   54 1
    54   56   55 1
    55   57   55 1
    56   58   55 1
    57   59   58 1
    58   60   58 1
    59   61   58 1
    60   62   61 1
    61   63   53 1
    62   64   63 1
    63   65   54 1
    64   66   65 1
    65   67   65 1
    66   68   65 1
    67   69   68 1
    68   70   68 2
    69   71   70 1
    70   72   70 1
    71   10   12 ar
    72   17   18 1
    73   25   27 2
    74   46   48 ar
    75   53   54 1
    76   61   63 2
@<TRIPOS>SUBSTRUCTURE
     1 RES1 1
     2 RES2 37

@<TRIPOS>CRYSIN
   6.6073   11.5317   17.9568  97.8640  90.8820  92.3510   2 1

