# MOL2 file generated by ConQuest
# Please check atom types

@<TRIPOS>MOLECULE
YAPREP
    72    80     2
SMALL
NO_CHARGES
****
Generated from CSD

@<TRIPOS>ATOM
      1 O1         2.9547   32.3213    2.1187 O.3       1 RES1    0.0000
      2 N1         2.5747   31.5825    3.3335 N.3       1 RES1    0.0000
      3 C1         0.9898   33.4036    4.1387 C.ar      1 RES1    0.0000
      4 C2        -0.2032   34.1003    3.9740 C.ar      1 RES1    0.0000
      5 H1        -0.9006   33.7151    3.4755 H         1 RES1    0.0000
      6 C3        -0.3741   35.3492    4.5321 C.ar      1 RES1    0.0000
      7 H2        -1.1818   35.8123    4.3999 H         1 RES1    0.0000
      8 C4         0.6358   35.9317    5.2907 C.ar      1 RES1    0.0000
      9 H3         0.5174   36.7805    5.6755 H         1 RES1    0.0000
     10 C5         1.8053   35.2424    5.4630 C.ar      1 RES1    0.0000
     11 H4         2.4935   35.6269    5.9746 H         1 RES1    0.0000
     12 C6         2.0010   33.9866    4.9017 C.ar      1 RES1    0.0000
     13 H5         2.8126   33.5297    5.0350 H         1 RES1    0.0000
     14 C7         1.1395   32.0164    3.5925 C.3       1 RES1    0.0000
     15 C8         0.7028   30.9006    4.5018 C.2       1 RES1    0.0000
     16 H6         0.0638   30.9670    5.1889 H         1 RES1    0.0000
     17 C9         1.3827   29.7989    4.1615 C.2       1 RES1    0.0000
     18 C10        2.2120   30.1726    2.9456 C.3       1 RES1    0.0000
     19 C11        3.3634   29.2291    2.7061 C.3       1 RES1    0.0000
     20 H7         4.0524   29.3766    3.3866 H         1 RES1    0.0000
     21 H8         3.7589   29.4137    1.8293 H         1 RES1    0.0000
     22 C12        2.9016   27.7710    2.7592 C.3       1 RES1    0.0000
     23 H9         2.4201   27.5596    1.9334 H         1 RES1    0.0000
     24 H10        3.6878   27.1888    2.8068 H         1 RES1    0.0000
     25 C13        2.0095   27.4871    3.9328 C.2       1 RES1    0.0000
     26 H11        1.9245   26.5955    4.2200 H         1 RES1    0.0000
     27 C14        1.3310   28.4273    4.5896 C.2       1 RES1    0.0000
     28 H12        0.8149   28.1941    5.3384 H         1 RES1    0.0000
     29 C15        1.1541   30.3605    1.8185 C.3       1 RES1    0.0000
     30 H13        1.5552   30.2748    0.9288 H         1 RES1    0.0000
     31 H14        0.4170   29.7227    1.9063 H         1 RES1    0.0000
     32 C16        0.6909   31.7988    2.0938 C.3       1 RES1    0.0000
     33 H15       -0.2575   31.9970    1.8900 H         1 RES1    0.0000
     34 C17        1.7194   32.6855    1.4197 C.3       1 RES1    0.0000
     35 H16        1.7821   32.4914    0.4617 H         1 RES1    0.0000
     36 H17        1.5071   33.6327    1.5443 H         1 RES1    0.0000
     37 O2         2.5964   23.1478    2.6259 O.3       2 RES2    0.0000
     38 N2         1.8957   22.1186    3.4105 N.3       2 RES2    0.0000
     39 C18        0.3755   23.7473    4.6253 C.ar      2 RES2    0.0000
     40 C19       -0.7664   24.5214    4.6654 C.ar      2 RES2    0.0000
     41 H18       -1.4325   24.3995    4.0141 H         2 RES2    0.0000
     42 C20       -0.9432   25.4756    5.6603 C.ar      2 RES2    0.0000
     43 H19       -1.7298   25.9898    5.6787 H         2 RES2    0.0000
     44 C21        0.0303   25.6726    6.6205 C.ar      2 RES2    0.0000
     45 H20       -0.0861   26.3236    7.2902 H         2 RES2    0.0000
     46 C22        1.1715   24.9071    6.5858 C.ar      2 RES2    0.0000
     47 H21        1.8372   25.0381    7.2360 H         2 RES2    0.0000
     48 C23        1.3564   23.9446    5.6093 C.ar      2 RES2    0.0000
     49 H22        2.1383   23.4230    5.6050 H         2 RES2    0.0000
     50 C24        0.5044   22.6579    3.6034 C.3       2 RES2    0.0000
     51 C25       -0.2288   21.3897    3.9209 C.2       2 RES2    0.0000
     52 H23       -0.9946   21.3135    4.4606 H         2 RES2    0.0000
     53 C26        0.3973   20.3860    3.3021 C.2       2 RES2    0.0000
     54 C27        1.4856   21.0168    2.4655 C.3       2 RES2    0.0000
     55 C28        2.5812   20.0581    2.0797 C.3       2 RES2    0.0000
     56 H24        3.1117   19.8302    2.8719 H         2 RES2    0.0000
     57 H25        3.1761   20.4853    1.4294 H         2 RES2    0.0000
     58 C29        1.9995   18.7812    1.4739 C.3       2 RES2    0.0000
     59 H26        1.6964   18.9691    0.5614 H         2 RES2    0.0000
     60 H27        2.7042   18.1039    1.4218 H         2 RES2    0.0000
     61 C30        0.8453   18.2333    2.2737 C.2       2 RES2    0.0000
     62 H28        0.6219   17.3252    2.1664 H         2 RES2    0.0000
     63 C31        0.1144   18.9737    3.1352 C.2       2 RES2    0.0000
     64 H29       -0.5781   18.5736    3.6272 H         2 RES2    0.0000
     65 C32        0.7228   21.7844    1.3427 C.3       2 RES2    0.0000
     66 H30        1.2994   21.9603    0.5700 H         2 RES2    0.0000
     67 H31       -0.0752   21.2970    1.0501 H         2 RES2    0.0000
     68 C33        0.3546   23.0835    2.0851 C.3       2 RES2    0.0000
     69 H32       -0.5058   23.5013    1.8315 H         2 RES2    0.0000
     70 C34        1.5723   23.9516    1.9724 C.3       2 RES2    0.0000
     71 H33        1.8003   24.1234    1.0350 H         2 RES2    0.0000
     72 H34        1.4429   24.8074    2.4330 H         2 RES2    0.0000
@<TRIPOS>BOND
     1    1    2 1
     2    2   14 1
     3    3    4 ar
     4    4    5 1
     5    6    4 ar
     6    7    6 1
     7    8    6 ar
     8    9    8 1
     9   10    8 ar
    10   11   10 1
    11   12    3 ar
    12   13   12 1
    13   14    3 1
    14   15   14 1
    15   16   15 1
    16   17   15 2
    17   18    2 1
    18   19   18 1
    19   20   19 1
    20   21   19 1
    21   22   19 1
    22   23   22 1
    23   24   22 1
    24   25   22 1
    25   26   25 1
    26   27   17 1
    27   28   27 1
    28   29   18 1
    29   30   29 1
    30   31   29 1
    31   32   14 1
    32   33   32 1
    33   34    1 1
    34   35   34 1
    35   36   34 1
    36   37   38 1
    37   38   50 1
    38   39   40 ar
    39   40   41 1
    40   42   40 ar
    41   43   42 1
    42   44   42 ar
    43   45   44 1
    44   46   44 ar
    45   47   46 1
    46   48   39 ar
    47   49   48 1
    48   50   39 1
    49   51   50 1
    50   52   51 1
    51   53   51 2
    52   54   38 1
    53   55   54 1
    54   56   55 1
    55   57   55 1
    56   58   55 1
    57   59   58 1
    58   60   58 1
    59   61   58 1
    60   62   61 1
    61   63   53 1
    62   64   63 1
    63   65   54 1
    64   66   65 1
    65   67   65 1
    66   68   50 1
    67   69   68 1
    68   70   37 1
    69   71   70 1
    70   72   70 1
    71   10   12 ar
    72   17   18 1
    73   25   27 2
    74   29   32 1
    75   32   34 1
    76   46   48 ar
    77   53   54 1
    78   61   63 2
    79   65   68 1
    80   68   70 1
@<TRIPOS>SUBSTRUCTURE
     1 RES1 1
     2 RES2 37

@<TRIPOS>CRYSIN
   5.7877   41.2014   10.9269  90.0000  97.3454  90.0000 231 1

