# MOL2 file generated by ConQuest
# Please check atom types

@<TRIPOS>MOLECULE
YAPZEU01
    52    56     1
SMALL
NO_CHARGES
****
Generated from CSD

@<TRIPOS>ATOM
      1 C1         4.4286    0.0390    3.0617 C.3       1 RES1    0.0000
      2 H1         3.8193   -0.3622    2.4227 H         1 RES1    0.0000
      3 H2         5.1125    0.5139    2.5640 H         1 RES1    0.0000
      4 C2         5.0696   -1.0372    3.8700 C.2       1 RES1    0.0000
      5 C3         5.4808   -0.7645    5.1244 C.2       1 RES1    0.0000
      6 C4         5.2623    0.4781    5.8047 C.2       1 RES1    0.0000
      7 H3         5.7125    0.6771    6.5937 H         1 RES1    0.0000
      8 C5         4.3870    1.3447    5.2689 C.2       1 RES1    0.0000
      9 C6         3.9883    2.5777    6.0197 C.3       1 RES1    0.0000
     10 H4         4.6253    2.7325    6.7346 H         1 RES1    0.0000
     11 H5         3.1183    2.4335    6.4236 H         1 RES1    0.0000
     12 C7         3.9263    3.8140    5.1336 C.3       1 RES1    0.0000
     13 H6         4.8174    4.0288    4.8147 H         1 RES1    0.0000
     14 H7         3.6022    4.5669    5.6514 H         1 RES1    0.0000
     15 C8         3.0008    3.5791    3.9402 C.3       1 RES1    0.0000
     16 H8         2.0952    3.3980    4.2687 H         1 RES1    0.0000
     17 C9         3.4906    2.3671    3.1237 C.3       1 RES1    0.0000
     18 H9         4.3936    2.5999    2.8219 H         1 RES1    0.0000
     19 C10        3.6484    1.0467    3.9501 C.3       1 RES1    0.0000
     20 C11        2.6582    2.1755    1.8376 C.3       1 RES1    0.0000
     21 H10        3.0417    1.4521    1.3164 H         1 RES1    0.0000
     22 H11        1.7545    1.9196    2.0800 H         1 RES1    0.0000
     23 C12        2.6074    3.4412    0.9769 C.3       1 RES1    0.0000
     24 H12        3.4959    3.6392    0.6424 H         1 RES1    0.0000
     25 H13        2.0272    3.2896    0.2147 H         1 RES1    0.0000
     26 C13        2.0912    4.6321    1.7753 C.3       1 RES1    0.0000
     27 C14        2.9652    4.7996    3.0326 C.3       1 RES1    0.0000
     28 H14        3.8820    4.9291    2.7122 H         1 RES1    0.0000
     29 C15        2.5222    6.1495    3.6122 C.3       1 RES1    0.0000
     30 H15        3.2332    6.5528    4.1339 H         1 RES1    0.0000
     31 H16        1.7387    6.0453    4.1744 H         1 RES1    0.0000
     32 C16        2.1975    7.0035    2.3635 C.3       1 RES1    0.0000
     33 H17        2.8417    7.7227    2.2677 H         1 RES1    0.0000
     34 H18        1.3110    7.3910    2.4389 H         1 RES1    0.0000
     35 C17        2.2681    6.0474    1.1466 C.3       1 RES1    0.0000
     36 C18        0.6000    4.4468    2.1185 C.3       1 RES1    0.0000
     37 H19        0.2693    5.2408    2.5444 H         1 RES1    0.0000
     38 H20        0.4990    3.6992    2.7119 H         1 RES1    0.0000
     39 H21        0.1036    4.2868    1.3125 H         1 RES1    0.0000
     40 C19        2.2879    0.4349    4.3333 C.3       1 RES1    0.0000
     41 H22        1.7796    0.2601    3.5376 H         1 RES1    0.0000
     42 H23        1.8060    1.0498    4.8925 H         1 RES1    0.0000
     43 H24        2.4292   -0.3865    4.8087 H         1 RES1    0.0000
     44 C20        3.5923    6.1579    0.4979 C.1       1 RES1    0.0000
     45 C21        4.6748    6.2306    0.0340 C.1       1 RES1    0.0000
     46 H25        5.5277    6.2885   -0.3314 H         1 RES1    0.0000
     47 C22        5.4815   -2.3714    3.6737 C.2       1 RES1    0.0000
     48 H26        5.3448   -2.8389    2.8813 H         1 RES1    0.0000
     49 O1         1.2515    6.3127    0.1660 O.3       1 RES1    0.0000
     50 H27        1.2304    7.1162    0.0052 H         1 RES1    0.0000
     51 O2         6.0888   -1.8364    5.6757 O.3       1 RES1    0.0000
     52 N1         6.0729   -2.8831    4.7160 N.2       1 RES1    0.0000
@<TRIPOS>BOND
     1    1    2 1
     2    3    1 1
     3    4    1 1
     4    5    4 2
     5    6    5 1
     6    7    6 1
     7    8    6 2
     8    9    8 1
     9   10    9 1
    10   11    9 1
    11   12    9 1
    12   13   12 1
    13   14   12 1
    14   15   12 1
    15   16   15 1
    16   17   15 1
    17   18   17 1
    18   19    1 1
    19   20   17 1
    20   21   20 1
    21   22   20 1
    22   23   20 1
    23   24   23 1
    24   25   23 1
    25   26   23 1
    26   27   15 1
    27   28   27 1
    28   29   27 1
    29   30   29 1
    30   31   29 1
    31   32   29 1
    32   33   32 1
    33   34   32 1
    34   35   26 1
    35   36   26 1
    36   37   36 1
    37   38   36 1
    38   39   36 1
    39   40   19 1
    40   41   40 1
    41   42   40 1
    42   43   40 1
    43   44   35 1
    44   45   44 3
    45   46   45 1
    46   47    4 1
    47   48   47 1
    48   49   35 1
    49   50   49 1
    50   51    5 1
    51   52   47 2
    52    8   19 1
    53   17   19 1
    54   26   27 1
    55   32   35 1
    56   51   52 1
@<TRIPOS>SUBSTRUCTURE
     1 RES1 1

@<TRIPOS>CRYSIN
   6.6010   10.5300   26.1770  90.0000  90.0000  90.0000  19 1

