# MOL2 file generated by ConQuest
# Please check atom types

@<TRIPOS>MOLECULE
YAQHUU
   112   114     2
SMALL
NO_CHARGES
****
Generated from CSD

@<TRIPOS>ATOM
      1 C1         4.0167    3.4693    0.9668 C.3       1 RES1    0.0000
      2 H1         4.4137    4.3617    1.0400 H         1 RES1    0.0000
      3 O1         4.3961    2.8674   -0.2491 O.3       1 RES1    0.0000
      4 C2         2.5124    3.5659    1.0191 C.3       1 RES1    0.0000
      5 H2         2.0986    2.6808    0.9541 H         1 RES1    0.0000
      6 O2         2.0956    4.4117   -0.0534 O.3       1 RES1    0.0000
      7 C3         2.1554    4.2406    2.3174 C.3       1 RES1    0.0000
      8 H3         2.4918    5.1601    2.2772 H         1 RES1    0.0000
      9 O3         0.7333    4.3061    2.4163 O.3       1 RES1    0.0000
     10 C4         2.7851    3.5708    3.5424 C.3       1 RES1    0.0000
     11 H4         2.6949    4.1669    4.3154 H         1 RES1    0.0000
     12 O4         2.1355    2.3131    3.8397 O.3       1 RES1    0.0000
     13 C5         4.2441    3.3080    3.2940 C.3       1 RES1    0.0000
     14 H5         4.7229    4.1628    3.2963 H         1 RES1    0.0000
     15 O5         4.4515    2.6652    2.0207 O.3       1 RES1    0.0000
     16 C6         4.8399    2.4228    4.3316 C.3       1 RES1    0.0000
     17 H6         4.5591    2.7061    5.2160 H         1 RES1    0.0000
     18 H7         4.5532    1.5066    4.1970 H         1 RES1    0.0000
     19 O6         6.2892    2.5244    4.2049 O.3       1 RES1    0.0000
     20 C7         5.6808    3.0902   -0.6500 C.ar      1 RES1    0.0000
     21 C8         5.9559    3.0099   -1.9917 C.ar      1 RES1    0.0000
     22 N1         4.9011    2.6398   -2.9437 N.pl3     1 RES1    0.0000
     23 O7         4.3785    1.5705   -2.8348 O.2       1 RES1    0.0000
     24 O8         4.7249    3.3751   -3.8743 O.2       1 RES1    0.0000
     25 C9         7.2087    3.2506   -2.5070 C.ar      1 RES1    0.0000
     26 H8         7.3595    3.1917   -3.4240 H         1 RES1    0.0000
     27 C10        8.2344    3.5773   -1.6574 C.ar      1 RES1    0.0000
     28 H9         9.0870    3.7427   -1.9894 H         1 RES1    0.0000
     29 C11        7.9844    3.6568   -0.3111 C.ar      1 RES1    0.0000
     30 H10        8.6799    3.8688    0.2670 H         1 RES1    0.0000
     31 C12        6.7128    3.4283    0.2066 C.ar      1 RES1    0.0000
     32 H11        6.5580    3.5020    1.1212 H         1 RES1    0.0000
     33 C13        1.0194    4.0391   -0.7776 C.2       1 RES1    0.0000
     34 O9         0.4007    3.0418   -0.5808 O.2       1 RES1    0.0000
     35 C14        0.7342    5.0323   -1.8478 C.3       1 RES1    0.0000
     36 H12       -0.0817    4.7949   -2.2935 H         1 RES1    0.0000
     37 H13        1.4557    5.0381   -2.4792 H         1 RES1    0.0000
     38 H14        0.6422    5.9044   -1.4578 H         1 RES1    0.0000
     39 C15        0.2355    5.3615    3.1129 C.2       1 RES1    0.0000
     40 O10        0.9434    6.2131    3.5960 O.2       1 RES1    0.0000
     41 C16       -1.2404    5.2862    3.2127 C.3       1 RES1    0.0000
     42 H15       -1.4847    4.5877    3.8256 H         1 RES1    0.0000
     43 H16       -1.6108    5.0978    2.3469 H         1 RES1    0.0000
     44 H17       -1.5822    6.1246    3.5331 H         1 RES1    0.0000
     45 C17        1.1645    2.3557    4.7912 C.2       1 RES1    0.0000
     46 O11        0.7209    3.3841    5.2321 O.2       1 RES1    0.0000
     47 C18        0.7716    1.0112    5.2439 C.3       1 RES1    0.0000
     48 H18        1.2000    0.8172    6.0819 H         1 RES1    0.0000
     49 H19        1.0397    0.3619    4.5893 H         1 RES1    0.0000
     50 H20       -0.1814    0.9768    5.3576 H         1 RES1    0.0000
     51 C19        7.0014    2.0372    5.2323 C.2       1 RES1    0.0000
     52 O12        6.4759    1.6212    6.2351 O.2       1 RES1    0.0000
     53 C20        8.4580    2.0847    4.9793 C.3       1 RES1    0.0000
     54 H21        8.8918    2.5628    5.6896 H         1 RES1    0.0000
     55 H22        8.6236    2.5317    4.1436 H         1 RES1    0.0000
     56 H23        8.8056    1.1905    4.9352 H         1 RES1    0.0000
     57 C21       -1.1267    0.2448   12.9972 C.3       2 RES2    0.0000
     58 H24       -1.5050   -0.6583   13.0506 H         2 RES2    0.0000
     59 O13       -1.5182    0.8859   11.7998 O.3       2 RES2    0.0000
     60 C22        0.3669    0.1998   12.9895 C.3       2 RES2    0.0000
     61 H25        0.7313    1.0947   12.8277 H         2 RES2    0.0000
     62 O14        0.7766   -0.6902   11.9565 O.3       2 RES2    0.0000
     63 C23        0.8818   -0.3431   14.3041 C.3       2 RES2    0.0000
     64 H26        0.6442   -1.2921   14.3644 H         2 RES2    0.0000
     65 O15        2.3105   -0.2334   14.2395 O.3       2 RES2    0.0000
     66 C24        0.2932    0.3766   15.4903 C.3       2 RES2    0.0000
     67 H27        0.5170   -0.0999   16.3167 H         2 RES2    0.0000
     68 O16        0.8473    1.7162   15.5258 O.3       2 RES2    0.0000
     69 C25       -1.2105    0.4634   15.3348 C.3       2 RES2    0.0000
     70 H28       -1.5888   -0.4389   15.3881 H         2 RES2    0.0000
     71 O17       -1.5730    1.0456   14.0784 O.3       2 RES2    0.0000
     72 C26       -1.8175    1.3142   16.4119 C.3       2 RES2    0.0000
     73 H29       -1.5142    1.0137   17.2824 H         2 RES2    0.0000
     74 H30       -1.5483    2.2386   16.2958 H         2 RES2    0.0000
     75 O18       -3.2558    1.2028   16.3216 O.3       2 RES2    0.0000
     76 C27       -2.7564    0.5789   11.2817 C.ar      2 RES2    0.0000
     77 C28       -2.8880    0.7222    9.9121 C.ar      2 RES2    0.0000
     78 N2        -1.7247    1.0718    9.0994 N.pl3     2 RES2    0.0000
     79 O19       -0.7180    0.3930    9.1804 O.2       2 RES2    0.0000
     80 O20       -1.8343    2.0486    8.3524 O.2       2 RES2    0.0000
     81 C29       -4.0884    0.5355    9.2598 C.ar      2 RES2    0.0000
     82 H31       -4.1580    0.6567    8.3406 H         2 RES2    0.0000
     83 C30       -5.1878    0.1638   10.0096 C.ar      2 RES2    0.0000
     84 H32       -6.0103    0.0205    9.6011 H         2 RES2    0.0000
     85 C31       -5.0538    0.0074   11.3792 C.ar      2 RES2    0.0000
     86 H33       -5.7886   -0.2661   11.8760 H         2 RES2    0.0000
     87 C32       -3.8694    0.2440   12.0176 C.ar      2 RES2    0.0000
     88 H34       -3.8163    0.1793   12.9438 H         2 RES2    0.0000
     89 C33        1.6491   -0.2702   11.0171 C.2       2 RES2    0.0000
     90 O21        2.0963    0.8524   11.0187 O.2       2 RES2    0.0000
     91 C34        1.9728   -1.3437   10.0723 C.3       2 RES2    0.0000
     92 H35        2.5453   -1.0006    9.3828 H         2 RES2    0.0000
     93 H36        1.1635   -1.6794    9.6800 H         2 RES2    0.0000
     94 H37        2.4216   -2.0536   10.5389 H         2 RES2    0.0000
     95 C35        3.0442   -1.0898   14.9958 C.2       2 RES2    0.0000
     96 O22        2.5480   -1.8169   15.8046 O.2       2 RES2    0.0000
     97 C36        4.4764   -1.0202   14.6546 C.3       2 RES2    0.0000
     98 H38        5.0013   -1.1291   15.4508 H         2 RES2    0.0000
     99 H39        4.6692   -0.1679   14.2577 H         2 RES2    0.0000
    100 H40        4.6911   -1.7195   14.0325 H         2 RES2    0.0000
    101 C37        1.3753    2.1297   16.7043 C.2       2 RES2    0.0000
    102 O23        1.3780    1.4542   17.6937 O.2       2 RES2    0.0000
    103 C38        1.8860    3.5036   16.6068 C.3       2 RES2    0.0000
    104 H41        1.1518    4.1218   16.6533 H         2 RES2    0.0000
    105 H42        2.3471    3.6158   15.7735 H         2 RES2    0.0000
    106 H43        2.4913    3.6723   17.3334 H         2 RES2    0.0000
    107 C39       -3.9819    2.3057   16.4861 C.2       2 RES2    0.0000
    108 O24       -3.4867    3.3735   16.7206 O.2       2 RES2    0.0000
    109 C40       -5.4355    2.0609   16.3167 C.3       2 RES2    0.0000
    110 H44       -5.8275    1.8497   17.1663 H         2 RES2    0.0000
    111 H45       -5.5674    1.3265   15.7108 H         2 RES2    0.0000
    112 H46       -5.8534    2.8478   15.9592 H         2 RES2    0.0000
@<TRIPOS>BOND
     1    1    2 1
     2    3    1 1
     3    4    1 1
     4    5    4 1
     5    6    4 1
     6    7    4 1
     7    8    7 1
     8    9    7 1
     9   10    7 1
    10   11   10 1
    11   12   10 1
    12   13   10 1
    13   14   13 1
    14   15    1 1
    15   16   13 1
    16   17   16 1
    17   18   16 1
    18   19   16 1
    19   20    3 1
    20   21   20 ar
    21   22   21 1
    22   23   22 2
    23   24   22 2
    24   25   21 ar
    25   26   25 1
    26   27   25 ar
    27   28   27 1
    28   29   27 ar
    29   30   29 1
    30   31   20 ar
    31   32   31 1
    32   33    6 1
    33   34   33 2
    34   35   33 1
    35   36   35 1
    36   37   35 1
    37   38   35 1
    38   39    9 1
    39   40   39 2
    40   41   39 1
    41   42   41 1
    42   43   41 1
    43   44   41 1
    44   45   12 1
    45   46   45 2
    46   47   45 1
    47   48   47 1
    48   49   47 1
    49   50   47 1
    50   51   19 1
    51   52   51 2
    52   53   51 1
    53   54   53 1
    54   55   53 1
    55   56   53 1
    56   57   58 1
    57   59   57 1
    58   60   57 1
    59   61   60 1
    60   62   60 1
    61   63   60 1
    62   64   63 1
    63   65   63 1
    64   66   63 1
    65   67   66 1
    66   68   66 1
    67   69   66 1
    68   70   69 1
    69   71   57 1
    70   72   69 1
    71   73   72 1
    72   74   72 1
    73   75   72 1
    74   76   59 1
    75   77   76 ar
    76   78   77 1
    77   79   78 2
    78   80   78 2
    79   81   77 ar
    80   82   81 1
    81   83   81 ar
    82   84   83 1
    83   85   83 ar
    84   86   85 1
    85   87   76 ar
    86   88   87 1
    87   89   62 1
    88   90   89 2
    89   91   89 1
    90   92   91 1
    91   93   91 1
    92   94   91 1
    93   95   65 1
    94   96   95 2
    95   97   95 1
    96   98   97 1
    97   99   97 1
    98  100   97 1
    99  101   68 1
   100  102  101 2
   101  103  101 1
   102  104  103 1
   103  105  103 1
   104  106  103 1
   105  107   75 1
   106  108  107 2
   107  109  107 1
   108  110  109 1
   109  111  109 1
   110  112  109 1
   111   13   15 1
   112   29   31 ar
   113   69   71 1
   114   85   87 ar
@<TRIPOS>SUBSTRUCTURE
     1 RES1 1
     2 RES2 57

@<TRIPOS>CRYSIN
  11.3880    8.1880   23.8670  90.0000 103.4400  90.0000   4 1

