# MOL2 file generated by ConQuest
# Please check atom types

@<TRIPOS>MOLECULE
YAQJAC
    56    57     1
SMALL
NO_CHARGES
****
Generated from CSD

@<TRIPOS>ATOM
      1 C1         4.5101    3.9476    8.7073 C.3       1 RES1    0.0000
      2 H1         4.1546    3.0737    8.4409 H         1 RES1    0.0000
      3 C2         5.4402    3.8025    9.9003 C.3       1 RES1    0.0000
      4 H2         5.8955    4.6485   10.0938 H         1 RES1    0.0000
      5 O1         6.3900    2.7684    9.5812 O.3       1 RES1    0.0000
      6 C3         7.6825    2.9750    9.8950 C.2       1 RES1    0.0000
      7 O2         8.0780    3.9973   10.3629 O.2       1 RES1    0.0000
      8 C4         8.5169    1.7604    9.6405 C.3       1 RES1    0.0000
      9 H3         8.8039    1.3892   10.4782 H         1 RES1    0.0000
     10 H4         9.2841    2.0042    9.1182 H         1 RES1    0.0000
     11 H5         7.9968    1.1100    9.1633 H         1 RES1    0.0000
     12 C5         4.6283    3.3335   11.1078 C.3       1 RES1    0.0000
     13 H6         4.3428    2.4073   10.9634 H         1 RES1    0.0000
     14 O3         5.5126    3.3824   12.2311 O.3       1 RES1    0.0000
     15 C6         5.3446    2.4993   13.1915 C.2       1 RES1    0.0000
     16 O4         4.3597    1.7916   13.2128 O.2       1 RES1    0.0000
     17 C7         6.3618    2.6014   14.2771 C.3       1 RES1    0.0000
     18 H7         6.7264    1.7317   14.4561 H         1 RES1    0.0000
     19 H8         5.9486    2.9455   15.0725 H         1 RES1    0.0000
     20 H9         7.0664    3.1926   14.0001 H         1 RES1    0.0000
     21 C8         3.3959    4.2065   11.3478 C.3       1 RES1    0.0000
     22 H10        2.8304    3.7932   12.0330 H         1 RES1    0.0000
     23 O5         3.7974    5.4971   11.7793 O.3       1 RES1    0.0000
     24 C9         3.7135    5.8007   13.0789 C.2       1 RES1    0.0000
     25 O6         3.2637    5.0458   13.8967 O.2       1 RES1    0.0000
     26 C10        4.2402    7.1579   13.3374 C.3       1 RES1    0.0000
     27 H11        4.4163    7.2600   14.2745 H         1 RES1    0.0000
     28 H12        3.5920    7.8100   13.0603 H         1 RES1    0.0000
     29 H13        5.0533    7.2845   12.8429 H         1 RES1    0.0000
     30 C11        2.6164    4.3238   10.0554 C.3       1 RES1    0.0000
     31 H14        2.2868    3.4381    9.7969 H         1 RES1    0.0000
     32 C12        1.4506    5.2736   10.1654 C.3       1 RES1    0.0000
     33 H15        0.9059    5.0526   10.9368 H         1 RES1    0.0000
     34 H16        1.7674    6.1862   10.2608 H         1 RES1    0.0000
     35 O7         0.6799    5.1344    8.9486 O.3       1 RES1    0.0000
     36 C13       -0.2162    6.0277    8.6570 C.2       1 RES1    0.0000
     37 O8        -0.4036    6.9867    9.3873 O.2       1 RES1    0.0000
     38 C14       -0.9566    5.7274    7.4189 C.3       1 RES1    0.0000
     39 H17       -1.8836    5.9450    7.5382 H         1 RES1    0.0000
     40 H18       -0.8702    4.7936    7.2135 H         1 RES1    0.0000
     41 H19       -0.5963    6.2478    6.6965 H         1 RES1    0.0000
     42 O9         3.4601    4.8349    9.0176 O.3       1 RES1    0.0000
     43 O10        5.2446    4.5254    7.6557 O.3       1 RES1    0.0000
     44 C15        4.7151    4.4520    6.3824 C.ar      1 RES1    0.0000
     45 C16        5.5836    4.7902    5.3524 C.ar      1 RES1    0.0000
     46 H20        6.4496    5.0677    5.5499 H         1 RES1    0.0000
     47 C17        5.1669    4.7169    4.0362 C.ar      1 RES1    0.0000
     48 H21        5.7537    4.9421    3.3509 H         1 RES1    0.0000
     49 C18        3.8809    4.3094    3.7393 C.ar      1 RES1    0.0000
     50 H22        3.5934    4.2394    2.8578 H         1 RES1    0.0000
     51 C19        3.0443    4.0125    4.7772 C.ar      1 RES1    0.0000
     52 N1         1.6686    3.5857    4.4842 N.pl3     1 RES1    0.0000
     53 O11        0.8993    3.4373    5.4121 O.2       1 RES1    0.0000
     54 O12        1.3523    3.3985    3.3231 O.2       1 RES1    0.0000
     55 C20        3.4004    4.0893    6.1093 C.ar      1 RES1    0.0000
     56 H23        2.7922    3.9088    6.7893 H         1 RES1    0.0000
@<TRIPOS>BOND
     1    1    2 1
     2    3    1 1
     3    4    3 1
     4    5    3 1
     5    6    5 1
     6    7    6 2
     7    8    6 1
     8    9    8 1
     9   10    8 1
    10   11    8 1
    11   12    3 1
    12   13   12 1
    13   14   12 1
    14   15   14 1
    15   16   15 2
    16   17   15 1
    17   18   17 1
    18   19   17 1
    19   20   17 1
    20   21   12 1
    21   22   21 1
    22   23   21 1
    23   24   23 1
    24   25   24 2
    25   26   24 1
    26   27   26 1
    27   28   26 1
    28   29   26 1
    29   30   21 1
    30   31   30 1
    31   32   30 1
    32   33   32 1
    33   34   32 1
    34   35   32 1
    35   36   35 1
    36   37   36 2
    37   38   36 1
    38   39   38 1
    39   40   38 1
    40   41   38 1
    41   42    1 1
    42   43    1 1
    43   44   43 1
    44   45   44 ar
    45   46   45 1
    46   47   45 ar
    47   48   47 1
    48   49   47 ar
    49   50   49 1
    50   51   49 ar
    51   52   51 1
    52   53   52 2
    53   54   52 2
    54   55   44 ar
    55   56   55 1
    56   30   42 1
    57   51   55 ar
@<TRIPOS>SUBSTRUCTURE
     1 RES1 1

@<TRIPOS>CRYSIN
  10.2100    8.4350   13.5770  90.0000 102.5000  90.0000   4 1

