# MOL2 file generated by ConQuest
# Please check atom types

@<TRIPOS>MOLECULE
YAQWIY
    26    26     1
SMALL
NO_CHARGES
****
Generated from CSD

@<TRIPOS>ATOM
      1 O1        18.2050    2.4509    4.3446 O.3       1 RES1    0.0000
      2 O2        19.9324   -0.7671    7.2172 O.2       1 RES1    0.0000
      3 N1        18.5136    0.5936    6.0880 N.am      1 RES1    0.0000
      4 N2        17.7698   -0.6736    7.8564 N.am      1 RES1    0.0000
      5 N3        17.0004    2.0283    4.9740 N.2       1 RES1    0.0000
      6 C1        17.2515    1.1149    5.8374 C.2       1 RES1    0.0000
      7 C2        18.8078   -0.3070    7.0644 C.2       1 RES1    0.0000
      8 C3        16.1830    0.5785    6.6513 C.2       1 RES1    0.0000
      9 C4        16.4820   -0.2519    7.6438 C.2       1 RES1    0.0000
     10 C5        18.0289    3.7881    3.7844 C.3       1 RES1    0.0000
     11 C6        17.0230    3.7195    2.6496 C.3       1 RES1    0.0000
     12 C7        17.5682    4.7521    4.8454 C.3       1 RES1    0.0000
     13 C8        19.4061    4.1321    3.2743 C.3       1 RES1    0.0000
     14 H1        19.1395    0.8222    5.6163 H         1 RES1    0.0000
     15 H2        17.8970   -1.1292    8.5795 H         1 RES1    0.0000
     16 H3        15.7919   -0.6095    8.2367 H         1 RES1    0.0000
     17 H4        15.3732    0.8584    6.5370 H         1 RES1    0.0000
     18 H5        20.0418    4.1298    3.9084 H         1 RES1    0.0000
     19 H6        19.7416    3.4901    2.5830 H         1 RES1    0.0000
     20 H7        19.4371    4.9384    2.8953 H         1 RES1    0.0000
     21 H8        17.5104    3.1892    1.8939 H         1 RES1    0.0000
     22 H9        16.9526    4.5379    2.3303 H         1 RES1    0.0000
     23 H10       16.3362    3.2925    2.9830 H         1 RES1    0.0000
     24 H11       18.3126    4.7023    5.4233 H         1 RES1    0.0000
     25 H12       16.8380    4.5831    5.1870 H         1 RES1    0.0000
     26 H13       17.6724    5.6075    4.5412 H         1 RES1    0.0000
@<TRIPOS>BOND
     1    1    5 1
     2    2    7 2
     3    3    6 1
     4    4    7 1
     5    5    6 2
     6    6    8 1
     7    7    3 1
     8    8    9 2
     9    9    4 1
    10   10    1 1
    11   11   10 1
    12   12   10 1
    13   13   10 1
    14   14    3 1
    15   15    4 1
    16   16    9 1
    17   17    8 1
    18   18   13 1
    19   19   13 1
    20   20   13 1
    21   21   11 1
    22   22   11 1
    23   23   11 1
    24   24   12 1
    25   25   12 1
    26   26   12 1
@<TRIPOS>SUBSTRUCTURE
     1 RES1 1

@<TRIPOS>CRYSIN
  21.9800    7.5430   12.1200  90.0000 105.1600  90.0000  15 1

