# MOL2 file generated by ConQuest
# Please check atom types

@<TRIPOS>MOLECULE
YARFED
   107    87     2
SMALL
NO_CHARGES
****
Generated from CSD

@<TRIPOS>ATOM
      1 O1        -0.1442    1.4787    3.2000 O.2       1 RES1    0.0000
      2 N1         1.0198    1.1094    3.5598 N.pl3     1 RES1    0.0000
      3 O2         4.2209    0.0274    3.0841 O.2       1 RES1    0.0000
      4 N2         3.0672    0.3954    3.5569 N.3       1 RES1    0.0000
      5 O3         4.4176    0.7412    3.3328 Du        2 SUP2    0.0000
      6 N3         3.1899    0.9380    3.6136 Du        2 SUP2    0.0000
      7 C1         3.3953    2.1311   -3.6907 C.ar      1 RES1    0.0000
      8 C2         2.3555    2.4683   -2.7655 C.ar      1 RES1    0.0000
      9 C3         1.3591    3.3310   -3.1626 C.ar      1 RES1    0.0000
     10 H1         0.6555    3.5021   -2.5793 H         1 RES1    0.0000
     11 C4         1.3710    3.9575   -4.4094 C.ar      1 RES1    0.0000
     12 H2         0.6575    4.4966   -4.6683 H         1 RES1    0.0000
     13 C5         2.4180    3.7777   -5.2386 C.ar      1 RES1    0.0000
     14 H3         2.4514    4.2365   -6.0460 H         1 RES1    0.0000
     15 C6         3.4641    2.8996   -4.8894 C.ar      1 RES1    0.0000
     16 C7         4.5904    2.7815   -5.7347 C.ar      1 RES1    0.0000
     17 H4         4.6662    3.3344   -6.4780 H         1 RES1    0.0000
     18 C8         5.5581    1.8743   -5.4772 C.ar      1 RES1    0.0000
     19 H5         6.3064    1.8212   -6.0271 H         1 RES1    0.0000
     20 C9         5.4357    1.0202   -4.3919 C.ar      1 RES1    0.0000
     21 H6         6.0883    0.3732   -4.2523 H         1 RES1    0.0000
     22 C10        4.3744    1.0989   -3.5089 C.ar      1 RES1    0.0000
     23 C11        2.3176    2.0523   -1.3427 C.ar      1 RES1    0.0000
     24 C12        1.1322    1.6261   -0.7536 C.ar      1 RES1    0.0000
     25 H7         0.3648    1.5662   -1.2758 H         1 RES1    0.0000
     26 C13        1.0594    1.2889    0.5717 C.ar      1 RES1    0.0000
     27 H8         0.2445    1.0339    0.9398 H         1 RES1    0.0000
     28 C14        2.1966    1.3283    1.3704 C.ar      1 RES1    0.0000
     29 C15        3.3928    1.7682    0.8016 C.ar      1 RES1    0.0000
     30 H9         4.1628    1.8144    1.3224 H         1 RES1    0.0000
     31 C16        3.4440    2.1328   -0.5208 C.ar      1 RES1    0.0000
     32 H10        4.2459    2.4392   -0.8787 H         1 RES1    0.0000
     33 C17        2.1197    1.0219    2.7844 C.2       1 RES1    0.0000
     34 C18        1.2603    0.6008    4.9418 C.3       1 RES1    0.0000
     35 C19        2.7763    0.7720    5.0247 C.3       1 RES1    0.0000
     36 C20        0.7874   -0.8370    4.9476 C.3       1 RES1    0.0000
     37 H11        0.8568   -1.1931    5.8365 H         1 RES1    0.0000
     38 H12        1.3326   -1.3557    4.3512 H         1 RES1    0.0000
     39 H13       -0.1273   -0.8747    4.6596 H         1 RES1    0.0000
     40 C21        0.4669    1.4139    5.9485 C.3       1 RES1    0.0000
     41 H14        0.6977    1.1366    6.8388 H         1 RES1    0.0000
     42 H15       -0.4727    1.2735    5.8045 H         1 RES1    0.0000
     43 H16        0.6712    2.3450    5.8409 H         1 RES1    0.0000
     44 C22        3.5255   -0.1968    5.8758 C.3       1 RES1    0.0000
     45 H17        3.1830   -0.1660    6.7719 H         1 RES1    0.0000
     46 H18        4.4569    0.0359    5.8816 H         1 RES1    0.0000
     47 H19        3.4187   -1.0818    5.5223 H         1 RES1    0.0000
     48 C23        3.1601    2.2406    5.4204 C.3       1 RES1    0.0000
     49 H20        2.9476    2.3878    6.3442 H         1 RES1    0.0000
     50 H21        2.6667    2.8585    4.8749 H         1 RES1    0.0000
     51 H22        4.1011    2.3724    5.2837 H         1 RES1    0.0000
     52 C24        4.2955    0.0274   -2.4716 C.ar      1 RES1    0.0000
     53 C25        3.1073   -0.6333   -2.1923 C.ar      1 RES1    0.0000
     54 H23        2.3452   -0.4279   -2.6840 H         1 RES1    0.0000
     55 C26        3.0388   -1.5867   -1.2031 C.ar      1 RES1    0.0000
     56 H24        2.2244   -1.9907   -1.0096 H         1 RES1    0.0000
     57 C27        4.1687   -1.9496   -0.4917 C.ar      1 RES1    0.0000
     58 C28        5.3783   -1.3334   -0.8030 C.ar      1 RES1    0.0000
     59 H25        6.1558   -1.5867   -0.3593 H         1 RES1    0.0000
     60 C29        5.4269   -0.3441   -1.7690 C.ar      1 RES1    0.0000
     61 H26        6.2359    0.0770   -1.9508 H         1 RES1    0.0000
     62 O4         2.2101   -2.1687    1.7835 Du        2 SUP2    0.0000
     63 O5         5.9562   -4.1817   -0.0393 Du        2 SUP2    0.0000
     64 N4         3.2280   -2.9424    1.6642 Du        2 SUP2    0.0000
     65 N5         4.9282   -3.9523    0.6765 Du        2 SUP2    0.0000
     66 C30        4.1865   -2.8123    0.6997 Du        2 SUP2    0.0000
     67 C31        3.5161   -4.1098    2.5516 Du        2 SUP2    0.0000
     68 C32        4.8172   -4.6438    2.0003 Du        2 SUP2    0.0000
     69 C33        3.6110   -3.4611    3.9162 Du        2 SUP2    0.0000
     70 H27        4.1492   -2.6668    3.8566 Du        2 SUP2    0.0000
     71 H28        4.0157   -4.0738    4.5345 Du        2 SUP2    0.0000
     72 H29        2.7320   -3.2300    4.2232 Du        2 SUP2    0.0000
     73 C34        2.3511   -5.0786    2.5022 Du        2 SUP2    0.0000
     74 H30        1.5459   -4.6267    2.7640 Du        2 SUP2    0.0000
     75 H31        2.5175   -5.8112    3.1001 Du        2 SUP2    0.0000
     76 H32        2.2514   -5.4141    1.6061 Du        2 SUP2    0.0000
     77 C35        5.8612   -4.6045    3.0928 Du        2 SUP2    0.0000
     78 H33        5.8825   -5.4620    3.5394 Du        2 SUP2    0.0000
     79 H34        5.6415   -3.9249    3.7256 Du        2 SUP2    0.0000
     80 H35        6.7211   -4.4299    2.7088 Du        2 SUP2    0.0000
     81 C36        4.7299   -6.0800    1.5129 Du        2 SUP2    0.0000
     82 H36        4.7374   -6.6722    2.2723 Du        2 SUP2    0.0000
     83 H37        5.4811   -6.2717    0.9514 Du        2 SUP2    0.0000
     84 H38        3.9157   -6.2015    1.0227 Du        2 SUP2    0.0000
     85 O6         1.9477   -2.5693    1.3253 O.2       1 RES1    0.0000
     86 O7         6.2616   -3.8770    0.4262 O.2       1 RES1    0.0000
     87 N6         3.0465   -3.2180    1.2991 N.pl3     1 RES1    0.0000
     88 N7         5.1262   -3.7538    1.0009 N.3       1 RES1    0.0000
     89 C37        4.0609   -3.0109    0.4946 C.2       1 RES1    0.0000
     90 C38        3.2180   -4.4042    2.1763 C.3       1 RES1    0.0000
     91 C39        4.7125   -4.5822    2.1749 C.3       1 RES1    0.0000
     92 C40        2.5935   -4.2330    3.5467 C.3       1 RES1    0.0000
     93 H39        2.8174   -4.9879    4.0966 H         1 RES1    0.0000
     94 H40        1.6394   -4.1731    3.4580 H         1 RES1    0.0000
     95 H41        2.9287   -3.4302    3.9526 H         1 RES1    0.0000
     96 C41        2.4697   -5.4620    1.3762 C.3       1 RES1    0.0000
     97 H42        1.5321   -5.2532    1.3689 H         1 RES1    0.0000
     98 H43        2.6029   -6.3213    1.7806 H         1 RES1    0.0000
     99 H44        2.8009   -5.4757    0.4757 H         1 RES1    0.0000
    100 C42        5.5240   -3.8102    3.1874 C.3       1 RES1    0.0000
    101 H45        5.5329   -4.2878    4.0210 H         1 RES1    0.0000
    102 H46        5.1309   -2.9441    3.3183 H         1 RES1    0.0000
    103 H47        6.4225   -3.7075    2.8673 H         1 RES1    0.0000
    104 C43        5.2177   -6.0029    2.0352 C.3       1 RES1    0.0000
    105 H48        4.7736   -6.4291    1.2991 H         1 RES1    0.0000
    106 H49        5.0369   -6.4873    2.8426 H         1 RES1    0.0000
    107 H50        6.1645   -5.9910    1.8737 H         1 RES1    0.0000
@<TRIPOS>BOND
     1    1    2 1
     2    2   33 2
     3    3    4 1
     4    4   33 1
     5    7    8 ar
     6    8    9 ar
     7    9   10 1
     8   11    9 ar
     9   12   11 1
    10   13   11 ar
    11   14   13 1
    12   15    7 ar
    13   16   15 ar
    14   17   16 1
    15   18   16 ar
    16   19   18 1
    17   20   18 ar
    18   21   20 1
    19   22    7 ar
    20   23    8 1
    21   24   23 ar
    22   25   24 1
    23   26   24 ar
    24   27   26 1
    25   28   26 ar
    26   29   28 ar
    27   30   29 1
    28   31   23 ar
    29   32   31 1
    30   33   28 1
    31   34    2 1
    32   35    4 1
    33   36   34 1
    34   37   36 1
    35   38   36 1
    36   39   36 1
    37   40   34 1
    38   41   40 1
    39   42   40 1
    40   43   40 1
    41   44   35 1
    42   45   44 1
    43   46   44 1
    44   47   44 1
    45   48   35 1
    46   49   48 1
    47   50   48 1
    48   51   48 1
    49   52   22 1
    50   53   52 ar
    51   54   53 1
    52   55   53 ar
    53   56   55 1
    54   57   55 ar
    55   58   57 ar
    56   59   58 1
    57   60   52 ar
    58   61   60 1
    59   85   87 1
    60   86   88 1
    61   87   89 2
    62   88   89 1
    63   89   57 1
    64   90   87 1
    65   91   88 1
    66   92   90 1
    67   93   92 1
    68   94   92 1
    69   95   92 1
    70   96   90 1
    71   97   96 1
    72   98   96 1
    73   99   96 1
    74  100   91 1
    75  101  100 1
    76  102  100 1
    77  103  100 1
    78  104   91 1
    79  105  104 1
    80  106  104 1
    81  107  104 1
    82   13   15 ar
    83   20   22 ar
    84   29   31 ar
    85   34   35 1
    86   58   60 ar
    87   90   91 1
@<TRIPOS>SUBSTRUCTURE
     1 RES1 1
     2 SUP2 5

@<TRIPOS>CRYSIN
  12.7080   17.1170   14.5550  90.0000  91.8300  90.0000  14 1

