# MOL2 file generated by ConQuest
# Please check atom types

@<TRIPOS>MOLECULE
YARGON01
    54    56     1
SMALL
NO_CHARGES
****
Generated from CSD

@<TRIPOS>ATOM
      1 O1         2.5839   10.0342    6.9531 O.2       1 RES1    0.0000
      2 O2         1.7869    9.8885    4.8451 O.3       1 RES1    0.0000
      3 O3         3.0851    8.8140    2.4690 O.3       1 RES1    0.0000
      4 O4         0.0662   10.5174    2.2845 O.2       1 RES1    0.0000
      5 O5        -1.9544   11.0403    1.2567 O.2       1 RES1    0.0000
      6 O6        -0.1418   13.5688    2.2521 O.2       1 RES1    0.0000
      7 O7         0.4825   15.5909    2.9768 O.3       1 RES1    0.0000
      8 N1         0.9650   14.0304    6.8372 N.3       1 RES1    0.0000
      9 N2        -1.2033   10.9191    2.2750 N.pl3     1 RES1    0.0000
     10 C1         1.4691   12.7371    6.9733 C.2       1 RES1    0.0000
     11 C2         1.3277   11.8837    5.9240 C.2       1 RES1    0.0000
     12 C3         0.4676   12.2855    4.6619 C.3       1 RES1    0.0000
     13 C4         0.4370   13.8095    4.5353 C.2       1 RES1    0.0000
     14 C5         0.5728   14.5932    5.6303 C.2       1 RES1    0.0000
     15 C6         0.3296   16.0724    5.7192 C.3       1 RES1    0.0000
     16 C7         2.1466   12.4565    8.3256 C.3       1 RES1    0.0000
     17 C8         1.9621   10.5356    6.0048 C.2       1 RES1    0.0000
     18 C9         2.3876    8.5450    4.7710 C.3       1 RES1    0.0000
     19 C10        2.1667    8.0736    3.3647 C.3       1 RES1    0.0000
     20 C11        4.2619    7.9656    2.0743 C.3       1 RES1    0.0000
     21 C12        3.6269    6.5960    2.0299 C.3       1 RES1    0.0000
     22 C13        2.5986    6.5960    3.2139 C.3       1 RES1    0.0000
     23 C14       -1.1285   11.7443    4.6524 C.ar      1 RES1    0.0000
     24 C15       -1.9526   11.8754    5.8149 C.ar      1 RES1    0.0000
     25 C16       -3.4239   11.4985    5.8728 C.ar      1 RES1    0.0000
     26 C17       -4.1553   10.9988    4.7602 C.ar      1 RES1    0.0000
     27 C18       -3.3943   10.8577    3.5937 C.ar      1 RES1    0.0000
     28 C19       -1.9097   11.2097    3.5533 C.ar      1 RES1    0.0000
     29 C20        0.2107   14.2860    3.1694 C.2       1 RES1    0.0000
     30 C21        0.3711   16.0608    1.6204 C.3       1 RES1    0.0000
     31 H1         1.0036   14.5434    7.5161 H         1 RES1    0.0000
     32 H2         0.9881   11.9036    3.8927 H         1 RES1    0.0000
     33 H3         1.1817   16.5522    5.6034 H         1 RES1    0.0000
     34 H4         0.1326   16.3364    6.6136 H         1 RES1    0.0000
     35 H5        -0.4922   16.3862    5.1993 H         1 RES1    0.0000
     36 H6         1.9139   13.1986    8.9978 H         1 RES1    0.0000
     37 H7         3.1795   12.4183    8.2435 H         1 RES1    0.0000
     38 H8         1.9125   11.5716    8.6206 H         1 RES1    0.0000
     39 H9         1.9229    8.0188    5.4014 H         1 RES1    0.0000
     40 H10        3.4596    8.5334    5.0242 H         1 RES1    0.0000
     41 H11        1.1562    8.2180    3.0846 H         1 RES1    0.0000
     42 H12        5.0748    7.9690    2.8286 H         1 RES1    0.0000
     43 H13        4.6483    8.3508    1.3739 H         1 RES1    0.0000
     44 H14        2.9992    6.3918    1.0910 H         1 RES1    0.0000
     45 H15        4.3432    5.8605    2.1686 H         1 RES1    0.0000
     46 H16        1.7695    6.0431    3.0172 H         1 RES1    0.0000
     47 H17        3.0676    6.2424    4.0274 H         1 RES1    0.0000
     48 H18       -1.4456   12.1859    6.6136 H         1 RES1    0.0000
     49 H19       -3.8982   11.6214    6.6406 H         1 RES1    0.0000
     50 H20       -5.1824   10.7581    4.7952 H         1 RES1    0.0000
     51 H21       -3.8744   10.4925    2.8286 H         1 RES1    0.0000
     52 H22       -0.4107   15.6723    1.1584 H         1 RES1    0.0000
     53 H23        0.9029   15.5561    1.0372 H         1 RES1    0.0000
     54 H24        0.2659   16.9174    1.6029 H         1 RES1    0.0000
@<TRIPOS>BOND
     1    1   17 2
     2    2   17 1
     3    3   19 1
     4    4    9 2
     5    5    9 2
     6    6   29 2
     7    7   29 1
     8    8   10 1
     9    9   28 1
    10   10   11 2
    11   11   12 1
    12   12   13 1
    13   13   14 2
    14   14    8 1
    15   15   14 1
    16   16   10 1
    17   17   11 1
    18   18    2 1
    19   19   18 1
    20   20    3 1
    21   21   20 1
    22   22   19 1
    23   23   12 1
    24   24   23 ar
    25   25   24 ar
    26   26   25 ar
    27   27   26 ar
    28   28   23 ar
    29   29   13 1
    30   30    7 1
    31   31    8 1
    32   32   12 1
    33   33   15 1
    34   34   15 1
    35   35   15 1
    36   36   16 1
    37   37   16 1
    38   38   16 1
    39   39   18 1
    40   40   18 1
    41   41   19 1
    42   42   20 1
    43   43   20 1
    44   44   21 1
    45   45   21 1
    46   46   22 1
    47   47   22 1
    48   48   24 1
    49   49   25 1
    50   50   26 1
    51   51   27 1
    52   52   30 1
    53   53   30 1
    54   54   30 1
    55   21   22 1
    56   27   28 ar
@<TRIPOS>SUBSTRUCTURE
     1 RES1 1

@<TRIPOS>CRYSIN
   9.9880   16.6020   13.7580  90.0000 101.7500  90.0000  14 1

