# MOL2 file generated by ConQuest
# Please check atom types

@<TRIPOS>MOLECULE
YARGON
    46    33    14
SMALL
NO_CHARGES
****
Generated from CSD

@<TRIPOS>ATOM
      1 N1         0.3205    3.4178   -0.5867 N.2       1 RES1    0.0000
      2 H1        -0.1058    3.6342   -1.3063 H         1 RES1    0.0000
      3 C1         0.6613    4.4353    0.3109 C.2       1 RES1    0.0000
      4 C2         1.1269    4.1945    1.5420 C.2       1 RES1    0.0000
      5 C3         1.4045    2.7128    1.8930 C.2       1 RES1    0.0000
      6 H2         2.3258    2.6525    2.4145 H         1 RES1    0.0000
      7 C4         1.4114    1.8159    0.5691 C.2       1 RES1    0.0000
      8 C5         0.8596    2.1509   -0.4638 C.2       1 RES1    0.0000
      9 C6         0.7511    1.4306   -1.8804 C.2       1 RES1    0.0000
     10 H3         1.2213    2.1909   -2.5624 H         1 RES1    0.0000
     11 H4        -0.2759    0.7008    2.2189 H         2 RES2    0.0000
     12 H5         1.0784    0.6129   -1.8729 H         1 RES1    0.0000
     13 C7         0.1882    5.7437   -0.2758 C.3       1 RES1    0.0000
     14 H6        -0.8168    5.7830   -0.4112 H         1 RES1    0.0000
     15 H7         0.7165    5.9627   -1.1383 H         1 RES1    0.0000
     16 H8         0.3898    6.5608    0.3535 H         1 RES1    0.0000
     17 C8         1.6121    5.2159    2.4345 C.2       1 RES1    0.0000
     18 O1         1.2843    6.2689    2.4170 O.2       1 RES1    0.0000
     19 O2         2.2965    4.7497    3.4675 O.3       1 RES1    0.0000
     20 C9         2.9702    5.7066    4.3676 C.3       1 RES1    0.0000
     21 H9         2.4801    5.9691    5.2100 H         1 RES1    0.0000
     22 H10        3.0216    6.6734    3.9639 H         1 RES1    0.0000
     23 C10        4.2403    5.2059    4.6459 C.2       1 RES1    0.0000
     24 H11        4.2977    4.2562    4.9368 H         1 RES1    0.0000
     25 O3         5.0222    5.5552    3.4449 O.3       1 RES1    0.0000
     26 C11        6.3921    5.9185    3.6455 C.3       1 RES1    0.0000
     27 H12        6.8510    6.4327    2.8758 H         1 RES1    0.0000
     28 H13        7.0197    5.0318    3.4750 H         1 RES1    0.0000
     29 C12        6.2600    6.4468    5.1298 C.2       1 RES1    0.0000
     30 H14        6.6652    7.4365    5.1022 H         1 RES1    0.0000
     31 H15        0.6208   -5.1720   24.8307 H         3 RES3    0.0000
     32 C13        1.7711   -4.7578   20.4741 C.2       4 RES4    0.0000
     33 H16        1.2142   -4.8127   19.1102 H         5 RES5    0.0000
     34 C14        2.8696   -4.8695   19.3659 C.2       4 RES4    0.0000
     35 H17        3.1924   -5.0262   17.2305 H         6 RES6    0.0000
     36 H18        3.6754   -4.6732   21.1912 H         7 RES7    0.0000
     37 N2         4.8476   -4.5998   19.3534 N.2       8 RES8    0.0000
     38 O4         5.2148   -3.9260   19.5214 O.2       8 RES8    0.0000
     39 O5         5.2376   -5.6497   18.4959 O.2       8 RES8    0.0000
     40 C15        5.4174   -7.3949   29.2394 C.2       9 RES9    0.0000
     41 O6         5.6269   -8.6123   31.5285 O.2      10 RES10   0.0000
     42 C16        4.4693   -2.9549   26.1480 C.2      11 RES11   0.0000
     43 C17        6.8611   -8.0494   25.7042 C.2      12 RES12   0.0000
     44 H19        6.7084   -9.0250   26.2513 H        12 RES12   0.0000
     45 H20        7.5638   -8.4586   27.2823 H        13 RES13   0.0000
     46 H21        4.8557   -0.9678   23.3660 H        14 RES14   0.0000
@<TRIPOS>BOND
     1    1    2 1
     2    3    1 1
     3    4    3 1
     4    5    4 1
     5    6    5 1
     6    7    5 1
     7    8    1 1
     8    9    8 1
     9   10    9 1
    10   12    9 1
    11   13    3 1
    12   14   13 1
    13   15   13 1
    14   16   13 1
    15   17    4 1
    16   18   17 1
    17   19   17 1
    18   20   19 1
    19   21   20 1
    20   22   20 1
    21   23   20 1
    22   24   23 1
    23   25   23 1
    24   26   25 1
    25   27   26 1
    26   28   26 1
    27   29   26 1
    28   30   29 1
    29   32   34 1
    30   37   38 1
    31   39   37 1
    32   43   44 1
    33    7    8 1
@<TRIPOS>SUBSTRUCTURE
     1 RES1 1
     2 RES2 11
     3 RES3 31
     4 RES4 32
     5 RES5 33
     6 RES6 35
     7 RES7 36
     8 RES8 37
     9 RES9 40
    10 RES10 41
    11 RES11 42
    12 RES12 43
    13 RES13 45
    14 RES14 46

@<TRIPOS>CRYSIN
   8.1270   10.6030   25.5060  99.8190  90.4770 109.1510   2 1

