# MOL2 file generated by ConQuest
# Please check atom types

@<TRIPOS>MOLECULE
YARQEN
   132   132     3
SMALL
NO_CHARGES
****
Generated from CSD

@<TRIPOS>ATOM
      1 O1        -3.4796    9.3988   11.4159 O.3       1 RES1    0.0000
      2 N1        -2.6216    8.7543   12.2754 N.2       1 RES1    0.0000
      3 N2        -1.7833    8.1078   11.5945 N.pl3     1 RES1    0.0000
      4 O2        -1.7557    8.1291   10.3079 O.2       1 RES1    0.0000
      5 O3         2.4452    5.7523   10.1594 O.2       1 RES1    0.0000
      6 C1         1.5103    6.2052   10.8018 C.2       1 RES1    0.0000
      7 C2         0.2531    5.4039   10.9787 C.2       1 RES1    0.0000
      8 C3        -0.7504    5.9497   11.6579 C.2       1 RES1    0.0000
      9 C4        -0.7106    7.2930   12.2970 C.3       1 RES1    0.0000
     10 C5         0.5662    8.0381   12.0801 C.2       1 RES1    0.0000
     11 C6         1.6152    7.5639   11.4126 C.2       1 RES1    0.0000
     12 C7         0.1800    3.9987   10.3663 C.3       1 RES1    0.0000
     13 C8         1.2478    3.1065   10.9988 C.3       1 RES1    0.0000
     14 C9         0.4245    4.0607    8.8427 C.3       1 RES1    0.0000
     15 C10       -1.1789    3.3484   10.6383 C.3       1 RES1    0.0000
     16 C11       -1.0285    7.2001   13.7906 C.3       1 RES1    0.0000
     17 C12        2.9126    8.3730   11.2424 C.3       1 RES1    0.0000
     18 C13        4.1143    7.5833   11.7664 C.3       1 RES1    0.0000
     19 C14        3.1134    8.7156    9.7706 C.3       1 RES1    0.0000
     20 C15        2.8415    9.6910   12.0200 C.3       1 RES1    0.0000
     21 O4         8.8662   10.4420   -0.2770 O.3       2 RES2    0.0000
     22 N3         7.8976   11.4059   -0.2954 N.2       2 RES2    0.0000
     23 N4         7.1891   11.2569   -1.3400 N.pl3     2 RES2    0.0000
     24 O5         7.4056   10.3298   -2.1861 O.2       2 RES2    0.0000
     25 O6         2.8718   13.5717    0.6692 O.2       2 RES2    0.0000
     26 C16        3.8566   13.0820    0.1385 C.2       2 RES2    0.0000
     27 C17        5.1692   13.8021    0.1635 C.2       2 RES2    0.0000
     28 C18        6.1576   13.3433   -0.6041 C.2       2 RES2    0.0000
     29 C19        6.0173   12.1975   -1.5436 C.3       2 RES2    0.0000
     30 C20        4.7813   11.3846   -1.3283 C.2       2 RES2    0.0000
     31 C21        3.7670   11.7640   -0.5590 C.2       2 RES2    0.0000
     32 C22        5.3047   15.0892    0.9896 C.3       2 RES2    0.0000
     33 C23        4.5170   16.1963    0.2820 C.3       2 RES2    0.0000
     34 C24        6.7635   15.5343    1.0763 C.3       2 RES2    0.0000
     35 C25        4.7997   14.8917    2.4164 C.3       2 RES2    0.0000
     36 C26        6.1098   12.6814   -2.9937 C.3       2 RES2    0.0000
     37 C27        2.5014   10.9027   -0.3655 C.3       2 RES2    0.0000
     38 C28        1.2522   11.6382   -0.8678 C.3       2 RES2    0.0000
     39 C29        2.3631   10.5698    1.1164 C.3       2 RES2    0.0000
     40 C30        2.6133    9.5885   -1.1381 C.3       2 RES2    0.0000
     41 O7        -6.1984    8.4872    6.0292 O.3       3 RES3    0.0000
     42 N5        -5.2821    7.4730    6.0309 N.2       3 RES3    0.0000
     43 N6        -4.5090    7.5891    7.0271 N.pl3     3 RES3    0.0000
     44 O8        -4.6165    8.5297    7.8782 O.2       3 RES3    0.0000
     45 O9        -0.3336    5.6517    4.5674 O.2       3 RES3    0.0000
     46 C31       -1.2586    5.9749    5.2966 C.2       3 RES3    0.0000
     47 C32       -1.1384    7.1633    6.1811 C.2       3 RES3    0.0000
     48 C33       -2.1227    7.4207    7.0421 C.2       3 RES3    0.0000
     49 C34       -3.3711    6.6020    7.1623 C.3       3 RES3    0.0000
     50 C35       -3.5074    5.5452    6.1277 C.2       3 RES3    0.0000
     51 C36       -2.5350    5.1833    5.2950 C.2       3 RES3    0.0000
     52 C37        0.1125    8.0517    6.0726 C.3       3 RES3    0.0000
     53 C38        1.3795    7.2523    6.3930 C.3       3 RES3    0.0000
     54 C39        0.1890    8.6343    4.6575 C.3       3 RES3    0.0000
     55 C40        0.0362    9.2265    7.0522 C.3       3 RES3    0.0000
     56 C41       -3.5091    5.9788    8.5507 C.3       3 RES3    0.0000
     57 C42       -2.6498    3.9755    4.3621 C.3       3 RES3    0.0000
     58 C43       -2.4664    4.4071    2.9036 C.3       3 RES3    0.0000
     59 C44       -4.0232    3.3252    4.4656 C.3       3 RES3    0.0000
     60 C45       -1.5937    2.9458    4.7443 C.3       3 RES3    0.0000
     61 H1        -3.0915    9.1181   10.6099 H         1 RES1    0.0000
     62 H2        -1.5362    5.4891   11.7664 H         1 RES1    0.0000
     63 H3         0.5856    8.8801   12.4472 H         1 RES1    0.0000
     64 H4         2.1744    3.4684   10.8152 H         1 RES1    0.0000
     65 H5         1.1573    2.2258   10.6316 H         1 RES1    0.0000
     66 H6         1.0977    3.0755   11.9633 H         1 RES1    0.0000
     67 H7         1.2564    4.4226    8.5841 H         1 RES1    0.0000
     68 H8         0.2333    3.1936    8.4756 H         1 RES1    0.0000
     69 H9        -0.2703    4.6955    8.4289 H         1 RES1    0.0000
     70 H10       -1.1788    2.4755   10.2528 H         1 RES1    0.0000
     71 H11       -1.9501    3.9116   10.1944 H         1 RES1    0.0000
     72 H12       -1.3240    3.2497   11.6229 H         1 RES1    0.0000
     73 H13       -0.2698    6.6562   14.1861 H         1 RES1    0.0000
     74 H14       -1.8630    6.7123   13.9057 H         1 RES1    0.0000
     75 H15       -1.0450    8.0420   14.1978 H         1 RES1    0.0000
     76 H16        4.9108    8.1581   11.7213 H         1 RES1    0.0000
     77 H17        4.2478    6.7355   11.2808 H         1 RES1    0.0000
     78 H18        3.9726    7.3897   12.6892 H         1 RES1    0.0000
     79 H19        3.9547    9.2246    9.6604 H         1 RES1    0.0000
     80 H20        3.1726    7.9317    9.1998 H         1 RES1    0.0000
     81 H21        2.3373    9.3117    9.4418 H         1 RES1    0.0000
     82 H22        2.7324    9.4607   13.0463 H         1 RES1    0.0000
     83 H23        3.6597   10.1672   11.8765 H         1 RES1    0.0000
     84 H24        2.1203   10.2601   11.6946 H         1 RES1    0.0000
     85 H25        8.6378    9.9156   -1.1398 H         2 RES2    0.0000
     86 H26        6.9713   13.8098   -0.6441 H         2 RES2    0.0000
     87 H27        4.7425   10.6085   -1.8023 H         2 RES2    0.0000
     88 H28        4.6467   16.9569    0.7760 H         2 RES2    0.0000
     89 H29        3.5689   15.9698    0.2570 H         2 RES2    0.0000
     90 H30        4.8802   16.3298   -0.6425 H         2 RES2    0.0000
     91 H31        7.3412   14.8259    1.5119 H         2 RES2    0.0000
     92 H32        7.1367   15.7840    0.1669 H         2 RES2    0.0000
     93 H33        6.8158   16.3143    1.6354 H         2 RES2    0.0000
     94 H34        3.8683   14.6033    2.4864 H         2 RES2    0.0000
     95 H35        4.9697   15.7008    2.8953 H         2 RES2    0.0000
     96 H36        5.3195   14.1524    2.8769 H         2 RES2    0.0000
     97 H37        5.2761   13.2214   -3.1873 H         2 RES2    0.0000
     98 H38        6.1275   11.9149   -3.5928 H         2 RES2    0.0000
     99 H39        6.8936   13.2795   -3.0972 H         2 RES2    0.0000
    100 H40        1.4071   11.8820   -1.7689 H         2 RES2    0.0000
    101 H41        1.0691   12.4762   -0.3554 H         2 RES2    0.0000
    102 H42        0.4530   11.0343   -0.8127 H         2 RES2    0.0000
    103 H43        1.5735   10.0240    1.2733 H         2 RES2    0.0000
    104 H44        2.2577   11.3865    1.6771 H         2 RES2    0.0000
    105 H45        3.1874   10.0220    1.4468 H         2 RES2    0.0000
    106 H46        2.6562    9.7917   -2.1227 H         2 RES2    0.0000
    107 H47        1.8302    9.0794   -0.9111 H         2 RES2    0.0000
    108 H48        3.3957    9.0562   -0.8494 H         2 RES2    0.0000
    109 H49       -5.9173    8.9730    6.7651 H         3 RES3    0.0000
    110 H50       -2.1142    8.1349    7.6212 H         3 RES3    0.0000
    111 H51       -4.2788    5.0671    6.1444 H         3 RES3    0.0000
    112 H52        1.5124    6.4897    5.7555 H         3 RES3    0.0000
    113 H53        1.3187    6.9252    7.2958 H         3 RES3    0.0000
    114 H54        2.1804    7.8543    6.3730 H         3 RES3    0.0000
    115 H55        0.2654    7.9259    3.9633 H         3 RES3    0.0000
    116 H56       -0.6344    9.1336    4.4105 H         3 RES3    0.0000
    117 H57        0.9661    9.2110    4.6341 H         3 RES3    0.0000
    118 H58        0.8152    9.7994    6.9420 H         3 RES3    0.0000
    119 H59        0.0063    8.9033    8.0017 H         3 RES3    0.0000
    120 H60       -0.7710    9.8304    6.8269 H         3 RES3    0.0000
    121 H61       -2.7603    5.3594    8.7026 H         3 RES3    0.0000
    122 H62       -3.5108    6.6891    9.2399 H         3 RES3    0.0000
    123 H63       -4.3274    5.4368    8.6091 H         3 RES3    0.0000
    124 H64       -3.1672    5.1291    2.6466 H         3 RES3    0.0000
    125 H65       -2.5592    3.6678    2.4063 H         3 RES3    0.0000
    126 H66       -1.5643    4.7749    2.7718 H         3 RES3    0.0000
    127 H67       -4.0806    2.5471    3.8832 H         3 RES3    0.0000
    128 H68       -4.7852    3.9542    4.1886 H         3 RES3    0.0000
    129 H69       -4.1592    2.9749    5.3817 H         3 RES3    0.0000
    130 H70       -1.7270    2.1329    4.2270 H         3 RES3    0.0000
    131 H71       -1.8110    2.6826    5.6921 H         3 RES3    0.0000
    132 H72       -0.6548    3.2904    4.7059 H         3 RES3    0.0000
@<TRIPOS>BOND
     1    1    2 1
     2    2    3 2
     3    3    4 1
     4    5    6 2
     5    6    7 1
     6    7    8 2
     7    8    9 1
     8    9    3 1
     9   10    9 1
    10   11    6 1
    11   12    7 1
    12   13   12 1
    13   14   12 1
    14   15   12 1
    15   16    9 1
    16   17   11 1
    17   18   17 1
    18   19   17 1
    19   20   17 1
    20   21   22 1
    21   22   23 2
    22   23   24 1
    23   25   26 2
    24   26   27 1
    25   27   28 2
    26   28   29 1
    27   29   23 1
    28   30   29 1
    29   31   26 1
    30   32   27 1
    31   33   32 1
    32   34   32 1
    33   35   32 1
    34   36   29 1
    35   37   31 1
    36   38   37 1
    37   39   37 1
    38   40   37 1
    39   41   42 1
    40   42   43 2
    41   43   44 1
    42   45   46 2
    43   46   47 1
    44   47   48 2
    45   48   49 1
    46   49   43 1
    47   50   49 1
    48   51   46 1
    49   52   47 1
    50   53   52 1
    51   54   52 1
    52   55   52 1
    53   56   49 1
    54   57   51 1
    55   58   57 1
    56   59   57 1
    57   60   57 1
    58   61    1 1
    59   62    8 1
    60   63   10 1
    61   64   13 1
    62   65   13 1
    63   66   13 1
    64   67   14 1
    65   68   14 1
    66   69   14 1
    67   70   15 1
    68   71   15 1
    69   72   15 1
    70   73   16 1
    71   74   16 1
    72   75   16 1
    73   76   18 1
    74   77   18 1
    75   78   18 1
    76   79   19 1
    77   80   19 1
    78   81   19 1
    79   82   20 1
    80   83   20 1
    81   84   20 1
    82   85   21 1
    83   86   28 1
    84   87   30 1
    85   88   33 1
    86   89   33 1
    87   90   33 1
    88   91   34 1
    89   92   34 1
    90   93   34 1
    91   94   35 1
    92   95   35 1
    93   96   35 1
    94   97   36 1
    95   98   36 1
    96   99   36 1
    97  100   38 1
    98  101   38 1
    99  102   38 1
   100  103   39 1
   101  104   39 1
   102  105   39 1
   103  106   40 1
   104  107   40 1
   105  108   40 1
   106  109   41 1
   107  110   48 1
   108  111   50 1
   109  112   53 1
   110  113   53 1
   111  114   53 1
   112  115   54 1
   113  116   54 1
   114  117   54 1
   115  118   55 1
   116  119   55 1
   117  120   55 1
   118  121   56 1
   119  122   56 1
   120  123   56 1
   121  124   58 1
   122  125   58 1
   123  126   58 1
   124  127   59 1
   125  128   59 1
   126  129   59 1
   127  130   60 1
   128  131   60 1
   129  132   60 1
   130   10   11 2
   131   30   31 2
   132   50   51 2
@<TRIPOS>SUBSTRUCTURE
     1 RES1 1
     2 RES2 21
     3 RES3 41

@<TRIPOS>CRYSIN
  14.8150   19.3550   18.0690  90.0000 112.5500  90.0000  14 1

