# MOL2 file generated by ConQuest
# Please check atom types

@<TRIPOS>MOLECULE
YARQIR
    47    47     1
SMALL
NO_CHARGES
****
Generated from CSD

@<TRIPOS>ATOM
      1 O1         5.4871    9.2939    8.7344 O.2       1 RES1    0.0000
      2 C1         5.6977   10.1860    9.5284 C.2       1 RES1    0.0000
      3 C2         6.4591    9.9187   10.7927 C.2       1 RES1    0.0000
      4 C3         6.6023   10.9046   11.6778 C.2       1 RES1    0.0000
      5 C4         6.1189   12.3058   11.4696 C.3       1 RES1    0.0000
      6 C5         5.3864   12.5099   10.1923 C.2       1 RES1    0.0000
      7 C6         5.1988   11.5781    9.2583 C.2       1 RES1    0.0000
      8 C7         6.9828    8.4976   11.0579 C.3       1 RES1    0.0000
      9 C8         7.9217    8.0372    9.9401 C.3       1 RES1    0.0000
     10 C9         5.8074    7.5244   11.1669 C.3       1 RES1    0.0000
     11 C10        7.7624    8.4326   12.3710 C.3       1 RES1    0.0000
     12 C11        7.2765   13.2845   11.6014 C.3       1 RES1    0.0000
     13 C12        4.4569   11.8616    7.9469 C.3       1 RES1    0.0000
     14 C13        5.3507   11.5493    6.7395 C.3       1 RES1    0.0000
     15 C14        3.1810   11.0274    7.8688 C.3       1 RES1    0.0000
     16 C15        4.0459   13.3351    7.8541 C.3       1 RES1    0.0000
     17 N1         4.7481   11.6793   13.2952 N.2       1 RES1    0.0000
     18 O2         3.8099   12.1271   14.2015 O.3       1 RES1    0.0000
     19 N2         5.1179   12.6543   12.5695 N.pl3     1 RES1    0.0000
     20 O3         4.7134   13.8443   12.6606 O.2       1 RES1    0.0000
     21 C16        3.5811   11.0491   15.1371 C.3       1 RES1    0.0000
     22 H1         7.0418   10.7042   12.4963 H         1 RES1    0.0000
     23 H2         5.0234   13.3730   10.0279 H         1 RES1    0.0000
     24 H3         7.4488    8.0679    9.0826 H         1 RES1    0.0000
     25 H4         8.2161    7.1199   10.1191 H         1 RES1    0.0000
     26 H5         8.7019    8.6294    9.9043 H         1 RES1    0.0000
     27 H6         5.2880    7.5442   10.3355 H         1 RES1    0.0000
     28 H7         5.2340    7.7862   11.9170 H         1 RES1    0.0000
     29 H8         6.1470    6.6179   11.3166 H         1 RES1    0.0000
     30 H9         8.5239    9.0484   12.3287 H         1 RES1    0.0000
     31 H10        8.0885    7.5189   12.5126 H         1 RES1    0.0000
     32 H11        7.1750    8.6890   13.1130 H         1 RES1    0.0000
     33 H12        7.7412   13.1292   12.4507 H         1 RES1    0.0000
     34 H13        6.9320   13.6601   11.5818 H         1 RES1    0.0000
     35 H14        7.9013   13.1545   10.8578 H         1 RES1    0.0000
     36 H15        6.1693   12.0856    6.7900 H         1 RES1    0.0000
     37 H16        4.8706   11.7641    5.9113 H         1 RES1    0.0000
     38 H17        5.5840   10.5977    6.7428 H         1 RES1    0.0000
     39 H18        3.4094   10.0758    7.9241 H         1 RES1    0.0000
     40 H19        2.7269   11.2044    7.0178 H         1 RES1    0.0000
     41 H20        2.5889   11.2658    8.6107 H         1 RES1    0.0000
     42 H21        4.8449   13.9003    7.9013 H         1 RES1    0.0000
     43 H22        3.4461   13.5554    8.5977 H         1 RES1    0.0000
     44 H23        3.5843   13.4940    7.0031 H         1 RES1    0.0000
     45 H24        2.9169   11.3290   15.8010 H         1 RES1    0.0000
     46 H25        4.4213   10.8270   15.5894 H         1 RES1    0.0000
     47 H26        3.2505   10.2636   14.6555 H         1 RES1    0.0000
@<TRIPOS>BOND
     1    1    2 2
     2    2    3 1
     3    3    4 2
     4    4    5 1
     5    5    6 1
     6    6    7 2
     7    7    2 1
     8    8    3 1
     9    9    8 1
    10   10    8 1
    11   11    8 1
    12   12    5 1
    13   13    7 1
    14   14   13 1
    15   15   13 1
    16   16   13 1
    17   17   18 1
    18   18   21 1
    19   19    5 1
    20   20   19 1
    21   21   45 1
    22   22    4 1
    23   23    6 1
    24   24    9 1
    25   25    9 1
    26   26    9 1
    27   27   10 1
    28   28   10 1
    29   29   10 1
    30   30   11 1
    31   31   11 1
    32   32   11 1
    33   33   12 1
    34   34   12 1
    35   35   12 1
    36   36   14 1
    37   37   14 1
    38   38   14 1
    39   39   15 1
    40   40   15 1
    41   41   15 1
    42   42   16 1
    43   43   16 1
    44   44   16 1
    45   46   21 1
    46   47   21 1
    47   17   19 2
@<TRIPOS>SUBSTRUCTURE
     1 RES1 1

@<TRIPOS>CRYSIN
   5.8217   18.0570   16.3100  90.0000  93.9530  90.0000   9 1

