# MOL2 file generated by ConQuest
# Please check atom types

@<TRIPOS>MOLECULE
YARQUD
    62    70     2
SMALL
NO_CHARGES
****
Generated from CSD

@<TRIPOS>ATOM
      1 C1         5.8440    2.0879   15.1946 C.3       1 RES1    0.0000
      2 O1         4.7812    2.9117   14.9469 O.3       1 RES1    0.0000
      3 C2         6.6178    2.6612   16.3445 C.3       1 RES1    0.0000
      4 O2         7.3839    1.6649   17.0016 O.3       1 RES1    0.0000
      5 C3         7.6923    3.5667   15.6925 C.3       1 RES1    0.0000
      6 O3         8.9020    3.1351   16.2611 O.3       1 RES1    0.0000
      7 C4         7.5896    3.1962   14.2139 C.3       1 RES1    0.0000
      8 O4         6.7801    2.0013   14.1432 O.3       1 RES1    0.0000
      9 C5         8.8935    2.9025   13.5240 C.3       1 RES1    0.0000
     10 O5         9.6750    4.1244   13.5341 O.3       1 RES1    0.0000
     11 C6         8.7841    2.5271   12.0505 C.3       1 RES1    0.0000
     12 C7         9.5076    3.6543   11.3934 C.2       1 RES1    0.0000
     13 N1         9.9702    4.5214   12.2173 N.2       1 RES1    0.0000
     14 C8         9.6700    3.8902    9.9351 C.3       1 RES1    0.0000
     15 O6         8.4181    4.2688    9.3968 O.3       1 RES1    0.0000
     16 C9        10.0704    2.6477    9.1314 C.3       1 RES1    0.0000
     17 O7         9.4269    2.9149    7.8778 O.3       1 RES1    0.0000
     18 C10       11.5339    2.4811    8.8787 C.3       1 RES1    0.0000
     19 O8        12.1277    2.1733   10.1423 O.3       1 RES1    0.0000
     20 C11       11.8913    1.2971    8.0067 C.3       1 RES1    0.0000
     21 O9        12.6888    0.4755    8.8205 O.3       1 RES1    0.0000
     22 C12        3.9535    2.4557   13.9107 C.3       1 RES1    0.0000
     23 C13        8.6630    2.1690   17.2822 C.3       1 RES1    0.0000
     24 C14        8.7617    2.8235   18.6217 C.3       1 RES1    0.0000
     25 C15        9.6824    1.0764   17.1027 C.3       1 RES1    0.0000
     26 C16        8.2390    3.5921    8.1558 C.3       1 RES1    0.0000
     27 C17        7.0806    2.6720    8.3100 C.3       1 RES1    0.0000
     28 C18        7.9878    4.6247    7.0766 C.3       1 RES1    0.0000
     29 C19       13.1768    1.2322    9.8997 C.3       1 RES1    0.0000
     30 C20       14.4341    1.9581    9.5813 C.3       1 RES1    0.0000
     31 C21       13.3214    0.3721   11.0952 C.3       1 RES1    0.0000
     32 C22       15.9538    3.9918   -2.6411 C.3       2 RES2    0.0000
     33 O10       17.0658    4.6128   -2.1255 O.3       2 RES2    0.0000
     34 C23       15.2307    4.9925   -3.5282 C.3       2 RES2    0.0000
     35 O11       14.4020    4.2709   -4.4431 O.3       2 RES2    0.0000
     36 C24       14.1947    5.6600   -2.6133 C.3       2 RES2    0.0000
     37 O12       12.9647    5.4950   -3.2679 O.3       2 RES2    0.0000
     38 C25       14.2936    4.8524   -1.3193 C.3       2 RES2    0.0000
     39 O13       15.0018    3.6592   -1.6504 O.3       2 RES2    0.0000
     40 C26       12.9655    4.4662   -0.7026 C.3       2 RES2    0.0000
     41 O14       12.3007    5.7076   -0.2704 O.3       2 RES2    0.0000
     42 C27       13.0695    3.6305    0.5636 C.3       2 RES2    0.0000
     43 C28       12.6618    4.6101    1.6049 C.2       2 RES2    0.0000
     44 N2        12.2559    5.7195    1.1424 N.2       2 RES2    0.0000
     45 C29       12.6816    4.3970    3.0834 C.3       2 RES2    0.0000
     46 O15       14.0332    4.1244    3.4600 O.3       2 RES2    0.0000
     47 C30       11.9216    3.1621    3.5383 C.3       2 RES2    0.0000
     48 O16       12.7094    2.6677    4.6200 O.3       2 RES2    0.0000
     49 C31       10.5344    3.4385    4.0210 C.3       2 RES2    0.0000
     50 O17        9.8095    4.0421    2.9596 O.3       2 RES2    0.0000
     51 C32        9.7146    2.2128    4.3724 C.3       2 RES2    0.0000
     52 O18        8.4056    2.5530    3.9301 O.3       2 RES2    0.0000
     53 C33       17.8791    3.7593   -1.3521 C.3       2 RES2    0.0000
     54 C34       13.1836    4.9168   -4.5442 C.3       2 RES2    0.0000
     55 C35       13.1862    5.9769   -5.6057 C.3       2 RES2    0.0000
     56 C36       12.1224    3.8945   -4.7970 C.3       2 RES2    0.0000
     57 C37       13.9330    3.3536    4.6478 C.3       2 RES2    0.0000
     58 C38       15.0494    2.4178    4.7211 C.3       2 RES2    0.0000
     59 C39       13.9159    4.3056    5.8357 C.3       2 RES2    0.0000
     60 C40        8.5847    3.3660    2.7498 C.3       2 RES2    0.0000
     61 C41        7.4429    4.3380    2.7144 C.3       2 RES2    0.0000
     62 C42        8.6682    2.5044    1.5316 C.3       2 RES2    0.0000
@<TRIPOS>BOND
     1    1    2 1
     2    2   22 1
     3    3    1 1
     4    4    3 1
     5    5    3 1
     6    6    5 1
     7    7    5 1
     8    8    1 1
     9    9    7 1
    10   10    9 1
    11   11    9 1
    12   12   11 1
    13   13   10 1
    14   14   12 1
    15   15   14 1
    16   16   14 1
    17   17   16 1
    18   18   16 1
    19   19   18 1
    20   20   18 1
    21   21   20 1
    22   23    4 1
    23   24   23 1
    24   25   23 1
    25   26   15 1
    26   27   26 1
    27   28   26 1
    28   29   19 1
    29   30   29 1
    30   31   29 1
    31   32   33 1
    32   33   53 1
    33   34   32 1
    34   35   34 1
    35   36   34 1
    36   37   36 1
    37   38   36 1
    38   39   32 1
    39   40   38 1
    40   41   40 1
    41   42   40 1
    42   43   42 1
    43   44   41 1
    44   45   43 1
    45   46   45 1
    46   47   45 1
    47   48   47 1
    48   49   47 1
    49   50   49 1
    50   51   49 1
    51   52   51 1
    52   54   35 1
    53   55   54 1
    54   56   54 1
    55   57   46 1
    56   58   57 1
    57   59   57 1
    58   60   50 1
    59   61   60 1
    60   62   60 1
    61    6   23 1
    62    7    8 1
    63   12   13 2
    64   17   26 1
    65   21   29 1
    66   37   54 1
    67   38   39 1
    68   43   44 2
    69   48   57 1
    70   52   60 1
@<TRIPOS>SUBSTRUCTURE
     1 RES1 1
     2 RES2 32

@<TRIPOS>CRYSIN
  17.2810    5.4090   26.4370  90.0000 107.0600  90.0000   4 1

