# MOL2 file generated by ConQuest
# Please check atom types

@<TRIPOS>MOLECULE
YARRAM
    66    69     1
SMALL
NO_CHARGES
****
Generated from CSD

@<TRIPOS>ATOM
      1 O1         1.1562    1.3539    0.8782 O.2       1 RES1    0.0000
      2 O2         5.4361   -0.0402    1.9047 O.2       1 RES1    0.0000
      3 N1         2.1450    0.6242    1.1877 N.pl3     1 RES1    0.0000
      4 N2         4.1785   -0.0135    1.7565 N.3       1 RES1    0.0000
      5 C1         4.8807    4.8717    0.1896 C.ar      1 RES1    0.0000
      6 C2         3.7762    4.2954   -0.4648 C.ar      1 RES1    0.0000
      7 C3         3.3164    3.0535   -0.1261 C.ar      1 RES1    0.0000
      8 C4         3.9485    2.3078    0.8821 C.ar      1 RES1    0.0000
      9 C5         5.0455    2.8658    1.5420 C.ar      1 RES1    0.0000
     10 C6         5.4855    4.1399    1.2197 C.ar      1 RES1    0.0000
     11 C7         3.4406    1.0064    1.2484 C.2       1 RES1    0.0000
     12 C8         1.9995   -0.8524    1.4318 C.3       1 RES1    0.0000
     13 C9         0.6945   -1.1491    2.1149 C.3       1 RES1    0.0000
     14 C10        2.0521   -1.5117    0.0525 C.3       1 RES1    0.0000
     15 C11        3.2803   -1.1079    2.2811 C.3       1 RES1    0.0000
     16 C12        3.0848   -0.8131    3.7695 C.3       1 RES1    0.0000
     17 C13        3.9195   -2.4696    2.0925 C.3       1 RES1    0.0000
     18 H1         3.3423    4.7819   -1.1565 H         1 RES1    0.0000
     19 H2         2.5696    2.6773   -0.5772 H         1 RES1    0.0000
     20 H3         5.4920    2.3599    2.2113 H         1 RES1    0.0000
     21 H4         6.2080    4.5266    1.7008 H         1 RES1    0.0000
     22 H5         0.6203   -2.0846    2.2642 H         1 RES1    0.0000
     23 H6         0.6678   -0.6926    2.9473 H         1 RES1    0.0000
     24 H7        -0.0267   -0.8569    1.5695 H         1 RES1    0.0000
     25 H8         1.9593   -2.4520    0.1472 H         1 RES1    0.0000
     26 H9         2.8878   -1.3154   -0.3537 H         1 RES1    0.0000
     27 H10        1.3487   -1.1777   -0.4925 H         1 RES1    0.0000
     28 H11        2.5240   -1.4796    4.1493 H         1 RES1    0.0000
     29 H12        3.9232   -0.8125    4.2161 H         1 RES1    0.0000
     30 H13        2.6745    0.0389    3.8655 H         1 RES1    0.0000
     31 H14        3.3393   -3.1435    2.4252 H         1 RES1    0.0000
     32 H15        4.7399   -2.4931    2.5714 H         1 RES1    0.0000
     33 H16        4.0860   -2.6230    1.1702 H         1 RES1    0.0000
     34 O1B        9.1048    9.7462   -0.8782 O.2       1 RES1    0.0000
     35 O2B        4.8249   11.1403   -1.9047 O.2       1 RES1    0.0000
     36 N1B        8.1160   10.4759   -1.1877 N.pl3     1 RES1    0.0000
     37 N2B        6.0825   11.1136   -1.7565 N.3       1 RES1    0.0000
     38 C1B        5.3803    6.2284   -0.1896 C.ar      1 RES1    0.0000
     39 C2B        6.4848    6.8047    0.4648 C.ar      1 RES1    0.0000
     40 C3B        6.9446    8.0466    0.1261 C.ar      1 RES1    0.0000
     41 C4B        6.3125    8.7923   -0.8821 C.ar      1 RES1    0.0000
     42 C5B        5.2155    8.2343   -1.5420 C.ar      1 RES1    0.0000
     43 C6B        4.7755    6.9602   -1.2197 C.ar      1 RES1    0.0000
     44 C7B        6.8204   10.0937   -1.2484 C.2       1 RES1    0.0000
     45 C8B        8.2615   11.9525   -1.4318 C.3       1 RES1    0.0000
     46 C9B        9.5665   12.2492   -2.1149 C.3       1 RES1    0.0000
     47 C10B       8.2089   12.6118   -0.0525 C.3       1 RES1    0.0000
     48 C11B       6.9807   12.2080   -2.2811 C.3       1 RES1    0.0000
     49 C12B       7.1762   11.9132   -3.7695 C.3       1 RES1    0.0000
     50 C13B       6.3415   13.5697   -2.0925 C.3       1 RES1    0.0000
     51 H1B        6.9187    6.3182    1.1565 H         1 RES1    0.0000
     52 H2B        7.6915    8.4228    0.5772 H         1 RES1    0.0000
     53 H3B        4.7690    8.7402   -2.2113 H         1 RES1    0.0000
     54 H4B        4.0531    6.5735   -1.7008 H         1 RES1    0.0000
     55 H5B        9.6407   13.1847   -2.2642 H         1 RES1    0.0000
     56 H6B        9.5932   11.7927   -2.9473 H         1 RES1    0.0000
     57 H7B       10.2877   11.9570   -1.5695 H         1 RES1    0.0000
     58 H8B        8.3017   13.5521   -0.1472 H         1 RES1    0.0000
     59 H9B        7.3732   12.4155    0.3537 H         1 RES1    0.0000
     60 H10B       8.9123   12.2778    0.4925 H         1 RES1    0.0000
     61 H11B       7.7370   12.5797   -4.1493 H         1 RES1    0.0000
     62 H12B       6.3378   11.9126   -4.2161 H         1 RES1    0.0000
     63 H13B       7.5865   11.0612   -3.8655 H         1 RES1    0.0000
     64 H14B       6.9217   14.2436   -2.4252 H         1 RES1    0.0000
     65 H15B       5.5211   13.5932   -2.5714 H         1 RES1    0.0000
     66 H16B       6.1750   13.7231   -1.1702 H         1 RES1    0.0000
@<TRIPOS>BOND
     1    1    3 1
     2    2    4 1
     3    3   11 2
     4    4   11 1
     5    5    6 ar
     6    6    7 ar
     7    7    8 ar
     8    8    9 ar
     9    9   10 ar
    10   10    5 ar
    11   11    8 1
    12   12    3 1
    13   13   12 1
    14   14   12 1
    15   15    4 1
    16   16   15 1
    17   17   15 1
    18   18    6 1
    19   19    7 1
    20   20    9 1
    21   21   10 1
    22   22   13 1
    23   23   13 1
    24   24   13 1
    25   25   14 1
    26   26   14 1
    27   27   14 1
    28   28   16 1
    29   29   16 1
    30   30   16 1
    31   31   17 1
    32   32   17 1
    33   33   17 1
    34   34   36 1
    35   35   37 1
    36   36   44 2
    37   37   44 1
    38   38    5 1
    39   39   38 ar
    40   40   39 ar
    41   41   40 ar
    42   42   41 ar
    43   43   38 ar
    44   44   41 1
    45   45   36 1
    46   46   45 1
    47   47   45 1
    48   48   37 1
    49   49   48 1
    50   50   48 1
    51   51   39 1
    52   52   40 1
    53   53   42 1
    54   54   43 1
    55   55   46 1
    56   56   46 1
    57   57   46 1
    58   58   47 1
    59   59   47 1
    60   60   47 1
    61   61   49 1
    62   62   49 1
    63   63   49 1
    64   64   50 1
    65   65   50 1
    66   66   50 1
    67   12   15 1
    68   42   43 ar
    69   45   48 1
@<TRIPOS>SUBSTRUCTURE
     1 RES1 1

@<TRIPOS>CRYSIN
  10.2610   11.1001   11.4935  90.0000 112.8641  90.0000 231 1

