# MOL2 file generated by ConQuest
# Please check atom types

@<TRIPOS>MOLECULE
YASSIV
    19    19     1
SMALL
NO_CHARGES
****
Generated from CSD

@<TRIPOS>ATOM
      1 H1        -1.4263   -0.1809    9.7481 H         1 RES1    0.0000
      2 C1        -5.8479    0.5645   10.6805 C.3       1 RES1    0.0000
      3 H2        -5.7684    0.8123   11.6048 H         1 RES1    0.0000
      4 H3        -6.0494   -0.3719   10.6160 H         1 RES1    0.0000
      5 H4        -6.5523    1.0719   10.2722 H         1 RES1    0.0000
      6 C2        -4.5486    0.8493    9.9713 C.3       1 RES1    0.0000
      7 H5        -3.8340    0.3668   10.4175 H         1 RES1    0.0000
      8 H6        -4.3521    1.7967   10.0410 H         1 RES1    0.0000
      9 C3        -3.3320    0.8317    7.7793 C.2       1 RES1    0.0000
     10 C4        -4.5681    0.4556    8.5023 C.3       1 RES1    0.0000
     11 H7        -4.6930   -0.5040    8.4349 H         1 RES1    0.0000
     12 H8        -5.3250    0.8821    8.0730 H         1 RES1    0.0000
     13 C5        -1.1521    0.9394    7.3023 C.2       1 RES1    0.0000
     14 N1        -1.8830    1.7260    6.5074 N.am      1 RES1    0.0000
     15 H9        -1.5481    2.2085    5.8787 H         1 RES1    0.0000
     16 N2        -3.2375    1.6827    6.8040 N.2       1 RES1    0.0000
     17 N3        -2.0887    0.3542    8.1023 N.am      1 RES1    0.0000
     18 O1        -1.8217   -0.6487    8.9972 O.3       1 RES1    0.0000
     19 O2         0.0862    0.7698    7.3339 O.2       1 RES1    0.0000
@<TRIPOS>BOND
     1    1   18 1
     2    2    3 1
     3    4    2 1
     4    5    2 1
     5    6    2 1
     6    7    6 1
     7    8    6 1
     8    9   10 1
     9   10    6 1
    10   11   10 1
    11   12   10 1
    12   13   14 1
    13   14   15 1
    14   16    9 2
    15   17    9 1
    16   18   17 1
    17   19   13 2
    18   13   17 1
    19   14   16 1
@<TRIPOS>SUBSTRUCTURE
     1 RES1 1

@<TRIPOS>CRYSIN
  27.0100    4.2067   12.1089  90.0000  91.7150  90.0000  15 1

