# MOL2 file generated by ConQuest
# Please check atom types

@<TRIPOS>MOLECULE
YATCOL
    36    38     1
SMALL
NO_CHARGES
****
Generated from CSD

@<TRIPOS>ATOM
      1 C1         4.6036   -0.5433    2.2470 C.3       1 RES1    0.0000
      2 C2         4.8454    0.9508    2.5238 C.3       1 RES1    0.0000
      3 C3         5.7953    1.5078    1.4882 C.2       1 RES1    0.0000
      4 C4         6.1621    0.7859    0.4466 C.2       1 RES1    0.0000
      5 C5         5.6348   -0.6083    0.3004 C.3       1 RES1    0.0000
      6 C6         6.3766   -1.5582    1.2207 C.3       1 RES1    0.0000
      7 O1         5.7639   -1.3186    2.4812 O.3       1 RES1    0.0000
      8 O2         4.3175   -0.6656    0.8603 O.3       1 RES1    0.0000
      9 C7         3.5409    1.7125    2.5773 C.3       1 RES1    0.0000
     10 O3         5.6034    1.1332    3.7814 O.3       1 RES1    0.0000
     11 C8         5.1256    0.6248    4.9082 C.2       1 RES1    0.0000
     12 O4         4.1071   -0.0068    5.0209 O.2       1 RES1    0.0000
     13 C9         5.9854    0.9518    6.0850 C.ar      1 RES1    0.0000
     14 C10        7.1579    1.7115    5.9637 C.ar      1 RES1    0.0000
     15 C11        7.8945    1.9725    7.0944 C.ar      1 RES1    0.0000
     16 C12        7.5625    1.4951    8.3502 C.ar      1 RES1    0.0000
     17 C13        6.3749    0.7743    8.4377 C.ar      1 RES1    0.0000
     18 C14        5.6023    0.4764    7.3382 C.ar      1 RES1    0.0000
     19 N1         9.1187    2.7836    6.9687 N.pl3     1 RES1    0.0000
     20 O5         9.3676    3.2425    5.8664 O.2       1 RES1    0.0000
     21 O6         9.8070    2.9554    7.9635 O.2       1 RES1    0.0000
     22 N2         5.9551    0.2785    9.7475 N.pl3     1 RES1    0.0000
     23 O7         6.7376    0.3396   10.6782 O.2       1 RES1    0.0000
     24 O8         4.8099   -0.1543    9.8441 O.2       1 RES1    0.0000
     25 H1         3.8095   -0.8887    2.8928 H         1 RES1    0.0000
     26 H2         6.1795    2.5110    1.6022 H         1 RES1    0.0000
     27 H3         6.8341    1.1963   -0.2934 H         1 RES1    0.0000
     28 H4         5.7092   -0.8616   -0.7479 H         1 RES1    0.0000
     29 H5         7.4311   -1.3273    1.2490 H         1 RES1    0.0000
     30 H6         6.2423   -2.5847    0.9115 H         1 RES1    0.0000
     31 H7         3.0020    1.5689    1.6515 H         1 RES1    0.0000
     32 H8         3.7432    2.7642    2.7162 H         1 RES1    0.0000
     33 H9         2.9450    1.3486    3.4018 H         1 RES1    0.0000
     34 H10        7.4759    2.0831    5.0014 H         1 RES1    0.0000
     35 H11        8.1886    1.6717    9.2133 H         1 RES1    0.0000
     36 H12        4.7082   -0.1203    7.4449 H         1 RES1    0.0000
@<TRIPOS>BOND
     1    1    2 1
     2    2    3 1
     3    3    4 2
     4    4    5 1
     5    5    6 1
     6    6    7 1
     7    7    1 1
     8    8    1 1
     9    9    2 1
    10   10    2 1
    11   11   10 1
    12   12   11 2
    13   13   11 1
    14   14   13 ar
    15   15   14 ar
    16   16   15 ar
    17   17   16 ar
    18   18   13 ar
    19   19   15 1
    20   20   19 2
    21   21   19 2
    22   22   17 1
    23   23   22 2
    24   24   22 2
    25   25    1 1
    26   26    3 1
    27   27    4 1
    28   28    5 1
    29   29    6 1
    30   30    6 1
    31   31    9 1
    32   32    9 1
    33   33    9 1
    34   34   14 1
    35   35   16 1
    36   36   18 1
    37    5    8 1
    38   17   18 ar
@<TRIPOS>SUBSTRUCTURE
     1 RES1 1

@<TRIPOS>CRYSIN
   5.8133    9.7024   25.9677  90.0000  90.0000  90.0000  19 1

