# MOL2 file generated by ConQuest
# Please check atom types

@<TRIPOS>MOLECULE
YATGUX
    52    57     1
SMALL
NO_CHARGES
****
Generated from CSD

@<TRIPOS>ATOM
      1 O1        -0.4607   -2.0454   12.3565 O.2       1 RES1    0.0000
      2 O2        -0.3621    0.1037   12.1497 O.2       1 RES1    0.0000
      3 O3         0.3866    1.1721    5.9211 O.2       1 RES1    0.0000
      4 O4         0.9732    3.1775    6.6128 O.3       1 RES1    0.0000
      5 N1        -0.4697   -1.0213   11.6706 N.pl3     1 RES1    0.0000
      6 N2        -2.4953    3.4861    8.9252 N.pl3     1 RES1    0.0000
      7 H1        -2.4367    4.0377    9.6210 H         1 RES1    0.0000
      8 N3        -5.3875    1.3593    8.9572 N.2       1 RES1    0.0000
      9 N4        -4.7092    2.5035    9.3279 N.pl3     1 RES1    0.0000
     10 C1        -1.0649   -0.0495    9.5132 C.ar      1 RES1    0.0000
     11 H2        -1.1426    0.7946    9.9416 H         1 RES1    0.0000
     12 C2        -0.6525   -1.1630   10.2226 C.ar      1 RES1    0.0000
     13 C3        -0.4656   -2.4050    9.6391 C.ar      1 RES1    0.0000
     14 H3        -0.1917   -3.1532   10.1549 H         1 RES1    0.0000
     15 C4        -0.6912   -2.5183    8.2809 C.ar      1 RES1    0.0000
     16 H4        -0.5334   -3.3462    7.8422 H         1 RES1    0.0000
     17 C5        -1.1485   -1.4202    7.5551 C.ar      1 RES1    0.0000
     18 H5        -1.3174   -1.5156    6.6249 H         1 RES1    0.0000
     19 C6        -1.3638   -0.1884    8.1624 C.ar      1 RES1    0.0000
     20 C7        -1.9949    0.9823    7.4093 C.3       1 RES1    0.0000
     21 H6        -2.1622    0.7108    6.4610 H         1 RES1    0.0000
     22 C8         0.0949    2.1182    6.6190 C.2       1 RES1    0.0000
     23 C9        -1.1009    2.2091    7.4263 C.2       1 RES1    0.0000
     24 C10       -1.3410    3.3291    8.1801 C.2       1 RES1    0.0000
     25 C11       -0.3936    4.4301    8.1632 C.ar      1 RES1    0.0000
     26 C12       -0.5745    5.6386    8.8533 C.ar      1 RES1    0.0000
     27 H7        -1.3433    5.7569    9.3993 H         1 RES1    0.0000
     28 C13        0.3452    6.6525    8.7493 C.ar      1 RES1    0.0000
     29 H8         0.2069    7.4678    9.2173 H         1 RES1    0.0000
     30 C14        1.4798    6.4889    7.9597 C.ar      1 RES1    0.0000
     31 H9         2.1166    7.1904    7.8976 H         1 RES1    0.0000
     32 C15        1.6882    5.3096    7.2648 C.ar      1 RES1    0.0000
     33 H10        2.4617    5.1952    6.7262 H         1 RES1    0.0000
     34 C16        0.7461    4.3024    7.3702 C.ar      1 RES1    0.0000
     35 C17       -3.4496    2.4887    8.7971 C.2       1 RES1    0.0000
     36 C18       -3.3064    1.3584    8.0553 C.2       1 RES1    0.0000
     37 C19       -4.5422    0.6846    8.1877 C.2       1 RES1    0.0000
     38 C20       -4.9508   -0.6143    7.5867 C.3       1 RES1    0.0000
     39 H11       -5.8676   -0.8271    7.8615 H         1 RES1    0.0000
     40 H12       -4.3452   -1.3211    7.8928 H         1 RES1    0.0000
     41 H13       -4.9102   -0.5491    6.6093 H         1 RES1    0.0000
     42 C21       -5.2670    3.3241   10.3516 C.ar      1 RES1    0.0000
     43 C22       -4.9465    4.6671   10.4477 C.ar      1 RES1    0.0000
     44 H14       -4.3843    5.0731    9.7982 H         1 RES1    0.0000
     45 C23       -5.4531    5.4191   11.5048 C.ar      1 RES1    0.0000
     46 H15       -5.2287    6.3387   11.5819 H         1 RES1    0.0000
     47 C24       -6.2797    4.8318   12.4400 C.ar      1 RES1    0.0000
     48 H16       -6.6131    5.3425   13.1691 H         1 RES1    0.0000
     49 C25       -6.6199    3.4995   12.3134 C.ar      1 RES1    0.0000
     50 H17       -7.2004    3.1006   12.9510 H         1 RES1    0.0000
     51 C26       -6.1273    2.7386   11.2709 C.ar      1 RES1    0.0000
     52 H18       -6.3747    1.8253   11.1842 H         1 RES1    0.0000
@<TRIPOS>BOND
     1    1    5 2
     2    2    5 2
     3    3   22 2
     4    4   22 1
     5    5   12 1
     6    6    7 1
     7    8    9 1
     8    9   35 1
     9   10   11 1
    10   12   10 ar
    11   13   12 ar
    12   14   13 1
    13   15   13 ar
    14   16   15 1
    15   17   15 ar
    16   18   17 1
    17   19   10 ar
    18   20   19 1
    19   21   20 1
    20   22   23 1
    21   23   20 1
    22   24    6 1
    23   25   24 1
    24   26   25 ar
    25   27   26 1
    26   28   26 ar
    27   29   28 1
    28   30   28 ar
    29   31   30 1
    30   32   30 ar
    31   33   32 1
    32   34    4 1
    33   35    6 1
    34   36   20 1
    35   37    8 2
    36   38   37 1
    37   39   38 1
    38   40   38 1
    39   41   38 1
    40   42    9 1
    41   43   42 ar
    42   44   43 1
    43   45   43 ar
    44   46   45 1
    45   47   45 ar
    46   48   47 1
    47   49   47 ar
    48   50   49 1
    49   51   42 ar
    50   52   51 1
    51   17   19 ar
    52   23   24 2
    53   25   34 ar
    54   32   34 ar
    55   35   36 2
    56   36   37 1
    57   49   51 ar
@<TRIPOS>SUBSTRUCTURE
     1 RES1 1

@<TRIPOS>CRYSIN
   7.7288   11.1680   12.6450 107.0200  90.8500 101.9300   2 1

