# MOL2 file generated by ConQuest
# Please check atom types

@<TRIPOS>MOLECULE
YAVNUH
    37    39     1
SMALL
NO_CHARGES
****
Generated from CSD

@<TRIPOS>ATOM
      1 C1         6.5127    5.1236    4.1922 C.ar      1 RES1    0.0000
      2 C2         6.6795    5.8537    5.3624 C.ar      1 RES1    0.0000
      3 H1         7.4893    6.3140    5.5517 H         1 RES1    0.0000
      4 C3         5.6068    5.8781    6.2414 C.ar      1 RES1    0.0000
      5 H2         5.6788    6.3821    7.0441 H         1 RES1    0.0000
      6 C4         4.4257    5.1828    5.9809 C.ar      1 RES1    0.0000
      7 C5         4.3295    4.3484    4.8343 C.ar      1 RES1    0.0000
      8 C6         5.3862    4.3742    3.9131 C.ar      1 RES1    0.0000
      9 H3         5.3276    3.8802    3.1034 H         1 RES1    0.0000
     10 C7         3.2619    5.3065    6.8962 C.2       1 RES1    0.0000
     11 C8         3.3765    4.9308    8.3409 C.3       1 RES1    0.0000
     12 H4         2.8130    5.5260    8.8791 H         1 RES1    0.0000
     13 H5         4.3098    5.0169    8.6284 H         1 RES1    0.0000
     14 H6         3.0816    4.0042    8.4613 H         1 RES1    0.0000
     15 C9        -0.0191    5.0188    6.3733 C.3       1 RES1    0.0000
     16 H7        -0.4290    5.7579    5.8575 H         1 RES1    0.0000
     17 H8        -0.7129    4.6528    6.9772 H         1 RES1    0.0000
     18 C10        0.4225    3.9199    5.4006 C.3       1 RES1    0.0000
     19 H9        -0.3818    3.4659    5.0437 H         1 RES1    0.0000
     20 H10        0.8954    4.3383    4.6376 H         1 RES1    0.0000
     21 C11        1.3263    2.8899    6.0287 C.ar      1 RES1    0.0000
     22 C12        0.8370    2.0528    7.0387 C.ar      1 RES1    0.0000
     23 H11       -0.0701    2.1339    7.3081 H         1 RES1    0.0000
     24 C13        1.6442    1.1064    7.6582 C.ar      1 RES1    0.0000
     25 H12        1.2874    0.5489    8.3393 H         1 RES1    0.0000
     26 C14        2.9686    0.9793    7.2792 C.ar      1 RES1    0.0000
     27 H13        3.5247    0.3332    7.6992 H         1 RES1    0.0000
     28 C15        3.4858    1.8017    6.2783 C.ar      1 RES1    0.0000
     29 H14        4.3972    1.7196    6.0213 H         1 RES1    0.0000
     30 C16        2.6654    2.7491    5.6503 C.ar      1 RES1    0.0000
     31 N1         7.5930    5.1520    3.1931 N.pl3     1 RES1    0.0000
     32 N2         2.1839    5.6694    6.3052 N.2       1 RES1    0.0000
     33 N3         3.2235    3.5439    4.5863 N.pl3     1 RES1    0.0000
     34 H15        2.8655    3.5202    3.7819 H         1 RES1    0.0000
     35 O1         8.6238    5.7562    3.4681 O.2       1 RES1    0.0000
     36 O2         7.4142    4.5787    2.1239 O.2       1 RES1    0.0000
     37 O3         1.0622    5.5462    7.1681 O.3       1 RES1    0.0000
@<TRIPOS>BOND
     1    1    2 ar
     2    2    3 1
     3    4    2 ar
     4    5    4 1
     5    6    4 ar
     6    7    6 ar
     7    8    1 ar
     8    9    8 1
     9   10    6 1
    10   11   10 1
    11   12   11 1
    12   13   11 1
    13   14   11 1
    14   15   16 1
    15   17   15 1
    16   18   15 1
    17   19   18 1
    18   20   18 1
    19   21   18 1
    20   22   21 ar
    21   23   22 1
    22   24   22 ar
    23   25   24 1
    24   26   24 ar
    25   27   26 1
    26   28   26 ar
    27   29   28 1
    28   30   21 ar
    29   31    1 1
    30   32   10 2
    31   33    7 1
    32   34   33 1
    33   35   31 2
    34   36   31 2
    35   37   15 1
    36    7    8 ar
    37   28   30 ar
    38   30   33 1
    39   32   37 1
@<TRIPOS>SUBSTRUCTURE
     1 RES1 1

@<TRIPOS>CRYSIN
  10.3988    8.1074   16.7122  90.0000  90.3210  90.0000 231 1

