# MOL2 file generated by ConQuest
# Please check atom types

@<TRIPOS>MOLECULE
YAVRIY
    58    60     2
SMALL
NO_CHARGES
****
Generated from CSD

@<TRIPOS>ATOM
      1 N1         4.1761   -0.3836    3.0070 N.pl3     1 RES1    0.0000
      2 H1         4.2122   -1.1117    2.5518 H         1 RES1    0.0000
      3 H2         3.8904   -0.3973    3.8180 H         1 RES1    0.0000
      4 N2         6.5269    5.7134   -1.0741 N.2       1 RES1    0.0000
      5 O1         6.2047    4.4223   -0.6446 O.3       1 RES1    0.0000
      6 O2         6.9494    8.3176   -1.3174 O.3       1 RES1    0.0000
      7 O3         6.1680    8.6884    0.7512 O.2       1 RES1    0.0000
      8 C1         4.5738    0.7983    2.4413 C.ar      1 RES1    0.0000
      9 C2         5.0364    0.8351    1.1344 C.ar      1 RES1    0.0000
     10 H3         5.0974    0.0425    0.6524 H         1 RES1    0.0000
     11 C3         5.4072    2.0132    0.5350 C.ar      1 RES1    0.0000
     12 H4         5.7170    2.0067   -0.3421 H         1 RES1    0.0000
     13 C4         5.3240    3.2186    1.2271 C.ar      1 RES1    0.0000
     14 C5         4.8576    3.1796    2.5358 C.ar      1 RES1    0.0000
     15 H5         4.7967    3.9715    3.0194 H         1 RES1    0.0000
     16 C6         4.4835    1.9992    3.1334 C.ar      1 RES1    0.0000
     17 H6         4.1674    2.0049    4.0084 H         1 RES1    0.0000
     18 C7         5.7233    4.4790    0.6190 C.2       1 RES1    0.0000
     19 C8         5.7314    5.7635    1.0152 C.2       1 RES1    0.0000
     20 H7         5.4657    6.1007    1.8400 H         1 RES1    0.0000
     21 C9         6.2227    6.4808   -0.0702 C.2       1 RES1    0.0000
     22 C10        6.4329    7.9446   -0.1462 C.2       1 RES1    0.0000
     23 C11        7.1098    9.7418   -1.5202 C.3       1 RES1    0.0000
     24 H8         7.7563   10.1001   -0.8924 H         1 RES1    0.0000
     25 H9         6.2645   10.1975   -1.3862 H         1 RES1    0.0000
     26 C12        7.5858    9.9378   -2.9199 C.3       1 RES1    0.0000
     27 H10        7.7005   10.8758   -3.0897 H         1 RES1    0.0000
     28 H11        6.9385    9.5784   -3.5311 H         1 RES1    0.0000
     29 H12        8.4246    9.4866   -3.0387 H         1 RES1    0.0000
     30 N3         1.2562    6.6951    9.9594 N.pl3     2 RES2    0.0000
     31 H13        1.3711    7.4161    9.5050 H         2 RES2    0.0000
     32 H14        0.9782    6.7388   10.7727 H         2 RES2    0.0000
     33 N4         2.7694    0.3595    5.8470 N.2       2 RES2    0.0000
     34 O4         2.6764    1.6771    6.3023 O.3       2 RES2    0.0000
     35 O5         2.6822   -2.2708    5.5451 O.3       2 RES2    0.0000
     36 O6         1.8572   -2.5386    7.6042 O.2       2 RES2    0.0000
     37 C13        1.5141    5.4803    9.3897 C.ar      2 RES2    0.0000
     38 C14        1.9619    5.3829    8.0832 C.ar      2 RES2    0.0000
     39 H15        2.1169    6.1610    7.5974 H         2 RES2    0.0000
     40 C15        2.1801    4.1715    7.4895 C.ar      2 RES2    0.0000
     41 H16        2.4723    4.1428    6.6070 H         2 RES2    0.0000
     42 C16        1.9756    2.9837    8.1773 C.ar      2 RES2    0.0000
     43 C17        1.5398    3.0772    9.4998 C.ar      2 RES2    0.0000
     44 H17        1.4014    2.2971    9.9864 H         2 RES2    0.0000
     45 C18        1.3113    4.2875   10.1017 C.ar      2 RES2    0.0000
     46 H18        1.0208    4.3189   10.9851 H         2 RES2    0.0000
     47 C19        2.1673    1.6887    7.5566 C.2       2 RES2    0.0000
     48 C20        1.9421    0.4134    7.9174 C.2       2 RES2    0.0000
     49 H19        1.5987    0.1122    8.7271 H         2 RES2    0.0000
     50 C21        2.3304   -0.3619    6.8298 C.2       2 RES2    0.0000
     51 C22        2.2654   -1.8394    6.7175 C.2       2 RES2    0.0000
     52 C23        2.6005   -3.7010    5.3142 C.3       2 RES2    0.0000
     53 H20        1.6911   -4.0101    5.4470 H         2 RES2    0.0000
     54 H21        3.1797   -4.1743    5.9325 H         2 RES2    0.0000
     55 C24        3.0327   -3.9532    3.9030 C.3       2 RES2    0.0000
     56 H22        2.9880   -4.8947    3.7173 H         2 RES2    0.0000
     57 H23        3.9344   -3.6465    3.7849 H         2 RES2    0.0000
     58 H24        2.4528   -3.4811    3.3008 H         2 RES2    0.0000
@<TRIPOS>BOND
     1    1    2 1
     2    3    1 1
     3    4    5 1
     4    5   18 1
     5    6   22 1
     6    7   22 2
     7    8    1 1
     8    9    8 ar
     9   10    9 1
    10   11    9 ar
    11   12   11 1
    12   13   11 ar
    13   14   13 ar
    14   15   14 1
    15   16    8 ar
    16   17   16 1
    17   18   13 1
    18   19   18 2
    19   20   19 1
    20   21    4 2
    21   22   21 1
    22   23    6 1
    23   24   23 1
    24   25   23 1
    25   26   23 1
    26   27   26 1
    27   28   26 1
    28   29   26 1
    29   30   31 1
    30   32   30 1
    31   33   34 1
    32   34   47 1
    33   35   51 1
    34   36   51 2
    35   37   30 1
    36   38   37 ar
    37   39   38 1
    38   40   38 ar
    39   41   40 1
    40   42   40 ar
    41   43   42 ar
    42   44   43 1
    43   45   37 ar
    44   46   45 1
    45   47   42 1
    46   48   47 2
    47   49   48 1
    48   50   33 2
    49   51   50 1
    50   52   35 1
    51   53   52 1
    52   54   52 1
    53   55   52 1
    54   56   55 1
    55   57   55 1
    56   58   55 1
    57   14   16 ar
    58   19   21 1
    59   43   45 ar
    60   48   50 1
@<TRIPOS>SUBSTRUCTURE
     1 RES1 1
     2 RES2 30

@<TRIPOS>CRYSIN
   7.5910   11.3030   13.8180  88.1550  87.0080  86.2330   2 1

