# MOL2 file generated by ConQuest
# Please check atom types

@<TRIPOS>MOLECULE
YAWCEG
    20    20     1
SMALL
NO_CHARGES
****
Generated from CSD

@<TRIPOS>ATOM
      1 O1         3.8212    4.6045   -1.2566 O.2       1 RES1    0.0000
      2 O2         3.3925    5.6649    0.5629 O.2       1 RES1    0.0000
      3 N1         4.1067    4.9732   -0.1267 N.pl3     1 RES1    0.0000
      4 N2        12.1222    2.0090    3.0529 N.1       1 RES1    0.0000
      5 N3        10.4764    2.1353   -0.9553 N.1       1 RES1    0.0000
      6 C1         7.5278    3.5540    0.0779 C.ar      1 RES1    0.0000
      7 H1         8.1449    3.1450   -0.4841 H         1 RES1    0.0000
      8 C2         6.3030    3.9325   -0.4118 C.ar      1 RES1    0.0000
      9 H2         6.0818    3.7717   -1.3013 H         1 RES1    0.0000
     10 C3         5.4042    4.5518    0.4269 C.ar      1 RES1    0.0000
     11 C4         5.6864    4.8070    1.7540 C.ar      1 RES1    0.0000
     12 H3         5.0669    5.2308    2.3030 H         1 RES1    0.0000
     13 C5         6.9131    4.4139    2.2384 C.ar      1 RES1    0.0000
     14 H4         7.1202    4.5746    3.1310 H         1 RES1    0.0000
     15 C6         7.8532    3.7826    1.4281 C.ar      1 RES1    0.0000
     16 C7         9.1087    3.3639    2.0514 C.2       1 RES1    0.0000
     17 H5         9.1716    3.5455    2.9608 H         1 RES1    0.0000
     18 C8        10.1825    2.7612    1.5241 C.2       1 RES1    0.0000
     19 C9        11.2723    2.3646    2.3770 C.1       1 RES1    0.0000
     20 C10       10.3479    2.4177    0.1312 C.1       1 RES1    0.0000
@<TRIPOS>BOND
     1    1    3 2
     2    2    3 2
     3    3   10 1
     4    4   19 3
     5    5   20 3
     6    6    7 1
     7    8    6 ar
     8    9    8 1
     9   10    8 ar
    10   11   10 ar
    11   12   11 1
    12   13   11 ar
    13   14   13 1
    14   15    6 ar
    15   16   15 1
    16   17   16 1
    17   18   16 2
    18   19   18 1
    19   20   18 1
    20   13   15 ar
@<TRIPOS>SUBSTRUCTURE
     1 RES1 1

@<TRIPOS>CRYSIN
  19.5557    3.8732   11.9823  90.0000  90.0000  90.0000  33 1

