# MOL2 file generated by ConQuest
# Please check atom types

@<TRIPOS>MOLECULE
YAWFUZ
    45    47     1
SMALL
NO_CHARGES
****
Generated from CSD

@<TRIPOS>ATOM
      1 O1         4.8304    3.0402   -0.7625 O.2       1 RES1    0.0000
      2 O2         6.6915    6.2418    6.9545 O.2       1 RES1    0.0000
      3 O3         6.1969    4.2837    6.1806 O.2       1 RES1    0.0000
      4 N1         4.3387    5.6376   -6.5636 N.3       1 RES1    0.0000
      5 N2         6.4502    5.4778    6.0263 N.pl3     1 RES1    0.0000
      6 C1         4.5935    4.5895   -7.5679 C.3       1 RES1    0.0000
      7 H1         4.2615    3.7411   -7.2346 H         1 RES1    0.0000
      8 H2         5.5500    4.5030   -7.7040 H         1 RES1    0.0000
      9 C2         3.9303    4.8972   -8.8945 C.3       1 RES1    0.0000
     10 H3         4.1872    4.2251   -9.5462 H         1 RES1    0.0000
     11 H4         2.9670    4.8583   -8.7888 H         1 RES1    0.0000
     12 C3         4.3217    6.2654   -9.4085 C.3       1 RES1    0.0000
     13 H5         3.8159    6.4698  -10.2089 H         1 RES1    0.0000
     14 H6         5.2649    6.2716   -9.6369 H         1 RES1    0.0000
     15 C4         4.0439    7.3129   -8.3490 C.3       1 RES1    0.0000
     16 H7         3.0873    7.3774   -8.2050 H         1 RES1    0.0000
     17 H8         4.3595    8.1757   -8.6586 H         1 RES1    0.0000
     18 C5         4.7309    6.9650   -7.0405 C.3       1 RES1    0.0000
     19 H9         5.6919    6.9902   -7.1675 H         1 RES1    0.0000
     20 H10        4.4999    7.6280   -6.3707 H         1 RES1    0.0000
     21 C6         4.5185    5.3240   -5.2204 C.ar      1 RES1    0.0000
     22 C7         4.1248    4.0588   -4.7194 C.ar      1 RES1    0.0000
     23 H11        3.7684    3.4256   -5.3017 H         1 RES1    0.0000
     24 C8         4.2615    3.7549   -3.3873 C.ar      1 RES1    0.0000
     25 H12        3.9964    2.9154   -3.0887 H         1 RES1    0.0000
     26 C9         4.7903    4.6723   -2.4623 C.ar      1 RES1    0.0000
     27 C10        5.1594    5.9269   -2.9491 C.ar      1 RES1    0.0000
     28 H13        5.4951    6.5631   -2.3589 H         1 RES1    0.0000
     29 C11        5.0383    6.2468   -4.2922 C.ar      1 RES1    0.0000
     30 H14        5.3057    7.0870   -4.5877 H         1 RES1    0.0000
     31 C12        4.9886    4.2271   -1.0678 C.2       1 RES1    0.0000
     32 C13        5.4089    5.2196   -0.0422 C.2       1 RES1    0.0000
     33 H15        5.4624    6.1213   -0.2643 H         1 RES1    0.0000
     34 C14        5.7097    4.8249    1.1960 C.2       1 RES1    0.0000
     35 H16        5.6481    3.9142    1.3728 H         1 RES1    0.0000
     36 C15        6.1271    5.6895    2.3049 C.ar      1 RES1    0.0000
     37 C16        6.5853    7.0000    2.0998 C.ar      1 RES1    0.0000
     38 H17        6.6225    7.3444    1.2347 H         1 RES1    0.0000
     39 C17        6.9834    7.7868    3.1676 C.ar      1 RES1    0.0000
     40 H18        7.2976    8.6484    3.0098 H         1 RES1    0.0000
     41 C18        6.9203    7.3083    4.4630 C.ar      1 RES1    0.0000
     42 H19        7.1683    7.8432    5.1833 H         1 RES1    0.0000
     43 C19        6.4769    6.0094    4.6603 C.ar      1 RES1    0.0000
     44 C20        6.0863    5.1942    3.6153 C.ar      1 RES1    0.0000
     45 H20        5.7996    4.3253    3.7790 H         1 RES1    0.0000
@<TRIPOS>BOND
     1    1   31 2
     2    2    5 2
     3    3    5 2
     4    4    6 1
     5    5   43 1
     6    6    7 1
     7    8    6 1
     8    9    6 1
     9   10    9 1
    10   11    9 1
    11   12    9 1
    12   13   12 1
    13   14   12 1
    14   15   12 1
    15   16   15 1
    16   17   15 1
    17   18    4 1
    18   19   18 1
    19   20   18 1
    20   21    4 1
    21   22   21 ar
    22   23   22 1
    23   24   22 ar
    24   25   24 1
    25   26   24 ar
    26   27   26 ar
    27   28   27 1
    28   29   21 ar
    29   30   29 1
    30   31   26 1
    31   32   31 1
    32   33   32 1
    33   34   32 2
    34   35   34 1
    35   36   34 1
    36   37   36 ar
    37   38   37 1
    38   39   37 ar
    39   40   39 1
    40   41   39 ar
    41   42   41 1
    42   43   41 ar
    43   44   36 ar
    44   45   44 1
    45   15   18 1
    46   27   29 ar
    47   43   44 ar
@<TRIPOS>SUBSTRUCTURE
     1 RES1 1

@<TRIPOS>CRYSIN
   7.4268   11.3884   39.4470  90.0000  90.0000  90.0000  61 1

