# MOL2 file generated by ConQuest
# Please check atom types

@<TRIPOS>MOLECULE
YAWJEL
    32    27     2
SMALL
NO_CHARGES
****
Generated from CSD

@<TRIPOS>ATOM
      1 O1         8.3142    5.3618    8.2608 O.2       1 RES1    0.0000
      2 O2         9.7748    3.6210    8.0582 O.3       1 RES1    0.0000
      3 O3        11.6271    6.8655    6.3074 O.2       1 RES1    0.0000
      4 O4        10.9307    6.1798    8.2375 O.2       1 RES1    0.0000
      5 O5         7.9518    4.0216    2.3190 O.2       1 RES1    0.0000
      6 O6         9.5248    5.5061    2.3050 O.2       1 RES1    0.0000
      7 O7         7.0803    2.9329    8.3074 O.2       1 RES1    0.0000
      8 O8         6.1785    2.4192    6.4121 O.2       1 RES1    0.0000
      9 N1        10.8650    6.2003    7.0035 N.pl3     1 RES1    0.0000
     10 N2         8.7748    4.7254    2.9104 N.pl3     1 RES1    0.0000
     11 N3         7.0267    3.0039    7.0780 N.pl3     1 RES1    0.0000
     12 C1         8.7960    4.8385    9.5460 C.2       1 RES1    0.0000
     13 C2         8.3091    5.4207   10.6985 C.2       1 RES1    0.0000
     14 C3         8.6837    5.0273   12.0396 C.2       1 RES1    0.0000
     15 C4         9.6017    3.9976   12.4192 C.2       1 RES1    0.0000
     16 C5        10.2961    3.1218   11.6345 C.2       1 RES1    0.0000
     17 C6        10.3427    2.9582   10.3004 C.2       1 RES1    0.0000
     18 C7         9.7090    3.7389    9.3365 C.2       1 RES1    0.0000
     19 C8         7.3617    6.5720   10.5542 C.3       1 RES1    0.0000
     20 C9         8.9671    4.5690    7.2061 C.3       1 RES1    0.0000
     21 C10        9.8507    5.3930    6.3539 C.2       1 RES1    0.0000
     22 C11        9.7890    5.4484    4.9989 C.2       1 RES1    0.0000
     23 C12        8.8446    4.6700    4.3446 C.2       1 RES1    0.0000
     24 C13        7.9680    3.8472    5.0315 C.2       1 RES1    0.0000
     25 C14        7.9984    3.8255    6.3842 C.2       1 RES1    0.0000
     26 C15        9.2090    4.2658    9.3947 Du        2 SUP2    0.0000
     27 C16        9.7262    3.6379   10.5425 Du        2 SUP2    0.0000
     28 C17        9.2707    4.1395   11.9046 Du        2 SUP2    0.0000
     29 C18        7.6320    6.0739   11.6042 Du        2 SUP2    0.0000
     30 C19        7.5783    6.1738   10.2073 Du        2 SUP2    0.0000
     31 C20        8.3000    5.4424    9.2434 Du        2 SUP2    0.0000
     32 C21       10.6504    2.4938   10.1421 Du        2 SUP2    0.0000
@<TRIPOS>BOND
     1    1   12 2
     2    2   18 1
     3    3    9 2
     4    4    9 2
     5    5   10 2
     6    6   10 2
     7    7   11 2
     8    8   11 2
     9    9   21 1
    10   10   23 1
    11   11   25 1
    12   12   13 1
    13   13   14 2
    14   14   15 1
    15   15   16 2
    16   16   17 1
    17   17   18 2
    18   18   12 1
    19   19   13 1
    20   20    1 1
    21   21   20 1
    22   22   21 un
    23   23   22 un
    24   24   23 un
    25   25   20 1
    26    2   20 1
    27   24   25 un
@<TRIPOS>SUBSTRUCTURE
     1 RES1 1
     2 SUP2 26

@<TRIPOS>CRYSIN
  10.1220   12.0300   23.2830  90.0000  90.0000  90.0000  61 1

