# MOL2 file generated by ConQuest
# Please check atom types

@<TRIPOS>MOLECULE
YAWNAL
    55    58     1
SMALL
NO_CHARGES
****
Generated from CSD

@<TRIPOS>ATOM
      1 O1         6.7329    5.1945    8.5262 O.2       1 RES1    0.0000
      2 O2         4.9798    4.7665    9.8416 O.3       1 RES1    0.0000
      3 O3         0.7325    4.8979    4.5099 O.2       1 RES1    0.0000
      4 O4         2.3662    5.2365    3.1696 O.2       1 RES1    0.0000
      5 N1         1.9231    5.0821    4.2880 N.pl3     1 RES1    0.0000
      6 C1         5.3340    3.3863   11.7954 C.3       1 RES1    0.0000
      7 C2         4.2217    3.9727   12.6558 C.3       1 RES1    0.0000
      8 C3         4.4066    5.4451   12.7259 C.3       1 RES1    0.0000
      9 C4         5.6633    5.7702   11.9335 C.3       1 RES1    0.0000
     10 C5         5.8361    4.5850   11.0076 C.3       1 RES1    0.0000
     11 C6         5.5495    5.0387    8.6734 C.2       1 RES1    0.0000
     12 C7         4.5823    5.0821    7.5663 C.ar      1 RES1    0.0000
     13 C8         5.0545    5.1837    6.2735 C.ar      1 RES1    0.0000
     14 C9         4.1918    5.1932    5.1891 C.ar      1 RES1    0.0000
     15 C10        2.8363    5.1051    5.4336 C.ar      1 RES1    0.0000
     16 C11        2.3270    5.0211    6.6969 C.ar      1 RES1    0.0000
     17 C12        3.2118    5.0089    7.7723 C.ar      1 RES1    0.0000
     18 H1         3.3704    3.7614   12.2641 H         1 RES1    0.0000
     19 H2         4.2501    3.5881   13.5297 H         1 RES1    0.0000
     20 H3         3.6655    5.8948   12.3411 H         1 RES1    0.0000
     21 H4         4.5197    5.7228   13.6248 H         1 RES1    0.0000
     22 H5         5.5452    6.5775   11.4332 H         1 RES1    0.0000
     23 H6         6.4100    5.8718   12.5109 H         1 RES1    0.0000
     24 H7         6.7450    4.4726   10.7608 H         1 RES1    0.0000
     25 H8         5.9911    5.2595    6.1241 H         1 RES1    0.0000
     26 H9         4.5339    5.2500    4.3039 H         1 RES1    0.0000
     27 H10        1.3897    4.9629    6.8441 H         1 RES1    0.0000
     28 H11        2.8740    4.9453    8.6598 H         1 RES1    0.0000
     29 C2C        6.4463    2.7998   12.6558 C.3       1 RES1    0.0000
     30 C5C        4.8319    2.1875   11.0076 C.3       1 RES1    0.0000
     31 C3C        6.2614    1.3274   12.7259 C.3       1 RES1    0.0000
     32 H1C        7.2976    3.0111   12.2641 H         1 RES1    0.0000
     33 H2C        6.4179    3.1844   13.5297 H         1 RES1    0.0000
     34 O2C        5.6882    2.0060    9.8416 O.3       1 RES1    0.0000
     35 C4C        5.0047    1.0023   11.9335 C.3       1 RES1    0.0000
     36 H7C        3.9230    2.2999   10.7608 H         1 RES1    0.0000
     37 H3C        7.0025    0.8777   12.3411 H         1 RES1    0.0000
     38 H4C        6.1483    1.0497   13.6248 H         1 RES1    0.0000
     39 C6C        5.1185    1.7338    8.6734 C.2       1 RES1    0.0000
     40 H5C        5.1228    0.1950   11.4332 H         1 RES1    0.0000
     41 H6C        4.2580    0.9007   12.5109 H         1 RES1    0.0000
     42 O1C        3.9351    1.5780    8.5262 O.2       1 RES1    0.0000
     43 C7C        6.0857    1.6904    7.5663 C.ar      1 RES1    0.0000
     44 C8C        5.6135    1.5888    6.2735 C.ar      1 RES1    0.0000
     45 C12C       7.4562    1.7636    7.7723 C.ar      1 RES1    0.0000
     46 C9C        6.4762    1.5793    5.1891 C.ar      1 RES1    0.0000
     47 H8C        4.6769    1.5130    6.1241 H         1 RES1    0.0000
     48 C11C       8.3410    1.7514    6.6969 C.ar      1 RES1    0.0000
     49 H11C       7.7940    1.8272    8.6598 H         1 RES1    0.0000
     50 C10C       7.8317    1.6674    5.4336 C.ar      1 RES1    0.0000
     51 H9C        6.1341    1.5225    4.3039 H         1 RES1    0.0000
     52 H10C       9.2783    1.8096    6.8441 H         1 RES1    0.0000
     53 N1C        8.7449    1.6904    4.2880 N.pl3     1 RES1    0.0000
     54 O3C        9.9355    1.8746    4.5099 O.2       1 RES1    0.0000
     55 O4C        8.3018    1.5360    3.1696 O.2       1 RES1    0.0000
@<TRIPOS>BOND
     1    1   11 2
     2    2   10 1
     3    3    5 2
     4    4    5 2
     5    5   15 1
     6    6    7 1
     7    7    8 1
     8    8    9 1
     9    9   10 1
    10   10    6 1
    11   11    2 1
    12   12   11 1
    13   13   12 ar
    14   14   13 ar
    15   15   14 ar
    16   16   15 ar
    17   17   12 ar
    18   18    7 1
    19   19    7 1
    20   20    8 1
    21   21    8 1
    22   22    9 1
    23   23    9 1
    24   24   10 1
    25   25   13 1
    26   26   14 1
    27   27   16 1
    28   28   17 1
    29   29    6 1
    30   30    6 1
    31   31   29 1
    32   32   29 1
    33   33   29 1
    34   34   30 1
    35   35   30 1
    36   36   30 1
    37   37   31 1
    38   38   31 1
    39   39   34 1
    40   40   35 1
    41   41   35 1
    42   42   39 2
    43   43   39 1
    44   44   43 ar
    45   45   43 ar
    46   46   44 ar
    47   47   44 1
    48   48   45 ar
    49   49   45 1
    50   50   46 ar
    51   51   46 1
    52   52   48 1
    53   53   50 1
    54   54   53 2
    55   55   53 2
    56   16   17 ar
    57   31   35 1
    58   48   50 ar
@<TRIPOS>SUBSTRUCTURE
     1 RES1 1

@<TRIPOS>CRYSIN
   7.1120   13.5450   22.6400  90.0000  90.0000  90.0000  56 1

