# MOL2 file generated by ConQuest
# Please check atom types

@<TRIPOS>MOLECULE
YAWPAP
    74    76     1
SMALL
NO_CHARGES
****
Generated from CSD

@<TRIPOS>ATOM
      1 C1         3.3061   10.0863    3.2204 C.ar      1 RES1    0.0000
      2 C2         2.3710   10.4133    4.2115 C.ar      1 RES1    0.0000
      3 C3         4.3892    9.2790    3.5691 C.ar      1 RES1    0.0000
      4 H1         5.0340    9.0580    2.9073 H         1 RES1    0.0000
      5 C4         3.2289   10.6484    1.8441 C.ar      1 RES1    0.0000
      6 C5         4.3837   11.1972    1.2832 C.ar      1 RES1    0.0000
      7 H2         5.1962   11.1588    1.7738 H         1 RES1    0.0000
      8 C6         4.3837   11.7952    0.0357 C.ar      1 RES1    0.0000
      9 H3         5.1936   12.1324   -0.3283 H         1 RES1    0.0000
     10 C7         3.2075   11.9041   -0.6821 C.ar      1 RES1    0.0000
     11 H4         3.1994   12.3513   -1.5199 H         1 RES1    0.0000
     12 C8         2.0414   11.3583   -0.1746 C.ar      1 RES1    0.0000
     13 H5         1.2289   11.4161   -0.6638 H         1 RES1    0.0000
     14 C9         2.0760   10.7271    1.0556 C.ar      1 RES1    0.0000
     15 N1         0.8379   10.0514    1.4527 N.pl3     1 RES1    0.0000
     16 O1        -0.2278   10.5962    1.1832 O.2       1 RES1    0.0000
     17 O2         0.9260    8.9557    1.9861 O.2       1 RES1    0.0000
     18 O3         1.3511   11.2460    3.8309 O.3       1 RES1    0.0000
     19 C10        0.3587   11.5880    4.7946 C.3       1 RES1    0.0000
     20 H6         0.7684   12.0978    5.5372 H         1 RES1    0.0000
     21 H7        -0.0493   10.7671    5.1681 H         1 RES1    0.0000
     22 C11       -0.6940   12.4231    4.1133 C.3       1 RES1    0.0000
     23 H8        -0.2605   13.2001    3.6772 H         1 RES1    0.0000
     24 H9        -1.1306   11.8828    3.4079 H         1 RES1    0.0000
     25 C12       -1.7411   12.9178    5.0756 C.3       1 RES1    0.0000
     26 H10       -2.0497   12.1516    5.6233 H         1 RES1    0.0000
     27 H11       -1.3187   13.5707    5.6895 H         1 RES1    0.0000
     28 C13       -2.9442   13.5672    4.4457 C.3       1 RES1    0.0000
     29 H12       -2.6408   14.3350    3.8985 H         1 RES1    0.0000
     30 H13       -3.3747   12.9159    3.8368 H         1 RES1    0.0000
     31 C14       -3.9686   14.0544    5.4347 C.3       1 RES1    0.0000
     32 H14       -4.2339   13.2961    6.0133 H         1 RES1    0.0000
     33 H15       -3.5471   14.7382    6.0142 H         1 RES1    0.0000
     34 C15       -5.2091   14.6449    4.8235 C.3       1 RES1    0.0000
     35 H16       -4.9732   15.4545    4.3229 H         1 RES1    0.0000
     36 H17       -5.8458   14.8726    5.5326 H         1 RES1    0.0000
     37 H18       -5.6165   13.9932    4.2168 H         1 RES1    0.0000
     38 C1B        3.6132    9.1166    5.8480 C.ar      1 RES1    0.0000
     39 C2B        4.5483    8.7896    4.8569 C.ar      1 RES1    0.0000
     40 C3B        2.5301    9.9239    5.4993 C.ar      1 RES1    0.0000
     41 H1B        1.8854   10.1449    6.1611 H         1 RES1    0.0000
     42 C4B        3.6905    8.5545    7.2243 C.ar      1 RES1    0.0000
     43 C5B        2.5356    8.0057    7.7852 C.ar      1 RES1    0.0000
     44 H2B        1.7232    8.0441    7.2946 H         1 RES1    0.0000
     45 C6B        2.5356    7.4077    9.0327 C.ar      1 RES1    0.0000
     46 H3B        1.7257    7.0705    9.3967 H         1 RES1    0.0000
     47 C7B        3.7118    7.2988    9.7505 C.ar      1 RES1    0.0000
     48 H4B        3.7199    6.8516   10.5883 H         1 RES1    0.0000
     49 C8B        4.8779    7.8446    9.2430 C.ar      1 RES1    0.0000
     50 H5B        5.6904    7.7868    9.7322 H         1 RES1    0.0000
     51 C9B        4.8433    8.4758    8.0128 C.ar      1 RES1    0.0000
     52 N1B        6.0815    9.1515    7.6157 N.pl3     1 RES1    0.0000
     53 O1B        7.1471    8.6067    7.8852 O.2       1 RES1    0.0000
     54 O2B        5.9933   10.2472    7.0823 O.2       1 RES1    0.0000
     55 O3B        5.5683    7.9569    5.2375 O.3       1 RES1    0.0000
     56 C10B       6.5606    7.6149    4.2738 C.3       1 RES1    0.0000
     57 H6B        6.1509    7.1051    3.5312 H         1 RES1    0.0000
     58 H7B        6.9687    8.4358    3.9003 H         1 RES1    0.0000
     59 C11B       7.6133    6.7798    4.9551 C.3       1 RES1    0.0000
     60 H8B        7.1798    6.0028    5.3912 H         1 RES1    0.0000
     61 H9B        8.0500    7.3201    5.6605 H         1 RES1    0.0000
     62 C12B       8.6604    6.2851    3.9928 C.3       1 RES1    0.0000
     63 H10B       8.9690    7.0513    3.4451 H         1 RES1    0.0000
     64 H11B       8.2380    5.6322    3.3789 H         1 RES1    0.0000
     65 C13B       9.8635    5.6357    4.6227 C.3       1 RES1    0.0000
     66 H12B       9.5601    4.8679    5.1699 H         1 RES1    0.0000
     67 H13B      10.2941    6.2870    5.2316 H         1 RES1    0.0000
     68 C14B      10.8880    5.1485    3.6337 C.3       1 RES1    0.0000
     69 H14B      11.1532    5.9068    3.0551 H         1 RES1    0.0000
     70 H15B      10.4665    4.4647    3.0542 H         1 RES1    0.0000
     71 C15B      12.1285    4.5580    4.2449 C.3       1 RES1    0.0000
     72 H16B      11.8925    3.7484    4.7455 H         1 RES1    0.0000
     73 H17B      12.7652    4.3303    3.5358 H         1 RES1    0.0000
     74 H18B      12.5358    5.2097    4.8516 H         1 RES1    0.0000
@<TRIPOS>BOND
     1    1    2 ar
     2    2   18 1
     3    3    1 ar
     4    4    3 1
     5    5    1 1
     6    6    5 ar
     7    7    6 1
     8    8    6 ar
     9    9    8 1
    10   10    8 ar
    11   11   10 1
    12   12   10 ar
    13   13   12 1
    14   14    5 ar
    15   15   14 1
    16   16   15 2
    17   17   15 2
    18   18   19 1
    19   19   20 1
    20   21   19 1
    21   22   19 1
    22   23   22 1
    23   24   22 1
    24   25   22 1
    25   26   25 1
    26   27   25 1
    27   28   25 1
    28   29   28 1
    29   30   28 1
    30   31   28 1
    31   32   31 1
    32   33   31 1
    33   34   31 1
    34   35   34 1
    35   36   34 1
    36   37   34 1
    37   38   39 ar
    38   39    3 ar
    39   40    2 ar
    40   41   40 1
    41   42   38 1
    42   43   42 ar
    43   44   43 1
    44   45   43 ar
    45   46   45 1
    46   47   45 ar
    47   48   47 1
    48   49   47 ar
    49   50   49 1
    50   51   42 ar
    51   52   51 1
    52   53   52 2
    53   54   52 2
    54   55   39 1
    55   56   55 1
    56   57   56 1
    57   58   56 1
    58   59   56 1
    59   60   59 1
    60   61   59 1
    61   62   59 1
    62   63   62 1
    63   64   62 1
    64   65   62 1
    65   66   65 1
    66   67   65 1
    67   68   65 1
    68   69   68 1
    69   70   68 1
    70   71   68 1
    71   72   71 1
    72   73   71 1
    73   74   71 1
    74   12   14 ar
    75   38   40 ar
    76   49   51 ar
@<TRIPOS>SUBSTRUCTURE
     1 RES1 1

@<TRIPOS>CRYSIN
   7.9314   19.2029    9.1247  90.0000  96.3680  90.0000 231 1

