# MOL2 file generated by ConQuest
# Please check atom types

@<TRIPOS>MOLECULE
YAWRAP
    19    19     2
SMALL
NO_CHARGES
****
Generated from CSD

@<TRIPOS>ATOM
      1 N1         1.4387    4.8947    4.0824 N.pl3     1 RES1    0.0000
      2 C1         1.5233    6.3489    4.1178 C.3       1 RES1    0.0000
      3 N2         2.8485    6.5117    3.4388 N.pl3     1 RES1    0.0000
      4 C2         3.4250    5.4063    3.0501 C.2       1 RES1    0.0000
      5 C3         2.6114    4.2025    3.4913 C.3       1 RES1    0.0000
      6 C4         1.6156    6.8961    5.5228 C.3       1 RES1    0.0000
      7 C5         0.4602    7.0192    3.2787 C.3       1 RES1    0.0000
      8 C6         4.6537    5.3653    2.2510 C.ar      1 RES1    0.0000
      9 C7         5.0490    6.4679    1.5022 C.ar      1 RES1    0.0000
     10 C8         6.1550    6.3858    0.6653 C.ar      1 RES1    0.0000
     11 C9         6.8850    5.2435    0.5602 C.ar      1 RES1    0.0000
     12 C10        6.5251    4.1738    1.3135 C.ar      1 RES1    0.0000
     13 C11        5.4166    4.2134    2.1424 C.ar      1 RES1    0.0000
     14 C12        3.3094    3.3940    4.5865 C.3       1 RES1    0.0000
     15 C13        2.1689    3.3379    2.3116 C.3       1 RES1    0.0000
     16 N3         0.4270    4.2271    4.6014 N.2       1 RES1    0.0000
     17 O1        -0.4309    4.7360    5.1067 O.2       1 RES1    0.0000
     18 O2         0.2593    3.2052    4.5717 Du        2 SUP2    0.0000
     19 O3         3.2527    7.7292    3.2947 O.2       1 RES1    0.0000
@<TRIPOS>BOND
     1    1    2 1
     2    2    3 1
     3    3    4 2
     4    4    5 1
     5    5    1 1
     6    6    2 1
     7    7    2 1
     8    8    4 1
     9    9    8 ar
    10   10    9 ar
    11   11   10 ar
    12   12   11 ar
    13   13    8 ar
    14   14    5 1
    15   15    5 1
    16   16    1 1
    17   17   16 2
    18   19    3 2
    19   12   13 ar
@<TRIPOS>SUBSTRUCTURE
     1 RES1 1
     2 SUP2 18

@<TRIPOS>CRYSIN
   8.3310   13.6800   11.4950  90.0000  96.0000  90.0000  14 1

