# MOL2 file generated by ConQuest
# Please check atom types

@<TRIPOS>MOLECULE
YAWWIE
    60    63     1
SMALL
NO_CHARGES
****
Generated from CSD

@<TRIPOS>ATOM
      1 O1         1.3096   -1.0130    7.0097 O.2       1 RES1    0.0000
      2 O2        -5.3239    3.8789    2.6251 O.2       1 RES1    0.0000
      3 O3        -3.6658    4.4380    1.3826 O.2       1 RES1    0.0000
      4 O4        -2.3621   -2.7420    6.3780 O.3       1 RES1    0.0000
      5 O5        -3.4746   -3.1923    4.5084 O.2       1 RES1    0.0000
      6 N1         1.8562    1.1503    7.7230 N.am      1 RES1    0.0000
      7 N2         1.4061    2.4593    7.4994 N.2       1 RES1    0.0000
      8 N3        -4.1532    3.8004    2.2974 N.pl3     1 RES1    0.0000
      9 N4        -0.8141   -0.8908    5.2856 N.3       1 RES1    0.0000
     10 H1        -0.3109   -1.3465    5.8135 H         1 RES1    0.0000
     11 C1         3.8219   -0.1293    8.3921 C.ar      1 RES1    0.0000
     12 H2         3.5778   -0.8106    7.8069 H         1 RES1    0.0000
     13 C2         4.9803   -0.2310    9.1277 C.ar      1 RES1    0.0000
     14 H3         5.5168   -0.9844    9.0301 H         1 RES1    0.0000
     15 C3         5.3552    0.7428    9.9892 C.ar      1 RES1    0.0000
     16 H4         6.1425    0.6661   10.4769 H         1 RES1    0.0000
     17 C4         4.5551    1.8405   10.1254 C.ar      1 RES1    0.0000
     18 H5         4.7987    2.4994   10.7350 H         1 RES1    0.0000
     19 C5         3.3919    2.0063    9.3898 C.ar      1 RES1    0.0000
     20 H6         2.8737    2.7750    9.4711 H         1 RES1    0.0000
     21 C6         3.0320    0.9782    8.5262 C.ar      1 RES1    0.0000
     22 C7         0.4228    2.3657    6.6446 C.2       1 RES1    0.0000
     23 C8         0.1822    0.9987    6.2613 C.2       1 RES1    0.0000
     24 C9         1.1388    0.2194    7.0128 C.2       1 RES1    0.0000
     25 C10       -0.2396    3.6283    6.1975 C.3       1 RES1    0.0000
     26 H7         0.0841    4.3631    6.7259 H         1 RES1    0.0000
     27 H8        -1.1898    3.5481    6.3113 H         1 RES1    0.0000
     28 H9        -0.0389    3.7853    5.2730 H         1 RES1    0.0000
     29 C11       -0.7306    0.4280    5.3894 C.2       1 RES1    0.0000
     30 C12       -1.6331    1.2787    4.5462 C.ar      1 RES1    0.0000
     31 C13       -1.1677    1.8690    3.3873 C.ar      1 RES1    0.0000
     32 H10       -0.2949    1.7076    3.1089 H         1 RES1    0.0000
     33 C14       -1.9788    2.6920    2.6371 C.ar      1 RES1    0.0000
     34 H11       -1.6645    3.0897    1.8572 H         1 RES1    0.0000
     35 C15       -3.2687    2.9105    3.0726 C.ar      1 RES1    0.0000
     36 C16       -3.7606    2.3309    4.2015 C.ar      1 RES1    0.0000
     37 H12       -4.6376    2.4887    4.4683 H         1 RES1    0.0000
     38 C17       -2.9391    1.5034    4.9465 C.ar      1 RES1    0.0000
     39 H13       -3.2645    1.0977    5.7180 H         1 RES1    0.0000
     40 C18       -1.6565   -1.6550    4.3836 C.3       1 RES1    0.0000
     41 H14       -2.2145   -1.0103    3.9014 H         1 RES1    0.0000
     42 C19       -2.6015   -2.6109    5.0942 C.2       1 RES1    0.0000
     43 C20       -3.2904   -3.6078    7.1241 C.3       1 RES1    0.0000
     44 H15       -4.1642   -3.2092    7.1302 H         1 RES1    0.0000
     45 H16       -2.9789   -3.7086    8.0263 H         1 RES1    0.0000
     46 H17       -3.3344   -4.4692    6.7035 H         1 RES1    0.0000
     47 C21       -0.8127   -2.4049    3.3223 C.3       1 RES1    0.0000
     48 H18       -0.1728   -2.9774    3.7734 H         1 RES1    0.0000
     49 H19       -1.3972   -2.9703    2.7940 H         1 RES1    0.0000
     50 C22       -0.0777   -1.4731    2.4099 C.ar      1 RES1    0.0000
     51 C23       -0.7257   -0.8605    1.3350 C.ar      1 RES1    0.0000
     52 H20       -1.6152   -1.0647    1.1582 H         1 RES1    0.0000
     53 C24       -0.0542    0.0535    0.5303 C.ar      1 RES1    0.0000
     54 H21       -0.4951    0.4530   -0.1849 H         1 RES1    0.0000
     55 C25        1.2544    0.3683    0.7864 C.ar      1 RES1    0.0000
     56 H22        1.7007    0.9889    0.2560 H         1 RES1    0.0000
     57 C26        1.8922   -0.2310    1.8166 C.ar      1 RES1    0.0000
     58 H23        2.7835   -0.0250    1.9832 H         1 RES1    0.0000
     59 C27        1.2511   -1.1360    2.6233 C.ar      1 RES1    0.0000
     60 H24        1.7148   -1.5310    3.3264 H         1 RES1    0.0000
@<TRIPOS>BOND
     1    1   24 2
     2    2    8 2
     3    3    8 2
     4    4   42 1
     5    5   42 2
     6    6    7 1
     7    7   22 2
     8    8   35 1
     9    9   10 1
    10   11   12 1
    11   13   11 ar
    12   14   13 1
    13   15   13 ar
    14   16   15 1
    15   17   15 ar
    16   18   17 1
    17   19   17 ar
    18   20   19 1
    19   21    6 1
    20   22   23 1
    21   23   24 1
    22   24    6 1
    23   25   22 1
    24   26   25 1
    25   27   25 1
    26   28   25 1
    27   29    9 1
    28   30   29 1
    29   31   30 ar
    30   32   31 1
    31   33   31 ar
    32   34   33 1
    33   35   33 ar
    34   36   35 ar
    35   37   36 1
    36   38   30 ar
    37   39   38 1
    38   40    9 1
    39   41   40 1
    40   42   40 1
    41   43    4 1
    42   44   43 1
    43   45   43 1
    44   46   43 1
    45   47   40 1
    46   48   47 1
    47   49   47 1
    48   50   47 1
    49   51   50 ar
    50   52   51 1
    51   53   51 ar
    52   54   53 1
    53   55   53 ar
    54   56   55 1
    55   57   55 ar
    56   58   57 1
    57   59   50 ar
    58   60   59 1
    59   11   21 ar
    60   19   21 ar
    61   23   29 2
    62   36   38 ar
    63   57   59 ar
@<TRIPOS>SUBSTRUCTURE
     1 RES1 1

@<TRIPOS>CRYSIN
   6.7713    8.9170   20.3390  90.0000  92.4890  90.0000   4 1

