# MOL2 file generated by ConQuest
# Please check atom types

@<TRIPOS>MOLECULE
YAWZED
    68    72     2
SMALL
NO_CHARGES
****
Generated from CSD

@<TRIPOS>ATOM
      1 O1         8.2237    4.5763   -3.3322 O.3       1 RES1    0.0000
      2 O2        10.4672    3.5846   -1.5395 O.3       1 RES1    0.0000
      3 O3        12.8509    4.5919    8.7133 O.3       2 RES2    0.0000
      4 O4        15.1320    3.7090    6.8879 O.3       2 RES2    0.0000
      5 N1         7.1192    3.7982   -2.8499 N.2       1 RES1    0.0000
      6 N2        10.8464    2.7806   -0.4388 N.2       1 RES1    0.0000
      7 N3        11.1802    0.8985    3.3259 N.ar      1 RES1    0.0000
      8 N4        11.7621    3.7893    8.2262 N.2       2 RES2    0.0000
      9 N5        15.5559    3.0009    5.7436 N.2       2 RES2    0.0000
     10 N6        16.0520    1.3756    1.8728 N.ar      2 RES2    0.0000
     11 C1         6.5199    3.2408   -3.8371 C.2       1 RES1    0.0000
     12 H1         6.8316    3.4058   -4.7186 H         1 RES1    0.0000
     13 C2         5.3799    2.3642   -3.6392 C.ar      1 RES1    0.0000
     14 C3         4.8619    1.6726   -4.7396 C.ar      1 RES1    0.0000
     15 H2         5.2593    1.7858   -5.5956 H         1 RES1    0.0000
     16 C4         3.7760    0.8245   -4.5963 C.ar      1 RES1    0.0000
     17 H3         3.4352    0.3581   -5.3509 H         1 RES1    0.0000
     18 C5         3.1854    0.6555   -3.3580 C.ar      1 RES1    0.0000
     19 H4         2.4437    0.0696   -3.2633 H         1 RES1    0.0000
     20 C6         3.6675    1.3346   -2.2548 C.ar      1 RES1    0.0000
     21 H5         3.2512    1.2280   -1.4076 H         1 RES1    0.0000
     22 C7         4.7771    2.1831   -2.3949 C.ar      1 RES1    0.0000
     23 H6         5.1198    2.6384   -1.6364 H         1 RES1    0.0000
     24 C8         8.8184    5.2625   -2.2011 C.3       1 RES1    0.0000
     25 H7         8.1348    5.8368   -1.7730 H         1 RES1    0.0000
     26 H8         9.5503    5.8471   -2.5229 H         1 RES1    0.0000
     27 C9         9.3586    4.3145   -1.1947 C.2       1 RES1    0.0000
     28 C10        9.0081    4.0274    0.0737 C.2       1 RES1    0.0000
     29 H9         8.2878    4.3926    0.5720 H         1 RES1    0.0000
     30 C11        9.9521    3.0611    0.5043 C.2       1 RES1    0.0000
     31 C12       10.0398    2.3958    1.8229 C.ar      1 RES1    0.0000
     32 C13        9.1309    2.7329    2.8385 C.ar      1 RES1    0.0000
     33 H10        8.4330    3.3572    2.6755 H         1 RES1    0.0000
     34 C14        9.2688    2.1417    4.0764 C.ar      1 RES1    0.0000
     35 H11        8.6635    2.3481    4.7790 H         1 RES1    0.0000
     36 C15       10.3094    1.2365    4.2817 C.ar      1 RES1    0.0000
     37 H12       10.4043    0.8423    5.1412 H         1 RES1    0.0000
     38 C16       11.0394    1.4617    2.1207 C.ar      1 RES1    0.0000
     39 H13       11.6455    1.2151    1.4331 H         1 RES1    0.0000
     40 C17       11.1769    3.2497    9.2338 C.2       2 RES2    0.0000
     41 H14       11.4809    3.4428   10.1140 H         2 RES2    0.0000
     42 C18       10.0300    2.3276    9.0409 C.ar      2 RES2    0.0000
     43 C19        9.4613    2.0966    7.7947 C.ar      2 RES2    0.0000
     44 H15        9.7982    2.5407    7.0255 H         2 RES2    0.0000
     45 C20        8.3924    1.2097    7.6794 C.ar      2 RES2    0.0000
     46 H16        8.0128    1.0385    6.8253 H         2 RES2    0.0000
     47 C21        7.8788    0.5783    8.7928 C.ar      2 RES2    0.0000
     48 H17        7.1434   -0.0169    8.7064 H         2 RES2    0.0000
     49 C22        8.4427    0.8160   10.0466 C.ar      2 RES2    0.0000
     50 H18        8.0961    0.3821   10.8162 H         2 RES2    0.0000
     51 C23        9.5077    1.6824   10.1626 C.ar      2 RES2    0.0000
     52 H19        9.8931    1.8420   11.0164 H         2 RES2    0.0000
     53 C24       13.4115    5.3049    7.6104 C.3       2 RES2    0.0000
     54 H20       14.1164    5.9122    7.9469 H         2 RES2    0.0000
     55 H21       12.7047    5.8622    7.1970 H         2 RES2    0.0000
     56 C25       13.9967    4.4144    6.5654 C.2       2 RES2    0.0000
     57 C26       13.6690    4.1665    5.2677 C.2       2 RES2    0.0000
     58 H22       12.9255    4.5063    4.7821 H         2 RES2    0.0000
     59 C27       14.6663    3.3010    4.8057 C.2       2 RES2    0.0000
     60 C28       14.8137    2.7352    3.4330 C.ar      2 RES2    0.0000
     61 C29       13.9440    3.1467    2.4314 C.ar      2 RES2    0.0000
     62 H23       13.2295    3.7429    2.6183 H         2 RES2    0.0000
     63 C30       14.1531    2.6549    1.1302 C.ar      2 RES2    0.0000
     64 H24       13.5780    2.9099    0.4194 H         2 RES2    0.0000
     65 C31       15.2046    1.8005    0.9053 C.ar      2 RES2    0.0000
     66 H25       15.3440    1.4884    0.0191 H         2 RES2    0.0000
     67 C32       15.8262    1.8380    3.1108 C.ar      2 RES2    0.0000
     68 H26       16.3916    1.5343    3.8098 H         2 RES2    0.0000
@<TRIPOS>BOND
     1    1    5 1
     2    2    6 1
     3    3    8 1
     4    4    9 1
     5    5   11 2
     6    6   30 2
     7    7   36 ar
     8    8   40 2
     9    9   59 2
    10   10   65 ar
    11   11   12 1
    12   13   11 1
    13   14   13 ar
    14   15   14 1
    15   16   14 ar
    16   17   16 1
    17   18   16 ar
    18   19   18 1
    19   20   18 ar
    20   21   20 1
    21   22   13 ar
    22   23   22 1
    23   24    1 1
    24   25   24 1
    25   26   24 1
    26   27    2 1
    27   28   27 2
    28   29   28 1
    29   30   28 1
    30   31   30 1
    31   32   31 ar
    32   33   32 1
    33   34   32 ar
    34   35   34 1
    35   36   34 ar
    36   37   36 1
    37   38    7 ar
    38   39   38 1
    39   40   41 1
    40   42   40 1
    41   43   42 ar
    42   44   43 1
    43   45   43 ar
    44   46   45 1
    45   47   45 ar
    46   48   47 1
    47   49   47 ar
    48   50   49 1
    49   51   42 ar
    50   52   51 1
    51   53    3 1
    52   54   53 1
    53   55   53 1
    54   56    4 1
    55   57   56 2
    56   58   57 1
    57   59   57 1
    58   60   59 1
    59   61   60 ar
    60   62   61 1
    61   63   61 ar
    62   64   63 1
    63   65   63 ar
    64   66   65 1
    65   67   10 ar
    66   68   67 1
    67   20   22 ar
    68   24   27 1
    69   31   38 ar
    70   49   51 ar
    71   53   56 1
    72   60   67 ar
@<TRIPOS>SUBSTRUCTURE
     1 RES1 1
     2 RES2 3

@<TRIPOS>CRYSIN
  19.3640    4.4590   31.7750  90.0000  90.0000  90.0000  33 1

