# MOL2 file generated by ConQuest
# Please check atom types

@<TRIPOS>MOLECULE
YAXGAI
    62    66     1
SMALL
NO_CHARGES
****
Generated from CSD

@<TRIPOS>ATOM
      1 O1         8.3398    4.0750    2.3921 O.2       1 RES1    0.0000
      2 O2        10.3824    3.2500   10.3512 O.3       1 RES1    0.0000
      3 O3         3.8279    3.6949    6.5640 O.2       1 RES1    0.0000
      4 O4         5.2987    4.7385    3.6340 O.3       1 RES1    0.0000
      5 O5         2.0452    1.6221    2.1921 O.2       1 RES1    0.0000
      6 O6         1.9218    2.6439    4.2347 O.3       1 RES1    0.0000
      7 N1         3.9027    2.1761    3.3668 N.am      1 RES1    0.0000
      8 N2         4.3728    4.8104    4.6843 N.am      1 RES1    0.0000
      9 N3         6.8918    2.3520    2.5281 N.am      1 RES1    0.0000
     10 H1         6.8365    2.3339    1.6256 H         1 RES1    0.0000
     11 N4         9.0043    3.7587    5.0398 N.ar      1 RES1    0.0000
     12 C1         4.4712    2.3792    4.6794 C.3       1 RES1    0.0000
     13 C2         5.8738    1.7730    4.6622 C.3       1 RES1    0.0000
     14 C3         6.1059    1.3214    3.2304 C.3       1 RES1    0.0000
     15 H2         6.5775    0.4389    3.2085 H         1 RES1    0.0000
     16 C4         4.7340    1.2122    2.6027 C.3       1 RES1    0.0000
     17 H3         4.7639    1.4549    1.6435 H         1 RES1    0.0000
     18 H4         4.3778    0.2926    2.6905 H         1 RES1    0.0000
     19 C5         4.7566    1.1286    5.4543 C.3       1 RES1    0.0000
     20 H5         4.3811    0.2798    5.1110 H         1 RES1    0.0000
     21 H6         4.7930    1.1983    6.4418 H         1 RES1    0.0000
     22 C6         4.2065    3.6657    5.3973 C.2       1 RES1    0.0000
     23 C7         4.3388    6.1133    5.3424 C.3       1 RES1    0.0000
     24 H7         5.1941    6.2736    5.7943 H         1 RES1    0.0000
     25 H8         3.6135    6.1284    5.9996 H         1 RES1    0.0000
     26 H9         4.1890    6.8135    4.6729 H         1 RES1    0.0000
     27 C8         4.6934    5.1403    2.3971 C.3       1 RES1    0.0000
     28 H10        5.3389    5.0323    1.6683 H         1 RES1    0.0000
     29 H11        4.4223    6.0797    2.4577 H         1 RES1    0.0000
     30 H12        3.9063    4.5830    2.2221 H         1 RES1    0.0000
     31 C9         7.0394    2.3792    5.3467 C.ar      1 RES1    0.0000
     32 C10        7.3131    2.2352    6.6773 C.ar      1 RES1    0.0000
     33 H13        6.7296    1.7254    7.2270 H         1 RES1    0.0000
     34 C11        8.4572    2.8366    7.2393 C.ar      1 RES1    0.0000
     35 C12        8.8150    2.6927    8.5962 C.ar      1 RES1    0.0000
     36 H14        8.2883    2.1551    9.1750 H         1 RES1    0.0000
     37 C13        9.9186    3.3290    9.0689 C.ar      1 RES1    0.0000
     38 C14       10.6954    4.1754    8.2313 C.ar      1 RES1    0.0000
     39 H15       11.4409    4.6399    8.5922 H         1 RES1    0.0000
     40 C15       10.3751    4.3240    6.9171 C.ar      1 RES1    0.0000
     41 H16       10.9019    4.8884    6.3633 H         1 RES1    0.0000
     42 C16        9.2643    3.6413    6.3714 C.ar      1 RES1    0.0000
     43 C17        7.9492    3.1385    4.5535 C.ar      1 RES1    0.0000
     44 C18        7.7426    3.2349    3.0760 C.2       1 RES1    0.0000
     45 C19        9.6764    2.3896   11.2414 C.3       1 RES1    0.0000
     46 H17        9.6608    1.4816   10.8722 H         1 RES1    0.0000
     47 H18        8.7581    2.7147   11.3516 H         1 RES1    0.0000
     48 H19       10.1265    2.3803   12.1121 H         1 RES1    0.0000
     49 C20        2.5604    2.1063    3.1864 C.2       1 RES1    0.0000
     50 C21        0.4462    2.7391    4.2968 C.3       1 RES1    0.0000
     51 C22       -0.1784    1.3585    4.1756 C.3       1 RES1    0.0000
     52 H20       -0.0657    1.0276    3.2608 H         1 RES1    0.0000
     53 H21       -1.1348    1.4131    4.3877 H         1 RES1    0.0000
     54 H22        0.2604    0.7454    4.8024 H         1 RES1    0.0000
     55 C23        0.2349    3.3115    5.6841 C.3       1 RES1    0.0000
     56 H23        0.6820    2.7414    6.3440 H         1 RES1    0.0000
     57 H24       -0.7232    3.3499    5.8797 H         1 RES1    0.0000
     58 H25        0.6137    4.2149    5.7254 H         1 RES1    0.0000
     59 C24       -0.0259    3.6715    3.2333 C.3       1 RES1    0.0000
     60 H26        0.4909    4.5029    3.2732 H         1 RES1    0.0000
     61 H27       -0.9756    3.8712    3.3710 H         1 RES1    0.0000
     62 H28        0.0956    3.2535    2.3544 H         1 RES1    0.0000
@<TRIPOS>BOND
     1    1   44 2
     2    2   37 1
     3    3   22 2
     4    4    8 1
     5    5   49 2
     6    6   49 1
     7    7   12 1
     8    8   22 1
     9    9   10 1
    10   11   42 ar
    11   12   13 1
    12   13   14 1
    13   14    9 1
    14   15   14 1
    15   16    7 1
    16   17   16 1
    17   18   16 1
    18   19   12 1
    19   20   19 1
    20   21   19 1
    21   22   12 1
    22   23    8 1
    23   24   23 1
    24   25   23 1
    25   26   23 1
    26   27    4 1
    27   28   27 1
    28   29   27 1
    29   30   27 1
    30   31   13 1
    31   32   31 ar
    32   33   32 1
    33   34   32 ar
    34   35   34 ar
    35   36   35 1
    36   37   35 ar
    37   38   37 ar
    38   39   38 1
    39   40   38 ar
    40   41   40 1
    41   42   34 ar
    42   43   11 ar
    43   44    9 1
    44   45    2 1
    45   46   45 1
    46   47   45 1
    47   48   45 1
    48   49    7 1
    49   50    6 1
    50   51   50 1
    51   52   51 1
    52   53   51 1
    53   54   51 1
    54   55   50 1
    55   56   55 1
    56   57   55 1
    57   58   55 1
    58   59   50 1
    59   60   59 1
    60   61   59 1
    61   62   59 1
    62   13   19 1
    63   14   16 1
    64   31   43 ar
    65   40   42 ar
    66   43   44 1
@<TRIPOS>SUBSTRUCTURE
     1 RES1 1

@<TRIPOS>CRYSIN
  16.7641   11.6113   14.8749  90.0000 112.1590  90.0000  14 1

