# MOL2 file generated by ConQuest
# Please check atom types

@<TRIPOS>MOLECULE
YAXGUZ
    40    42     1
SMALL
USER_CHARGES
****
Generated from CSD

@<TRIPOS>ATOM
      1 C1        -1.0026    1.4354    5.2871 C.3       1 RES1    0.0000
      2 O1        -1.1650    1.4307    6.6954 O.3       1 RES1    0.0000
      3 C2        -0.2215    2.0315    7.3809 C.2       1 RES1    0.0000
      4 O2         0.6775    2.6405    6.9126 O.2       1 RES1    0.0000
      5 C3        -0.4999    1.9177    8.8503 C.2       1 RES1    0.0000
      6 C4         0.4036    2.2734    9.6902 C.2       1 RES1    0.0000
      7 C5         0.1927    2.2124   11.1409 C.2       1 RES1    0.0000
      8 N1        -0.9439    1.8906   11.7042 N.2       1 RES1    0.0000
      9 N2         1.2596    2.5016   11.9011 N.pl3     1 RES1    1.0000
     10 O3         2.4364    2.6757   11.4141 O.2       1 RES1   -1.0000
     11 N3         1.2333    2.6811   13.2568 N.2       1 RES1    0.0000
     12 C6         0.0381    2.3736   13.7946 C.2       1 RES1    0.0000
     13 C7         0.0376    2.6500   15.2793 C.ar      1 RES1    0.0000
     14 C8        -0.9902    3.3748   15.8426 C.ar      1 RES1    0.0000
     15 C9        -0.9390    3.6336   17.1881 C.ar      1 RES1    0.0000
     16 C10        0.1019    3.1790   17.9670 C.ar      1 RES1    0.0000
     17 C11        1.1174    2.4901   17.4002 C.ar      1 RES1    0.0000
     18 C12        1.0999    2.2320   16.0411 C.ar      1 RES1    0.0000
     19 C13       -1.0492    1.9150   13.0447 C.2       1 RES1    0.0000
     20 C14       -2.3176    1.3954   13.6012 C.ar      1 RES1    0.0000
     21 C15       -3.5230    1.6827   12.9683 C.ar      1 RES1    0.0000
     22 C16       -4.7106    1.1285   13.4078 C.ar      1 RES1    0.0000
     23 C17       -4.6898    0.2594   14.4716 C.ar      1 RES1    0.0000
     24 C18       -3.4933   -0.0495   15.0977 C.ar      1 RES1    0.0000
     25 C19       -2.3183    0.5202   14.6990 C.ar      1 RES1    0.0000
     26 H1        -1.7430    1.0906    4.7832 H         1 RES1    0.0000
     27 H2        -0.8493    2.3499    5.0445 H         1 RES1    0.0000
     28 H3        -0.2170    0.9192    5.0971 H         1 RES1    0.0000
     29 H4        -1.3059    1.5289    9.1981 H         1 RES1    0.0000
     30 H5         1.2228    2.6310    9.3406 H         1 RES1    0.0000
     31 H6        -1.7150    3.6498   15.2793 H         1 RES1    0.0000
     32 H7        -1.6430    4.1437   17.5937 H         1 RES1    0.0000
     33 H8         0.1146    3.3687   18.9070 H         1 RES1    0.0000
     34 H9         1.8436    2.1799   17.9466 H         1 RES1    0.0000
     35 H10        1.8239    1.7944   15.5932 H         1 RES1    0.0000
     36 H11       -3.5419    2.2578   12.2031 H         1 RES1    0.0000
     37 H12       -5.5428    1.3907   13.0090 H         1 RES1    0.0000
     38 H13       -5.5044   -0.1829   14.7160 H         1 RES1    0.0000
     39 H14       -3.5228   -0.6171   15.8698 H         1 RES1    0.0000
     40 H15       -1.5030    0.3042   15.1571 H         1 RES1    0.0000
@<TRIPOS>BOND
     1    1    2 1
     2    2    3 1
     3    3    4 2
     4    5    3 1
     5    6    5 2
     6    7    6 1
     7    8    7 1
     8    9    7 2
     9   10    9 1
    10   11    9 1
    11   12   11 2
    12   13   12 1
    13   14   13 ar
    14   15   14 ar
    15   16   15 ar
    16   17   16 ar
    17   18   13 ar
    18   19    8 2
    19   20   19 1
    20   21   20 ar
    21   22   21 ar
    22   23   22 ar
    23   24   23 ar
    24   25   20 ar
    25   26    1 1
    26   27    1 1
    27   28    1 1
    28   29    5 1
    29   30    6 1
    30   31   14 1
    31   32   15 1
    32   33   16 1
    33   34   17 1
    34   35   18 1
    35   36   21 1
    36   37   22 1
    37   38   23 1
    38   39   24 1
    39   40   25 1
    40   12   19 1
    41   17   18 ar
    42   24   25 ar
@<TRIPOS>SUBSTRUCTURE
     1 RES1 1

@<TRIPOS>CRYSIN
  14.3070    6.7740   17.2000  90.0000  99.4300  90.0000 231 1

