# MOL2 file generated by ConQuest
# Please check atom types

@<TRIPOS>MOLECULE
YAXHIQ
    41    42     1
SMALL
NO_CHARGES
****
Generated from CSD

@<TRIPOS>ATOM
      1 N1        -1.6226    0.4751    8.7436 N.pl3     1 RES1    0.0000
      2 C1         1.4302   -0.6649    6.9746 C.ar      1 RES1    0.0000
      3 H1         2.1670   -1.2068    7.1456 H         1 RES1    0.0000
      4 O1        -2.4975    1.2475    8.5538 O.2       1 RES1    0.0000
      5 C2         0.4694   -0.4755    7.9526 C.ar      1 RES1    0.0000
      6 H2         0.5648   -0.8719    8.7885 H         1 RES1    0.0000
      7 O2        -1.5095   -0.1785    9.7578 O.2       1 RES1    0.0000
      8 O3         1.8425   -0.5438    3.4311 O.3       1 RES1    0.0000
      9 C3        -0.6022    0.2852    7.6831 C.ar      1 RES1    0.0000
     10 O4         3.0559    1.0125    4.5486 O.3       1 RES1    0.0000
     11 C4        -0.7592    0.9067    6.5124 C.ar      1 RES1    0.0000
     12 H3        -1.5055    1.4392    6.3560 H         1 RES1    0.0000
     13 O5         5.6351    0.6983    2.1528 O.3       1 RES1    0.0000
     14 C5         0.2120    0.7444    5.5301 C.ar      1 RES1    0.0000
     15 H4         0.1231    1.1824    4.7145 H         1 RES1    0.0000
     16 C6         1.2983   -0.0547    5.7547 C.ar      1 RES1    0.0000
     17 O6         5.2442   -0.5740    3.9277 O.2       1 RES1    0.0000
     18 C7         2.3663   -0.2265    4.7217 C.3       1 RES1    0.0000
     19 H5         2.9967   -0.9212    5.0057 H         1 RES1    0.0000
     20 C8         3.5796    1.0057    3.2439 C.3       1 RES1    0.0000
     21 H6         3.6750    1.9228    2.9121 H         1 RES1    0.0000
     22 O7         0.3190    1.2453    2.2570 O.3       1 RES1    0.0000
     23 C9         2.4653    0.2572    2.4500 C.3       1 RES1    0.0000
     24 H7         2.8798   -0.3205    1.7763 H         1 RES1    0.0000
     25 O8         1.9199    1.9242    0.8507 O.2       1 RES1    0.0000
     26 C10        4.9020    0.2771    3.1584 C.2       1 RES1    0.0000
     27 C11        6.9455    0.0796    2.0008 C.3       1 RES1    0.0000
     28 H8         6.8512   -0.8823    1.9197 H         1 RES1    0.0000
     29 H9         7.4944    0.2689    2.7774 H         1 RES1    0.0000
     30 C12        7.5777    0.6269    0.7925 C.3       1 RES1    0.0000
     31 H10        8.4342    0.2120    0.6621 H         1 RES1    0.0000
     32 H11        7.6937    1.5748    0.8925 H         1 RES1    0.0000
     33 H12        7.0186    0.4520    0.0319 H         1 RES1    0.0000
     34 C13        1.5309    1.2362    1.7647 C.2       1 RES1    0.0000
     35 C14       -0.6457    2.1696    1.6574 C.3       1 RES1    0.0000
     36 H13       -0.2005    2.9877    1.3909 H         1 RES1    0.0000
     37 H14       -1.0457    1.7673    0.8707 H         1 RES1    0.0000
     38 C15       -1.6756    2.4643    2.6426 C.3       1 RES1    0.0000
     39 H15       -2.3153    3.0731    2.2645 H         1 RES1    0.0000
     40 H16       -1.2733    2.8634    3.4178 H         1 RES1    0.0000
     41 H17       -2.1185    1.6512    2.8947 H         1 RES1    0.0000
@<TRIPOS>BOND
     1    1    4 2
     2    2    3 1
     3    5    2 ar
     4    6    5 1
     5    7    1 2
     6    8   18 1
     7    9    1 1
     8   10   18 1
     9   11    9 ar
    10   12   11 1
    11   13   26 1
    12   14   11 ar
    13   15   14 1
    14   16    2 ar
    15   17   26 2
    16   18   16 1
    17   19   18 1
    18   20   10 1
    19   21   20 1
    20   22   34 1
    21   23    8 1
    22   24   23 1
    23   25   34 2
    24   26   20 1
    25   27   13 1
    26   28   27 1
    27   29   27 1
    28   30   27 1
    29   31   30 1
    30   32   30 1
    31   33   30 1
    32   34   23 1
    33   35   22 1
    34   36   35 1
    35   37   35 1
    36   38   35 1
    37   39   38 1
    38   40   38 1
    39   41   38 1
    40    5    9 ar
    41   14   16 ar
    42   20   23 1
@<TRIPOS>SUBSTRUCTURE
     1 RES1 1

@<TRIPOS>CRYSIN
  12.2610    4.5200   15.6560  90.0000 112.2700  90.0000   4 1

