# MOL2 file generated by ConQuest
# Please check atom types

@<TRIPOS>MOLECULE
YAXPIZ
    42    44     1
SMALL
USER_CHARGES
****
Generated from CSD

@<TRIPOS>ATOM
      1 O1         7.9352    0.7618    1.4322 O.3       1 RES1    0.0000
      2 O2         5.9082   -0.0955   -4.4535 O.3       1 RES1    0.0000
      3 O3         7.3940   -2.4893    3.6998 O.2       1 RES1   -1.0000
      4 C1        10.7387    1.5429    1.2752 C.3       1 RES1    0.0000
      5 H1        10.2528    1.5213    0.4469 H         1 RES1    0.0000
      6 H2        11.6723    1.4005    1.1011 H         1 RES1    0.0000
      7 H3        10.6177    2.3973    1.6961 H         1 RES1    0.0000
      8 C2         9.1763    0.2151    7.7198 C.ar      1 RES1    0.0000
      9 H4         9.3978    0.3381    8.6138 H         1 RES1    0.0000
     10 C3         9.4837    1.1767    6.7797 C.ar      1 RES1    0.0000
     11 H5         9.9009    1.9643    7.0461 H         1 RES1    0.0000
     12 C4         9.1790    0.9810    5.4593 C.ar      1 RES1    0.0000
     13 H6         9.4036    1.6390    4.8414 H         1 RES1    0.0000
     14 C5         8.5429   -0.1752    5.0125 C.ar      1 RES1    0.0000
     15 C6         8.2971   -0.3463    3.5894 C.2       1 RES1    0.0000
     16 C7         8.7791    0.6798    2.6029 C.3       1 RES1    0.0000
     17 H7         8.7376    1.5511    3.0490 H         1 RES1    0.0000
     18 C8         7.5789   -0.4166    0.8814 C.2       1 RES1    0.0000
     19 C9         7.1744   -0.3346   -0.5106 C.ar      1 RES1    0.0000
     20 C10        6.4509   -1.3355   -1.1339 C.ar      1 RES1    0.0000
     21 H8         6.2331   -2.0996   -0.6518 H         1 RES1    0.0000
     22 C11        6.0445   -1.2400   -2.4414 C.ar      1 RES1    0.0000
     23 H9         5.5653   -1.9344   -2.8318 H         1 RES1    0.0000
     24 C12        6.3493   -0.1061   -3.1776 C.ar      1 RES1    0.0000
     25 C13        6.1525    1.0607   -5.2349 C.3       1 RES1    0.0000
     26 H10        5.8160    1.8342   -4.7772 H         1 RES1    0.0000
     27 H11        5.7108    0.9733   -6.0832 H         1 RES1    0.0000
     28 H12        7.0969    1.1579   -5.3747 H         1 RES1    0.0000
     29 N1         7.7886   -1.4351    3.0401 N.pl3     1 RES1    1.0000
     30 C14        7.5843   -1.5090    1.6435 C.2       1 RES1    0.0000
     31 H13        7.4500   -2.3399    1.2468 H         1 RES1    0.0000
     32 C15       10.2256    0.4571    2.1869 C.3       1 RES1    0.0000
     33 H14       10.7823    0.4213    2.9799 H         1 RES1    0.0000
     34 H15       10.2989   -0.3979    1.7331 H         1 RES1    0.0000
     35 C16        7.0542    0.9024   -2.5827 C.ar      1 RES1    0.0000
     36 H16        7.2589    1.6713   -3.0638 H         1 RES1    0.0000
     37 C17        7.4647    0.7852   -1.2682 C.ar      1 RES1    0.0000
     38 H17        7.9506    1.4785   -0.8814 H         1 RES1    0.0000
     39 C18        8.2276   -1.1228    5.9914 C.ar      1 RES1    0.0000
     40 H18        7.7946   -1.9074    5.7425 H         1 RES1    0.0000
     41 C19        8.5400   -0.9224    7.3097 C.ar      1 RES1    0.0000
     42 H19        8.3162   -1.5717    7.9373 H         1 RES1    0.0000
@<TRIPOS>BOND
     1    1   16 1
     2    2   24 1
     3    3   29 1
     4    4    5 1
     5    6    4 1
     6    7    4 1
     7    8    9 1
     8   10    8 ar
     9   11   10 1
    10   12   10 ar
    11   13   12 1
    12   14   12 ar
    13   15   14 1
    14   16   15 1
    15   17   16 1
    16   18    1 1
    17   19   18 1
    18   20   19 ar
    19   21   20 1
    20   22   20 ar
    21   23   22 1
    22   24   22 ar
    23   25    2 1
    24   26   25 1
    25   27   25 1
    26   28   25 1
    27   29   15 2
    28   30   18 2
    29   31   30 1
    30   32    4 1
    31   33   32 1
    32   34   32 1
    33   35   24 ar
    34   36   35 1
    35   37   19 ar
    36   38   37 1
    37   39   14 ar
    38   40   39 1
    39   41    8 ar
    40   42   41 1
    41   16   32 1
    42   29   30 1
    43   35   37 ar
    44   39   41 ar
@<TRIPOS>SUBSTRUCTURE
     1 RES1 1

@<TRIPOS>CRYSIN
  10.8750    5.8600   24.7030  90.0000  91.9690  90.0000  14 1

