# MOL2 file generated by ConQuest
# Please check atom types

@<TRIPOS>MOLECULE
YAXQAQ
    84    88     1
SMALL
NO_CHARGES
****
Generated from CSD

@<TRIPOS>ATOM
      1 C1         2.8459    0.7382    0.0674 C.3       1 RES1    0.0000
      2 H1         3.4598    0.0025    0.2201 H         1 RES1    0.0000
      3 H2         2.1315    0.4191   -0.5053 H         1 RES1    0.0000
      4 C2         2.7180    5.3328   -1.9850 C.3       1 RES1    0.0000
      5 H3         2.8750    5.5486   -2.9167 H         1 RES1    0.0000
      6 H4         1.7689    5.1643   -1.8717 H         1 RES1    0.0000
      7 C3         3.4131    7.3251    2.5998 C.3       1 RES1    0.0000
      8 H5         2.4895    7.2099    2.8708 H         1 RES1    0.0000
      9 H6         3.7462    8.1364    3.0162 H         1 RES1    0.0000
     10 C4         3.6021    2.7203    4.6382 C.3       1 RES1    0.0000
     11 H7         4.2445    2.0369    4.8860 H         1 RES1    0.0000
     12 H8         3.1147    2.9782    5.4353 H         1 RES1    0.0000
     13 C5         0.4366    1.9456    2.7226 C.ar      1 RES1    0.0000
     14 C6         1.2711    2.3393    3.7471 C.ar      1 RES1    0.0000
     15 H9         0.9204    2.7208    4.5186 H         1 RES1    0.0000
     16 C7         2.6360    2.1597    3.6118 C.ar      1 RES1    0.0000
     17 C8         3.1124    1.5449    2.4507 C.ar      1 RES1    0.0000
     18 C9         2.2652    1.1953    1.3925 C.ar      1 RES1    0.0000
     19 C10        0.9104    1.3991    1.5519 C.ar      1 RES1    0.0000
     20 H10        0.3199    1.1677    0.8708 H         1 RES1    0.0000
     21 C11        4.9445    0.0865    2.6909 C.3       1 RES1    0.0000
     22 H11        4.8523   -0.0224    3.6401 H         1 RES1    0.0000
     23 H12        5.8697    0.0112    2.4497 H         1 RES1    0.0000
     24 H13        4.4399   -0.5944    2.2392 H         1 RES1    0.0000
     25 C12        2.8550    2.9424   -1.1395 C.ar      1 RES1    0.0000
     26 C13        3.5709    1.8618   -0.6147 C.ar      1 RES1    0.0000
     27 C14        4.9578    1.9142   -0.6675 C.ar      1 RES1    0.0000
     28 H14        5.4580    1.2025   -0.3387 H         1 RES1    0.0000
     29 C15        5.6003    3.0035   -1.1996 C.ar      1 RES1    0.0000
     30 H15        6.5290    3.0118   -1.2555 H         1 RES1    0.0000
     31 C16        4.8770    4.0863   -1.6515 C.ar      1 RES1    0.0000
     32 H16        5.3255    4.8298   -1.9827 H         1 RES1    0.0000
     33 C17        3.4975    4.0852   -1.6189 C.ar      1 RES1    0.0000
     34 C18        0.8901    2.3988   -2.3270 C.3       1 RES1    0.0000
     35 H17        1.1602    1.4773   -2.4612 H         1 RES1    0.0000
     36 H18        1.2099    2.9198   -3.0813 H         1 RES1    0.0000
     37 C19       -0.5812    2.4796   -2.2562 C.3       1 RES1    0.0000
     38 H19       -0.8417    3.4010   -2.1014 H         1 RES1    0.0000
     39 H20       -0.8926    1.9511   -1.5062 H         1 RES1    0.0000
     40 C20       -1.2422    1.9834   -3.5236 C.3       1 RES1    0.0000
     41 H21       -0.9104    2.4821   -4.2736 H         1 RES1    0.0000
     42 H22       -2.1921    2.1003   -3.4564 H         1 RES1    0.0000
     43 H23       -1.0419    1.0520   -3.6459 H         1 RES1    0.0000
     44 C21        3.0076    6.4496    0.2654 C.ar      1 RES1    0.0000
     45 C22        3.1280    6.5062   -1.1206 C.ar      1 RES1    0.0000
     46 C23        3.6978    7.6460   -1.6865 C.ar      1 RES1    0.0000
     47 H24        3.7800    7.7210   -2.6105 H         1 RES1    0.0000
     48 C24        4.1371    8.6558   -0.8675 C.ar      1 RES1    0.0000
     49 C25        4.0421    8.5921    0.5009 C.ar      1 RES1    0.0000
     50 H25        4.3577    9.2941    1.0239 H         1 RES1    0.0000
     51 C26        3.4741    7.4769    1.0993 C.ar      1 RES1    0.0000
     52 C27        1.1184    5.2733    1.0959 C.3       1 RES1    0.0000
     53 H26        0.8360    6.1119    1.4679 H         1 RES1    0.0000
     54 H27        0.9239    4.5674    1.7167 H         1 RES1    0.0000
     55 H28        0.6519    5.1146    0.2718 H         1 RES1    0.0000
     56 C28        3.6266    5.0968    3.7768 C.ar      1 RES1    0.0000
     57 C29        4.2261    6.1454    3.0903 C.ar      1 RES1    0.0000
     58 C30        5.5772    6.0460    2.7927 C.ar      1 RES1    0.0000
     59 H29        5.9987    6.7424    2.3425 H         1 RES1    0.0000
     60 C31        6.3047    4.9355    3.1500 C.ar      1 RES1    0.0000
     61 H30        7.2175    4.9007    2.9760 H         1 RES1    0.0000
     62 C32        5.6766    3.8742    3.7661 C.ar      1 RES1    0.0000
     63 H31        6.1657    3.1100    3.9731 H         1 RES1    0.0000
     64 C33        4.3341    3.9277    4.0793 C.ar      1 RES1    0.0000
     65 C34        2.0242    5.8432    5.3390 C.3       1 RES1    0.0000
     66 H32        2.2660    6.7784    5.2535 H         1 RES1    0.0000
     67 H33        2.5539    5.4566    6.0535 H         1 RES1    0.0000
     68 C35        0.5703    5.7214    5.6611 C.3       1 RES1    0.0000
     69 H34        0.3639    4.7838    5.8066 H         1 RES1    0.0000
     70 H35        0.3980    6.1902    6.4937 H         1 RES1    0.0000
     71 C36       -0.3508    6.2524    4.6213 C.3       1 RES1    0.0000
     72 H36       -0.1091    7.1577    4.4114 H         1 RES1    0.0000
     73 H37       -1.2520    6.2288    4.9511 H         1 RES1    0.0000
     74 H38       -0.2851    5.7127    3.8296 H         1 RES1    0.0000
     75 N1        -1.0073    2.2138    2.8348 N.pl3     1 RES1    0.0000
     76 N2         4.7836    9.8304   -1.4738 N.pl3     1 RES1    0.0000
     77 O1        -1.7498    1.7812    1.9822 O.2       1 RES1    0.0000
     78 O2        -1.3931    2.8780    3.7775 O.2       1 RES1    0.0000
     79 O3         4.9303    9.8326   -2.6886 O.2       1 RES1    0.0000
     80 O4         5.1413   10.7343   -0.7464 O.2       1 RES1    0.0000
     81 O5         1.4713    2.9009   -1.1129 O.3       1 RES1    0.0000
     82 O6         2.2884    5.1528    4.1040 O.3       1 RES1    0.0000
     83 O7         4.4592    1.3646    2.3123 O.3       1 RES1    0.0000
     84 O8         2.5147    5.3122    0.8471 O.3       1 RES1    0.0000
@<TRIPOS>BOND
     1    1    2 1
     2    3    1 1
     3    4    5 1
     4    6    4 1
     5    7    8 1
     6    9    7 1
     7   10   11 1
     8   12   10 1
     9   13   14 ar
    10   14   15 1
    11   16   10 1
    12   17   16 ar
    13   18    1 1
    14   19   13 ar
    15   20   19 1
    16   21   22 1
    17   23   21 1
    18   24   21 1
    19   25   26 ar
    20   26    1 1
    21   27   26 ar
    22   28   27 1
    23   29   27 ar
    24   30   29 1
    25   31   29 ar
    26   32   31 1
    27   33    4 1
    28   34   35 1
    29   36   34 1
    30   37   34 1
    31   38   37 1
    32   39   37 1
    33   40   37 1
    34   41   40 1
    35   42   40 1
    36   43   40 1
    37   44   45 ar
    38   45    4 1
    39   46   45 ar
    40   47   46 1
    41   48   46 ar
    42   49   48 ar
    43   50   49 1
    44   51    7 1
    45   52   53 1
    46   54   52 1
    47   55   52 1
    48   56   57 ar
    49   57    7 1
    50   58   57 ar
    51   59   58 1
    52   60   58 ar
    53   61   60 1
    54   62   60 ar
    55   63   62 1
    56   64   10 1
    57   65   66 1
    58   67   65 1
    59   68   65 1
    60   69   68 1
    61   70   68 1
    62   71   68 1
    63   72   71 1
    64   73   71 1
    65   74   71 1
    66   75   13 1
    67   76   48 1
    68   77   75 2
    69   78   75 2
    70   79   76 2
    71   80   76 2
    72   81   25 1
    73   82   56 1
    74   83   17 1
    75   84   44 1
    76   14   16 ar
    77   17   18 ar
    78   18   19 ar
    79   21   83 1
    80   25   33 ar
    81   31   33 ar
    82   34   81 1
    83   44   51 ar
    84   49   51 ar
    85   52   84 1
    86   56   64 ar
    87   62   64 ar
    88   65   82 1
@<TRIPOS>SUBSTRUCTURE
     1 RES1 1

@<TRIPOS>CRYSIN
  13.6454   12.4352   20.2006  90.0000 108.6630  90.0000  14 1

