# MOL2 file generated by ConQuest
# Please check atom types

@<TRIPOS>MOLECULE
YAXZII
    42    45     1
SMALL
NO_CHARGES
****
Generated from CSD

@<TRIPOS>ATOM
      1 O1         9.0981    8.5019   -0.1152 O.2       1 RES1    0.0000
      2 O2         6.4812    3.8618   -3.3239 O.2       1 RES1    0.0000
      3 O3         4.7906    4.4527   -2.1075 O.2       1 RES1    0.0000
      4 N1         7.0659    9.1082    1.3845 N.pl3     1 RES1    0.0000
      5 H1         7.9743    9.1747    1.1047 H         1 RES1    0.0000
      6 N2         5.9673    4.5887   -2.4615 N.pl3     1 RES1    0.0000
      7 C1         8.3668    7.6309   -0.6736 C.ar      1 RES1    0.0000
      8 C2         6.9883    7.4049   -0.2756 C.ar      1 RES1    0.0000
      9 C3         6.2300    6.4080   -0.8656 C.ar      1 RES1    0.0000
     10 H2         5.3357    6.2632   -0.5813 H         1 RES1    0.0000
     11 C4         6.7671    5.6265   -1.8598 C.ar      1 RES1    0.0000
     12 C5         8.0858    5.8341   -2.2996 C.ar      1 RES1    0.0000
     13 H3         8.4442    5.2879   -2.9892 H         1 RES1    0.0000
     14 C6         8.8452    6.8005   -1.7526 C.ar      1 RES1    0.0000
     15 H4         9.7229    6.9390   -2.0872 H         1 RES1    0.0000
     16 C7         6.4060    8.1917    0.7647 C.2       1 RES1    0.0000
     17 H5         5.5009    8.0341    1.0071 H         1 RES1    0.0000
     18 C8         6.5794    9.9243    2.5205 C.3       1 RES1    0.0000
     19 C9         7.6579   10.9547    2.8241 C.3       1 RES1    0.0000
     20 H6         8.5125   10.4966    3.0236 H         1 RES1    0.0000
     21 H7         7.7961   11.5375    2.0357 H         1 RES1    0.0000
     22 C10        7.2369   11.7991    4.0189 C.3       1 RES1    0.0000
     23 H8         7.9483   12.4730    4.2163 H         1 RES1    0.0000
     24 C11        7.0347   10.9040    5.2363 C.3       1 RES1    0.0000
     25 H9         7.8804   10.4378    5.4551 H         1 RES1    0.0000
     26 H10        6.7716   11.4529    6.0171 H         1 RES1    0.0000
     27 C12        5.9476    9.8838    4.9338 C.3       1 RES1    0.0000
     28 H11        5.8116    9.2984    5.7329 H         1 RES1    0.0000
     29 C13        4.6405   10.6015    4.6035 C.3       1 RES1    0.0000
     30 H12        3.9307    9.9373    4.4179 H         1 RES1    0.0000
     31 H13        4.3555   11.1523    5.3746 H         1 RES1    0.0000
     32 C14        4.8474   11.4902    3.3818 C.3       1 RES1    0.0000
     33 H14        3.9928   11.9633    3.1684 H         1 RES1    0.0000
     34 C15        5.2697   10.6318    2.1773 C.3       1 RES1    0.0000
     35 H15        4.5673    9.9640    1.9746 H         1 RES1    0.0000
     36 H16        5.3941   11.2053    1.3804 H         1 RES1    0.0000
     37 C16        6.3671    9.0208    3.7357 C.3       1 RES1    0.0000
     38 H17        7.2051    8.5366    3.9460 H         1 RES1    0.0000
     39 H18        5.6637    8.3527    3.5395 H         1 RES1    0.0000
     40 C17        5.9318   12.5227    3.6875 C.3       1 RES1    0.0000
     41 H19        5.6544   13.0833    4.4544 H         1 RES1    0.0000
     42 H20        6.0640   13.1118    2.9034 H         1 RES1    0.0000
@<TRIPOS>BOND
     1    1    7 1
     2    2    6 2
     3    3    6 2
     4    4    5 1
     5    6   11 1
     6    7    8 ar
     7    8    9 ar
     8    9   10 1
     9   11    9 ar
    10   12   11 ar
    11   13   12 1
    12   14    7 ar
    13   15   14 1
    14   16    4 2
    15   17   16 1
    16   18    4 1
    17   19   18 1
    18   20   19 1
    19   21   19 1
    20   22   19 1
    21   23   22 1
    22   24   22 1
    23   25   24 1
    24   26   24 1
    25   27   24 1
    26   28   27 1
    27   29   27 1
    28   30   29 1
    29   31   29 1
    30   32   29 1
    31   33   32 1
    32   34   18 1
    33   35   34 1
    34   36   34 1
    35   37   18 1
    36   38   37 1
    37   39   37 1
    38   40   22 1
    39   41   40 1
    40   42   40 1
    41    8   16 1
    42   12   14 ar
    43   27   37 1
    44   32   34 1
    45   32   40 1
@<TRIPOS>SUBSTRUCTURE
     1 RES1 1

@<TRIPOS>CRYSIN
   6.3531   11.0617   12.1576  62.9950  76.4460  75.4870   2 1

