# MOL2 file generated by ConQuest
# Please check atom types

@<TRIPOS>MOLECULE
YAYCIM
    27    28     1
SMALL
NO_CHARGES
****
Generated from CSD

@<TRIPOS>ATOM
      1 O1         1.7420    3.3812    4.0384 O.3       1 RES1    0.0000
      2 O2         2.2342   -2.6441   10.8379 O.2       1 RES1    0.0000
      3 O3         1.3656   -3.9532    9.3711 O.2       1 RES1    0.0000
      4 N1         1.8336    1.2934    5.9503 N.pl3     1 RES1    0.0000
      5 N2         1.7907   -2.8553    9.7166 N.pl3     1 RES1    0.0000
      6 C1         2.5584    3.4975    5.1839 C.3       1 RES1    0.0000
      7 H1         3.5023    3.1688    4.9530 H         1 RES1    0.0000
      8 H2         2.5816    4.4515    5.4206 H         1 RES1    0.0000
      9 C2         2.0506    2.6868    6.3381 C.3       1 RES1    0.0000
     10 H3         2.7184    2.7413    7.0683 H         1 RES1    0.0000
     11 H4         1.1970    3.0766    6.6592 H         1 RES1    0.0000
     12 C3         1.1375    1.1410    4.6722 C.3       1 RES1    0.0000
     13 H5         0.1644    1.3329    4.8020 H         1 RES1    0.0000
     14 H6         1.1825    0.2347    4.3783 H         1 RES1    0.0000
     15 C4         1.7277    2.0229    3.6290 C.3       1 RES1    0.0000
     16 H7         1.1839    1.9868    2.8296 H         1 RES1    0.0000
     17 H8         2.6878    1.7186    3.4449 H         1 RES1    0.0000
     18 C5         1.7677    0.3068    6.9001 C.ar      1 RES1    0.0000
     19 C6         1.2630   -0.9666    6.5932 C.ar      1 RES1    0.0000
     20 H9         0.8989   -1.1485    5.7566 H         1 RES1    0.0000
     21 C7         1.2612   -1.9818    7.5112 C.ar      1 RES1    0.0000
     22 H10        0.9221   -2.8503    7.2891 H         1 RES1    0.0000
     23 C8         1.7705   -1.7672    8.7676 C.ar      1 RES1    0.0000
     24 C9         2.2457   -0.5239    9.1276 C.ar      1 RES1    0.0000
     25 H11        2.5787   -0.3772   10.0002 H         1 RES1    0.0000
     26 C10        2.2362    0.4963    8.2120 C.ar      1 RES1    0.0000
     27 H12        2.5773    1.3497    8.4872 H         1 RES1    0.0000
@<TRIPOS>BOND
     1    1    6 1
     2    2    5 2
     3    3    5 2
     4    4    9 1
     5    5   23 1
     6    6    7 1
     7    8    6 1
     8    9    6 1
     9   10    9 1
    10   11    9 1
    11   12    4 1
    12   13   12 1
    13   14   12 1
    14   15    1 1
    15   16   15 1
    16   17   15 1
    17   18    4 1
    18   19   18 ar
    19   20   19 1
    20   21   19 ar
    21   22   21 1
    22   23   21 ar
    23   24   23 ar
    24   25   24 1
    25   26   18 ar
    26   27   26 1
    27   12   15 1
    28   24   26 ar
@<TRIPOS>SUBSTRUCTURE
     1 RES1 1

@<TRIPOS>CRYSIN
  14.5445    8.3832   16.2341  90.0000  90.0000  90.0000  61 1

