# MOL2 file generated by ConQuest
# Please check atom types

@<TRIPOS>MOLECULE
YAYDIN
    46    48     2
SMALL
NO_CHARGES
****
Generated from CSD

@<TRIPOS>ATOM
      1 O1         2.4357    1.6705    4.5944 O.2       1 RES1    0.0000
      2 O2        -0.2847    6.8585   -0.9181 O.2       1 RES1    0.0000
      3 O3         0.1923    7.7581    0.9660 O.2       1 RES1    0.0000
      4 O4         2.6891    5.0929    5.9669 O.2       2 RES2    0.0000
      5 O5         6.0274    0.1475   11.3611 O.2       2 RES2    0.0000
      6 O6         5.0896   -0.8652    9.7289 O.2       2 RES2    0.0000
      7 N1         1.9170    3.7436    3.6796 N.am      1 RES1    0.0000
      8 N2         1.4888    1.9407    2.4906 N.am      1 RES1    0.0000
      9 N3         0.0746    6.7791    0.2488 N.pl3     1 RES1    0.0000
     10 N4         3.3573    3.0500    6.8781 N.am      2 RES2    0.0000
     11 N5         3.7495    4.8944    8.0211 N.am      2 RES2    0.0000
     12 N6         5.3906    0.1537   10.3262 N.pl3     2 RES2    0.0000
     13 C1         2.0033    2.3846    3.6971 C.2       1 RES1    0.0000
     14 C2         1.4183    0.5427    2.1051 C.3       1 RES1    0.0000
     15 H1         1.8689    0.0034    2.7744 H         1 RES1    0.0000
     16 H2         1.8810    0.4202    1.2611 H         1 RES1    0.0000
     17 C3         0.0427    0.0896    1.9693 C.1       1 RES1    0.0000
     18 C4        -1.0716   -0.2224    1.8558 C.1       1 RES1    0.0000
     19 C5         1.0499    3.0189    1.7472 C.ar      1 RES1    0.0000
     20 C6         0.4476    3.0957    0.5106 C.ar      1 RES1    0.0000
     21 H3         0.2606    2.3313    0.0158 H         1 RES1    0.0000
     22 C7         0.1318    4.3545    0.0345 C.ar      1 RES1    0.0000
     23 H4        -0.2649    4.4493   -0.8011 H         1 RES1    0.0000
     24 C8         0.4068    5.4697    0.7995 C.ar      1 RES1    0.0000
     25 C9         1.0054    5.4175    2.0514 C.ar      1 RES1    0.0000
     26 H5         1.1783    6.1844    2.5479 H         1 RES1    0.0000
     27 C10        1.3242    4.1690    2.5080 C.ar      1 RES1    0.0000
     28 C11        3.2054    4.4114    6.8493 C.2       2 RES2    0.0000
     29 C12        3.7177    6.2975    8.3910 C.3       2 RES2    0.0000
     30 H6         3.2137    6.3970    9.2144 H         2 RES2    0.0000
     31 H7         3.2576    6.7983    7.6983 H         2 RES2    0.0000
     32 C13        5.0490    6.8545    8.5768 C.1       2 RES2    0.0000
     33 C14        6.1159    7.2805    8.7673 C.1       2 RES2    0.0000
     34 C15        4.2422    3.8426    8.7793 C.ar      2 RES2    0.0000
     35 C16        4.8739    3.8179   10.0011 C.ar      2 RES2    0.0000
     36 H8         5.0396    4.6001   10.4755 H         2 RES2    0.0000
     37 C17        5.2520    2.5822   10.4973 C.ar      2 RES2    0.0000
     38 H9         5.6841    2.5220   11.3181 H         2 RES2    0.0000
     39 C18        4.9847    1.4362    9.7650 C.ar      2 RES2    0.0000
     40 C19        4.3487    1.4393    8.5317 C.ar      2 RES2    0.0000
     41 H10        4.1779    0.6558    8.0608 H         2 RES2    0.0000
     42 C20        3.9861    2.6735    8.0504 C.ar      2 RES2    0.0000
     43 H11        2.1876    4.2851    4.4324 H         1 RES1    0.0000
     44 H12        3.1143    2.5317    6.1577 H         2 RES2    0.0000
     45 H13       -1.9652   -0.4018    1.7483 H         1 RES1    0.0000
     46 H14        6.9112    7.6425    8.8991 H         2 RES2    0.0000
@<TRIPOS>BOND
     1    1   13 2
     2    2    9 2
     3    3    9 2
     4    4   28 2
     5    5   12 2
     6    6   12 2
     7    7   13 1
     8    8   13 1
     9    9   24 1
    10   10   28 1
    11   11   28 1
    12   12   39 1
    13   14    8 1
    14   15   14 1
    15   16   14 1
    16   17   14 1
    17   18   17 3
    18   19    8 1
    19   20   19 ar
    20   21   20 1
    21   22   20 ar
    22   23   22 1
    23   24   22 ar
    24   25   24 ar
    25   26   25 1
    26   27    7 1
    27   29   11 1
    28   30   29 1
    29   31   29 1
    30   32   29 1
    31   33   32 3
    32   34   11 1
    33   35   34 ar
    34   36   35 1
    35   37   35 ar
    36   38   37 1
    37   39   37 ar
    38   40   39 ar
    39   41   40 1
    40   42   10 1
    41   43    7 1
    42   44   10 1
    43   45   18 1
    44   46   33 1
    45   19   27 ar
    46   25   27 ar
    47   34   42 ar
    48   40   42 ar
@<TRIPOS>SUBSTRUCTURE
     1 RES1 1
     2 RES2 4

@<TRIPOS>CRYSIN
   7.2541   10.0362   14.6793 100.9780  92.0470 109.0430   2 1

