# MOL2 file generated by ConQuest
# Please check atom types

@<TRIPOS>MOLECULE
YAYKIU
    84    88     2
SMALL
NO_CHARGES
****
Generated from CSD

@<TRIPOS>ATOM
      1 O1         1.4903    4.7576    2.3505 O.3       1 RES1    0.0000
      2 O2        -3.0293    3.4267    3.2479 O.3       2 RES2    0.0000
      3 N1         1.8991    3.4888    1.8663 N.2       1 RES1    0.0000
      4 N2        -3.3781    4.7455    3.6207 N.2       2 RES2    0.0000
      5 C1         1.3180    1.6003    0.4627 C.3       1 RES1    0.0000
      6 C2         1.0706    2.9709    1.0649 C.2       1 RES1    0.0000
      7 C3        -0.2870    3.4560    0.5759 C.3       1 RES1    0.0000
      8 C4        -0.7053    2.2701   -0.3121 C.3       1 RES1    0.0000
      9 C5         0.1741    2.2614   -1.5668 C.3       1 RES1    0.0000
     10 C6         1.5686    1.8886   -1.0331 C.3       1 RES1    0.0000
     11 C7        -0.1495    1.0513    0.4700 C.3       1 RES1    0.0000
     12 C8        -0.7313    0.8908    1.8716 C.3       1 RES1    0.0000
     13 C9        -0.2990   -0.2710   -0.2852 C.3       1 RES1    0.0000
     14 C10       -2.6250    6.7549    4.7726 C.3       2 RES2    0.0000
     15 C11       -2.5145    5.2928    4.3673 C.2       2 RES2    0.0000
     16 C12       -1.1674    4.7576    4.8509 C.3       2 RES2    0.0000
     17 C13       -0.6455    6.0282    5.5939 C.3       2 RES2    0.0000
     18 C14       -0.2446    7.0087    4.4922 C.3       2 RES2    0.0000
     19 C15       -1.5896    7.4938    3.9243 C.3       2 RES2    0.0000
     20 C16       -1.9324    6.7308    6.1557 C.3       2 RES2    0.0000
     21 C17       -2.6791    5.8952    7.1962 C.3       2 RES2    0.0000
     22 C18       -1.6246    8.0997    6.7506 C.3       2 RES2    0.0000
     23 C19        2.3817    0.7803    1.1567 C.3       1 RES1    0.0000
     24 C20       -0.2746    4.8457   -0.0771 C.3       1 RES1    0.0000
     25 C21       -1.6068    5.2410   -0.6659 C.ar      1 RES1    0.0000
     26 C22       -2.7248    5.4015    0.1322 C.ar      1 RES1    0.0000
     27 C23       -3.9403    5.7986   -0.4211 C.ar      1 RES1    0.0000
     28 C24       -4.0570    6.0489   -1.7381 C.ar      1 RES1    0.0000
     29 C25       -2.9489    5.8849   -2.5460 C.ar      1 RES1    0.0000
     30 C26       -1.7469    5.4999   -2.0172 C.ar      1 RES1    0.0000
     31 C27       -4.0181    7.3246    4.7517 C.3       2 RES2    0.0000
     32 C28       -1.2454    3.4336    5.6477 C.3       2 RES2    0.0000
     33 C29        0.1112    3.0175    6.1912 C.ar      2 RES2    0.0000
     34 C30        1.1899    2.6792    5.3858 C.ar      2 RES2    0.0000
     35 C31        2.3773    2.2925    5.9366 C.ar      2 RES2    0.0000
     36 C32        2.5525    2.2114    7.2439 C.ar      2 RES2    0.0000
     37 C33        1.5407    2.5169    8.0836 C.ar      2 RES2    0.0000
     38 C34        0.2794    2.9588    7.5450 C.ar      2 RES2    0.0000
     39 H1         2.2986    4.9322    2.9040 H         1 RES1    0.0000
     40 H2        -2.6557    5.1780    1.1474 H         1 RES1    0.0000
     41 H3        -4.7708    5.8804    0.2038 H         1 RES1    0.0000
     42 H4        -4.9664    6.3330   -2.1391 H         1 RES1    0.0000
     43 H5        -3.0772    6.0496   -3.5513 H         1 RES1    0.0000
     44 H6        -0.9240    5.3710   -2.6408 H         1 RES1    0.0000
     45 H7        -0.9500    3.5725    1.3626 H         1 RES1    0.0000
     46 H8        -1.6973    2.3429   -0.5851 H         1 RES1    0.0000
     47 H9         0.1958    3.2024   -2.0096 H         1 RES1    0.0000
     48 H10       -0.1592    1.5619   -2.2690 H         1 RES1    0.0000
     49 H11        2.2612    2.6512   -1.1480 H         1 RES1    0.0000
     50 H12        1.9515    1.0226   -1.5166 H         1 RES1    0.0000
     51 H13       -0.5705    1.7361    2.4223 H         1 RES1    0.0000
     52 H14       -0.2770    0.0653    2.3405 H         1 RES1    0.0000
     53 H15       -1.7586    0.6947    1.7992 H         1 RES1    0.0000
     54 H16        0.0702   -0.2030   -1.2502 H         1 RES1    0.0000
     55 H17       -1.3163   -0.5519   -0.3337 H         1 RES1    0.0000
     56 H18        0.2127   -1.0427    0.2191 H         1 RES1    0.0000
     57 H19       -3.8377    3.2019    2.7477 H         2 RES2    0.0000
     58 H20        1.0835    2.7315    4.3649 H         2 RES2    0.0000
     59 H21        3.1658    1.9876    5.3010 H         2 RES2    0.0000
     60 H22        3.4582    1.8972    7.6560 H         2 RES2    0.0000
     61 H23        1.6222    2.3987    9.1299 H         2 RES2    0.0000
     62 H24       -0.5174    3.1577    8.1956 H         2 RES2    0.0000
     63 H25       -0.5585    4.4605    4.0800 H         2 RES2    0.0000
     64 H26        0.1688    5.7665    6.2046 H         2 RES2    0.0000
     65 H27        0.3109    6.4998    3.7571 H         2 RES2    0.0000
     66 H28        0.2963    7.7841    4.8682 H         2 RES2    0.0000
     67 H29       -1.6883    7.1925    2.9241 H         2 RES2    0.0000
     68 H30       -1.6963    8.4848    4.0261 H         2 RES2    0.0000
     69 H31       -2.9484    4.9532    6.7906 H         2 RES2    0.0000
     70 H32       -3.5920    6.3879    7.4322 H         2 RES2    0.0000
     71 H33       -2.1337    5.7653    8.0403 H         2 RES2    0.0000
     72 H34       -1.1628    8.6751    6.0289 H         2 RES2    0.0000
     73 H35       -1.0120    7.9858    7.5737 H         2 RES2    0.0000
     74 H36       -2.5233    8.5444    7.0369 H         2 RES2    0.0000
     75 H37        3.2806    1.2835    1.1579 H         1 RES1    0.0000
     76 H38        2.5007   -0.1445    0.6713 H         1 RES1    0.0000
     77 H39        2.0943    0.5831    2.1511 H         1 RES1    0.0000
     78 H40        0.4442    4.8263   -0.8314 H         1 RES1    0.0000
     79 H41       -0.0085    5.5236    0.6495 H         1 RES1    0.0000
     80 H42       -4.3290    7.3712    3.7178 H         2 RES2    0.0000
     81 H43       -4.0163    8.2696    5.1247 H         2 RES2    0.0000
     82 H44       -4.6840    6.7125    5.2423 H         2 RES2    0.0000
     83 H45       -1.8985    3.5142    6.4178 H         2 RES2    0.0000
     84 H46       -1.5606    2.6723    4.9821 H         2 RES2    0.0000
@<TRIPOS>BOND
     1    1    3 1
     2    2    4 1
     3    3    6 2
     4    4   15 2
     5    5    6 1
     6    6    7 1
     7    7    8 1
     8    8    9 1
     9    9   10 1
    10   10    5 1
    11   11    5 1
    12   12   11 1
    13   13   11 1
    14   14   15 1
    15   15   16 1
    16   16   17 1
    17   17   18 1
    18   18   19 1
    19   19   14 1
    20   20   14 1
    21   21   20 1
    22   22   20 1
    23   23    5 1
    24   24    7 1
    25   25   24 1
    26   26   25 ar
    27   27   26 ar
    28   28   27 ar
    29   29   28 ar
    30   30   25 ar
    31   31   14 1
    32   32   16 1
    33   33   32 1
    34   34   33 ar
    35   35   34 ar
    36   36   35 ar
    37   37   36 ar
    38   38   33 ar
    39   39    1 1
    40   40   26 1
    41   41   27 1
    42   42   28 1
    43   43   29 1
    44   44   30 1
    45   45    7 1
    46   46    8 1
    47   47    9 1
    48   48    9 1
    49   49   10 1
    50   50   10 1
    51   51   12 1
    52   52   12 1
    53   53   12 1
    54   54   13 1
    55   55   13 1
    56   56   13 1
    57   57    2 1
    58   58   34 1
    59   59   35 1
    60   60   36 1
    61   61   37 1
    62   62   38 1
    63   63   16 1
    64   64   17 1
    65   65   18 1
    66   66   18 1
    67   67   19 1
    68   68   19 1
    69   69   21 1
    70   70   21 1
    71   71   21 1
    72   72   22 1
    73   73   22 1
    74   74   22 1
    75   75   23 1
    76   76   23 1
    77   77   23 1
    78   78   24 1
    79   79   24 1
    80   80   31 1
    81   81   31 1
    82   82   31 1
    83   83   32 1
    84   84   32 1
    85    8   11 1
    86   17   20 1
    87   29   30 ar
    88   37   38 ar
@<TRIPOS>SUBSTRUCTURE
     1 RES1 1
     2 RES2 2

@<TRIPOS>CRYSIN
   7.3685   17.2628   12.6524  90.0000 104.6607  90.0000   4 1

