# MOL2 file generated by ConQuest
# Please check atom types

@<TRIPOS>MOLECULE
YAZROJ
    65    68     1
SMALL
NO_CHARGES
****
Generated from CSD

@<TRIPOS>ATOM
      1 C1        -4.8385    2.8952   12.1885 C.ar      1 RES1    0.0000
      2 H1        -4.1921    3.5581   12.0984 H         1 RES1    0.0000
      3 C2        -6.0331    3.0390   11.5172 C.ar      1 RES1    0.0000
      4 H2        -6.1834    3.7667   10.9598 H         1 RES1    0.0000
      5 C3        -6.9784    2.0859   11.6888 C.ar      1 RES1    0.0000
      6 C4        -6.7789    1.0370   12.4910 C.ar      1 RES1    0.0000
      7 H3        -7.4530    0.4082   12.6082 H         1 RES1    0.0000
      8 C5        -5.5340    0.8751   13.1724 C.ar      1 RES1    0.0000
      9 H4        -5.3826    0.1469   13.7282 H         1 RES1    0.0000
     10 C6        -4.5717    1.8246   12.9821 C.ar      1 RES1    0.0000
     11 C7        -3.2081    1.6754   13.6721 C.3       1 RES1    0.0000
     12 H5        -3.1985    0.8314   14.1700 H         1 RES1    0.0000
     13 C8        -2.9430    2.8094   14.6323 C.2       1 RES1    0.0000
     14 C9        -3.8514    2.9515   15.7199 C.1       1 RES1    0.0000
     15 C10       -1.9129    3.6420   14.4844 C.2       1 RES1    0.0000
     16 C11       -2.1243    1.6310   12.6014 C.2       1 RES1    0.0000
     17 C12       -2.2986    0.5485   11.6208 C.2       1 RES1    0.0000
     18 C13       -2.1079   -0.1139    9.3572 C.3       1 RES1    0.0000
     19 H6        -1.5060    0.0683    8.6179 H         1 RES1    0.0000
     20 H7        -1.8981   -0.9950    9.7073 H         1 RES1    0.0000
     21 C14       -3.4736   -0.0959    8.8864 C.3       1 RES1    0.0000
     22 H8        -4.0600    0.1289    9.6138 H         1 RES1    0.0000
     23 H9        -3.7081   -0.9585    8.5414 H         1 RES1    0.0000
     24 H10       -3.5622    0.5628    8.1913 H         1 RES1    0.0000
     25 C15       -1.1219    2.5229   12.5538 C.2       1 RES1    0.0000
     26 C16       -0.0673    2.5295   11.4696 C.2       1 RES1    0.0000
     27 C17        1.9283    1.4086   10.6861 C.3       1 RES1    0.0000
     28 H11        2.1179    2.2969   10.3395 H         1 RES1    0.0000
     29 H12        2.7031    1.1065   11.1841 H         1 RES1    0.0000
     30 C18        1.6717    0.5575    9.6648 C.3       1 RES1    0.0000
     31 H13        1.2827   -0.2470   10.0115 H         1 RES1    0.0000
     32 H14        2.4871    0.3495    9.2093 H         1 RES1    0.0000
     33 H15        1.0580    0.9716    9.0513 H         1 RES1    0.0000
     34 C19       -0.4760    5.4067   14.7291 C.2       1 RES1    0.0000
     35 C20        0.0273    4.5951   13.5395 C.3       1 RES1    0.0000
     36 H16       -0.0651    5.1333   12.7255 H         1 RES1    0.0000
     37 C21        1.4904    4.2019   13.7078 C.3       1 RES1    0.0000
     38 H17        1.7825    3.7289   12.9124 H         1 RES1    0.0000
     39 H18        2.0263    5.0057   13.7859 H         1 RES1    0.0000
     40 C22        1.7358    3.3687   14.8549 C.3       1 RES1    0.0000
     41 H19        1.2380    2.5421   14.7546 H         1 RES1    0.0000
     42 H20        1.4038    3.8200   15.6451 H         1 RES1    0.0000
     43 C23        3.2057    3.0390   15.0554 C.ar      1 RES1    0.0000
     44 C24        4.1342    3.9561   15.5058 C.ar      1 RES1    0.0000
     45 H21        3.8115    4.8217   15.6298 H         1 RES1    0.0000
     46 C25        5.4767    3.7823   15.7981 C.ar      1 RES1    0.0000
     47 H22        6.0647    4.4698   16.0258 H         1 RES1    0.0000
     48 C26        5.8218    2.4516   15.7029 C.ar      1 RES1    0.0000
     49 H23        6.6332    2.1962   16.0819 H         1 RES1    0.0000
     50 C27        5.0750    1.4566   15.0996 C.ar      1 RES1    0.0000
     51 H24        5.4397    0.6378   14.8566 H         1 RES1    0.0000
     52 C28        3.7364    1.7743   14.8787 C.ar      1 RES1    0.0000
     53 H25        3.1663    1.0921   14.5966 H         1 RES1    0.0000
     54 N1        -8.2726    2.1938   11.0345 N.pl3     1 RES1    0.0000
     55 N2        -4.6058    3.0042   16.5781 N.1       1 RES1    0.0000
     56 N3        -0.9576    3.5137   13.5072 N.3       1 RES1    0.0000
     57 N4        -1.5745    4.7617   15.2152 N.am      1 RES1    0.0000
     58 H26       -2.0093    5.0255   15.9069 H         1 RES1    0.0000
     59 O1        -8.3950    3.1169   10.2341 O.2       1 RES1    0.0000
     60 O2        -9.1156    1.4086   11.1892 O.2       1 RES1    0.0000
     61 O3         0.0098    6.4203   15.1506 O.2       1 RES1    0.0000
     62 O4        -2.7587   -0.5131   11.9216 O.2       1 RES1    0.0000
     63 O5        -1.9244    0.8853   10.4006 O.3       1 RES1    0.0000
     64 O6         0.0853    3.4124   10.6946 O.2       1 RES1    0.0000
     65 O7         0.7147    1.4578   11.5936 O.3       1 RES1    0.0000
@<TRIPOS>BOND
     1    1    2 1
     2    3    1 ar
     3    4    3 1
     4    5    3 ar
     5    6    5 ar
     6    7    6 1
     7    8    6 ar
     8    9    8 1
     9   10    1 ar
    10   11   10 1
    11   12   11 1
    12   13   11 1
    13   14   13 1
    14   15   13 2
    15   16   11 1
    16   17   16 1
    17   18   19 1
    18   20   18 1
    19   21   18 1
    20   22   21 1
    21   23   21 1
    22   24   21 1
    23   25   16 2
    24   26   25 1
    25   27   28 1
    26   29   27 1
    27   30   27 1
    28   31   30 1
    29   32   30 1
    30   33   30 1
    31   34   35 1
    32   35   36 1
    33   37   35 1
    34   38   37 1
    35   39   37 1
    36   40   37 1
    37   41   40 1
    38   42   40 1
    39   43   40 1
    40   44   43 ar
    41   45   44 1
    42   46   44 ar
    43   47   46 1
    44   48   46 ar
    45   49   48 1
    46   50   48 ar
    47   51   50 1
    48   52   43 ar
    49   53   52 1
    50   54    5 1
    51   55   14 3
    52   56   15 1
    53   57   15 1
    54   58   57 1
    55   59   54 2
    56   60   54 2
    57   61   34 2
    58   62   17 2
    59   63   17 1
    60   64   26 2
    61   65   26 1
    62    8   10 ar
    63   18   63 1
    64   25   56 1
    65   27   65 1
    66   34   57 1
    67   35   56 1
    68   50   52 ar
@<TRIPOS>SUBSTRUCTURE
     1 RES1 1

@<TRIPOS>CRYSIN
  26.9454    5.9941   20.0378  90.0000 121.9920  90.0000   5 1

