# MOL2 file generated by ConQuest
# Please check atom types

@<TRIPOS>MOLECULE
YAZSUQ
    60    61     1
SMALL
NO_CHARGES
****
Generated from CSD

@<TRIPOS>ATOM
      1 C1         2.9194   -0.8729    4.5456 C.ar      1 RES1    0.0000
      2 H1         3.2370   -0.5198    3.7458 H         1 RES1    0.0000
      3 C2         3.7792   -1.4996    5.4287 C.ar      1 RES1    0.0000
      4 C3         3.3614   -2.0340    6.6331 C.ar      1 RES1    0.0000
      5 H2         3.9636   -2.4452    7.2089 H         1 RES1    0.0000
      6 C4         2.0229   -1.9377    6.9552 C.ar      1 RES1    0.0000
      7 H3         1.7148   -2.2890    7.7596 H         1 RES1    0.0000
      8 C5         1.1388   -1.3220    6.0921 C.ar      1 RES1    0.0000
      9 H4         0.2392   -1.2652    6.3216 H         1 RES1    0.0000
     10 C6         1.5746   -0.7809    4.8747 C.ar      1 RES1    0.0000
     11 C7         0.5813   -0.0853    3.9723 C.3       1 RES1    0.0000
     12 H5        -0.3084   -0.4315    4.1930 H         1 RES1    0.0000
     13 C8         0.5349    1.4653    4.1402 C.3       1 RES1    0.0000
     14 C9         1.8916    2.0155    4.2936 C.1       1 RES1    0.0000
     15 C10       -0.3589    1.8663    5.3273 C.2       1 RES1    0.0000
     16 C11       -0.8683    3.5515    6.8840 C.3       1 RES1    0.0000
     17 H6        -1.5835    4.0207    6.4265 H         1 RES1    0.0000
     18 H7        -1.2677    2.8320    7.3983 H         1 RES1    0.0000
     19 C12       -0.2406    4.4280    7.7509 C.3       1 RES1    0.0000
     20 H8         0.3887    3.9470    8.2928 H         1 RES1    0.0000
     21 H9        -0.8964    4.8443    8.3161 H         1 RES1    0.0000
     22 H10        0.2207    5.1020    7.2468 H         1 RES1    0.0000
     23 C13       -0.0528    1.9154    2.7348 C.3       1 RES1    0.0000
     24 C14        0.3194    3.3665    2.4076 C.2       1 RES1    0.0000
     25 C15       -0.1703    5.6129    2.9197 C.3       1 RES1    0.0000
     26 H11        0.6988    5.8099    3.2752 H         1 RES1    0.0000
     27 H12       -0.8310    6.1379    3.3772 H         1 RES1    0.0000
     28 H13       -0.1879    5.8233    1.9829 H         1 RES1    0.0000
     29 C16       -1.5870    1.7257    2.7078 C.3       1 RES1    0.0000
     30 H14       -1.7983    0.8186    2.9809 H         1 RES1    0.0000
     31 H15       -1.9924    2.3310    3.3480 H         1 RES1    0.0000
     32 C17       -2.1781    1.9799    1.3485 C.2       1 RES1    0.0000
     33 C18       -4.2143    1.8899    0.1573 C.3       1 RES1    0.0000
     34 H16       -4.1542    2.8252   -0.0510 H         1 RES1    0.0000
     35 H17       -5.1330    1.6525    0.3030 H         1 RES1    0.0000
     36 H18       -3.8631    1.3763   -0.5726 H         1 RES1    0.0000
     37 C19        0.7927   -0.2879    2.4473 C.3       1 RES1    0.0000
     38 H19        1.6940   -0.6420    2.2961 H         1 RES1    0.0000
     39 C20       -0.2272   -1.2808    1.8947 C.2       1 RES1    0.0000
     40 C21       -0.9497   -3.5249    1.9421 C.3       1 RES1    0.0000
     41 H20       -1.8688   -3.2363    2.0528 H         1 RES1    0.0000
     42 H21       -0.7965   -3.7049    1.0024 H         1 RES1    0.0000
     43 C22       -0.7129   -4.7021    2.7099 C.3       1 RES1    0.0000
     44 H22        0.2114   -4.9510    2.6370 H         1 RES1    0.0000
     45 H23       -1.2627   -5.4155    2.3777 H         1 RES1    0.0000
     46 H24       -0.9270   -4.5329    3.6292 H         1 RES1    0.0000
     47 N1         5.1947   -1.5808    5.0681 N.pl3     1 RES1    0.0000
     48 N2         2.9538    2.3945    4.4448 N.1       1 RES1    0.0000
     49 N3         0.7122    1.0351    1.8840 N.3       1 RES1    0.0000
     50 O1         5.5258   -1.3118    3.9228 O.2       1 RES1    0.0000
     51 O2         5.9892   -1.9108    5.9339 O.2       1 RES1    0.0000
     52 O3        -1.3165    1.2416    5.6631 O.2       1 RES1    0.0000
     53 O4         0.0382    2.9782    5.8889 O.3       1 RES1    0.0000
     54 O5         1.1903    3.7052    1.6679 O.2       1 RES1    0.0000
     55 O6        -0.4603    4.2047    3.1038 O.3       1 RES1    0.0000
     56 O7        -1.6095    2.4496    0.4074 O.2       1 RES1    0.0000
     57 O8        -3.4563    1.6156    1.3424 O.3       1 RES1    0.0000
     58 O9        -1.0766   -0.9984    1.1004 O.2       1 RES1    0.0000
     59 O10       -0.0357   -2.4780    2.4083 O.3       1 RES1    0.0000
     60 H25        0.5362    1.1103    0.9761 H         1 RES1    0.0000
@<TRIPOS>BOND
     1    1    2 1
     2    3    1 ar
     3    4    3 ar
     4    5    4 1
     5    6    4 ar
     6    7    6 1
     7    8    6 ar
     8    9    8 1
     9   10    1 ar
    10   11   10 1
    11   12   11 1
    12   13   11 1
    13   14   13 1
    14   15   13 1
    15   16   17 1
    16   18   16 1
    17   19   16 1
    18   20   19 1
    19   21   19 1
    20   22   19 1
    21   23   13 1
    22   24   23 1
    23   25   26 1
    24   27   25 1
    25   28   25 1
    26   29   23 1
    27   30   29 1
    28   31   29 1
    29   32   29 1
    30   33   34 1
    31   35   33 1
    32   36   33 1
    33   37   11 1
    34   38   37 1
    35   39   37 1
    36   40   41 1
    37   42   40 1
    38   43   40 1
    39   44   43 1
    40   45   43 1
    41   46   43 1
    42   47    3 1
    43   48   14 3
    44   49   23 1
    45   50   47 2
    46   51   47 2
    47   52   15 2
    48   53   15 1
    49   54   24 2
    50   55   24 1
    51   56   32 2
    52   57   32 1
    53   58   39 2
    54   59   39 1
    55   60   49 1
    56    8   10 ar
    57   16   53 1
    58   25   55 1
    59   33   57 1
    60   37   49 1
    61   40   59 1
@<TRIPOS>SUBSTRUCTURE
     1 RES1 1

@<TRIPOS>CRYSIN
   8.2529   10.4792   14.7240  90.6800  97.6610 108.0730   2 1

