# MOL2 file generated by ConQuest
# Please check atom types

@<TRIPOS>MOLECULE
YAZZEH
    51    56     1
SMALL
NO_CHARGES
****
Generated from CSD

@<TRIPOS>ATOM
      1 C1         3.5168    7.9345    2.2509 C.ar      1 RES1    0.0000
      2 N1         1.8779    8.0471    0.4924 N.ar      1 RES1    0.0000
      3 N2         4.1000    6.8327    1.8523 N.ar      1 RES1    0.0000
      4 N3         2.0199   10.9434    1.3659 N.3       1 RES1    0.0000
      5 C2         2.4933    6.9091    0.0124 C.ar      1 RES1    0.0000
      6 C3         3.5787    6.3086    0.6864 C.ar      1 RES1    0.0000
      7 C4         1.9742    9.7969    2.2807 C.3       1 RES1    0.0000
      8 C5         2.9601    9.8380    3.4589 C.ar      1 RES1    0.0000
      9 C6         4.9243    8.6803    4.2872 C.ar      1 RES1    0.0000
     10 H1         5.5280    7.9742    4.2354 H         1 RES1    0.0000
     11 C7         3.8660    8.7814    3.3935 C.ar      1 RES1    0.0000
     12 C8         2.4119    8.5260    1.5831 C.ar      1 RES1    0.0000
     13 C9         4.1668    5.1577    0.1400 C.ar      1 RES1    0.0000
     14 H2         4.8658    4.7378    0.5873 H         1 RES1    0.0000
     15 C10        2.0430    6.3522   -1.1955 C.ar      1 RES1    0.0000
     16 H3         1.3190    6.7297   -1.6403 H         1 RES1    0.0000
     17 C11        0.1167   11.3461    2.7469 C.3       1 RES1    0.0000
     18 H4         0.1531   11.6032    3.6915 H         1 RES1    0.0000
     19 C12       -1.2488   11.6841    2.2004 C.ar      1 RES1    0.0000
     20 O1         0.5004    7.8553    3.8013 O.2       1 RES1    0.0000
     21 C13        2.6685    5.2586   -1.7143 C.ar      1 RES1    0.0000
     22 H5         2.3869    4.9138   -2.5299 H         1 RES1    0.0000
     23 C14        0.4773    9.8571    2.6224 C.3       1 RES1    0.0000
     24 N4         0.1541    9.0217    3.8270 N.pl3     1 RES1    0.0000
     25 C15        1.2793   12.0348    1.9960 C.3       1 RES1    0.0000
     26 H6         0.9399   12.6502    1.3279 H         1 RES1    0.0000
     27 H7         1.8459   12.5239    2.6138 H         1 RES1    0.0000
     28 C16        3.0892   10.7894    4.4602 C.ar      1 RES1    0.0000
     29 H8         2.4771   11.4849    4.5348 H         1 RES1    0.0000
     30 O2        -0.4383    9.5061    4.7545 O.2       1 RES1    0.0000
     31 C17        4.1481   10.6826    5.3480 C.ar      1 RES1    0.0000
     32 H9         4.2458   11.3182    6.0204 H         1 RES1    0.0000
     33 C18        3.7199    4.6530   -1.0413 C.ar      1 RES1    0.0000
     34 H10        4.1222    3.8951   -1.4017 H         1 RES1    0.0000
     35 C19       -1.4833   11.6810    0.8407 C.ar      1 RES1    0.0000
     36 H11       -0.8011   11.4325    0.2604 H         1 RES1    0.0000
     37 C20        5.0567    9.6542    5.2537 C.ar      1 RES1    0.0000
     38 H12        5.7695    9.6153    5.8497 H         1 RES1    0.0000
     39 C21       -2.7137   12.0404    0.3273 C.ar      1 RES1    0.0000
     40 H13       -2.8539   12.0360   -0.5916 H         1 RES1    0.0000
     41 C22        3.3462   11.3169    0.8876 C.3       1 RES1    0.0000
     42 H14        3.8663   11.6556    1.6201 H         1 RES1    0.0000
     43 H15        3.2643   11.9956    0.2126 H         1 RES1    0.0000
     44 H16        3.7806   10.5468    0.5150 H         1 RES1    0.0000
     45 C23       -3.7198   12.4002    1.1670 C.ar      1 RES1    0.0000
     46 H17       -4.5448   12.6542    0.8216 H         1 RES1    0.0000
     47 C24       -2.2918   12.0329    3.0315 C.ar      1 RES1    0.0000
     48 H18       -2.1662   12.0279    3.9533 H         1 RES1    0.0000
     49 C25       -3.5206   12.3892    2.5119 C.ar      1 RES1    0.0000
     50 H19       -4.2153   12.6233    3.0840 H         1 RES1    0.0000
     51 H20        0.0067    9.4030    1.8949 H         1 RES1    0.0000
@<TRIPOS>BOND
     1    1    3 ar
     2    2    5 ar
     3    3    6 ar
     4    4    7 1
     5    5    6 ar
     6    6   13 ar
     7    7    8 1
     8    8   11 ar
     9    9   10 1
    10   11    1 1
    11   12    1 ar
    12   13   14 1
    13   15    5 ar
    14   16   15 1
    15   17   18 1
    16   19   17 1
    17   20   24 2
    18   21   15 ar
    19   22   21 1
    20   23    7 1
    21   24   23 1
    22   25    4 1
    23   26   25 1
    24   27   25 1
    25   28    8 ar
    26   29   28 1
    27   30   24 2
    28   31   28 ar
    29   32   31 1
    30   33   13 ar
    31   34   33 1
    32   35   19 ar
    33   36   35 1
    34   37    9 ar
    35   38   37 1
    36   39   35 ar
    37   40   39 1
    38   41    4 1
    39   42   41 1
    40   43   41 1
    41   44   41 1
    42   45   39 ar
    43   46   45 1
    44   47   19 ar
    45   48   47 1
    46   49   45 ar
    47   50   49 1
    48   51   23 1
    49    2   12 ar
    50    7   12 1
    51    9   11 ar
    52   17   23 1
    53   17   25 1
    54   21   33 ar
    55   31   37 ar
    56   47   49 ar
@<TRIPOS>SUBSTRUCTURE
     1 RES1 1

@<TRIPOS>CRYSIN
  10.5204   13.4405   14.5299  90.0000  95.4130  90.0000 231 1

