# MOL2 file generated by ConQuest
# Please check atom types

@<TRIPOS>MOLECULE
YEBDOA
    35    36     1
SMALL
NO_CHARGES
****
Generated from CSD

@<TRIPOS>ATOM
      1 C1        10.0793    4.2211    5.1475 C.ar      1 RES1    0.0000
      2 C2        10.9206    3.5103    5.9878 C.ar      1 RES1    0.0000
      3 H1        10.7679    3.5228    6.9046 H         1 RES1    0.0000
      4 C3        11.9807    2.7851    5.4868 C.ar      1 RES1    0.0000
      5 H2        12.5261    2.3057    6.0683 H         1 RES1    0.0000
      6 C4        12.2357    2.7645    4.1552 C.ar      1 RES1    0.0000
      7 H3        12.9478    2.2663    3.8238 H         1 RES1    0.0000
      8 C5        11.4316    3.4892    3.2926 C.ar      1 RES1    0.0000
      9 H4        11.6080    3.4912    2.3797 H         1 RES1    0.0000
     10 C6        10.3599    4.2116    3.7980 C.ar      1 RES1    0.0000
     11 H5         9.8215    4.6978    3.2160 H         1 RES1    0.0000
     12 C7         8.9318    5.0313    5.7058 C.3       1 RES1    0.0000
     13 H6         9.2697    5.9139    5.9654 H         1 RES1    0.0000
     14 C8         8.2370    4.4071    6.9062 C.3       1 RES1    0.0000
     15 H7         7.8609    3.5612    6.6534 H         1 RES1    0.0000
     16 H8         7.5375    4.9905    7.2109 H         1 RES1    0.0000
     17 H9         8.8744    4.2754    7.6117 H         1 RES1    0.0000
     18 C9         7.4856    6.3757    4.3501 C.2       1 RES1    0.0000
     19 C10        6.4142    6.4464    3.3592 C.2       1 RES1    0.0000
     20 H10        6.0556    5.6701    2.9935 H         1 RES1    0.0000
     21 C11        8.0042    7.6589    4.9118 C.ar      1 RES1    0.0000
     22 C12        7.3867    8.2602    5.9727 C.ar      1 RES1    0.0000
     23 H11        6.6345    7.8673    6.3519 H         1 RES1    0.0000
     24 C13        7.8728    9.4474    6.4854 C.ar      1 RES1    0.0000
     25 H12        7.4499    9.8486    7.2097 H         1 RES1    0.0000
     26 C14        8.9626   10.0274    5.9354 C.ar      1 RES1    0.0000
     27 H13        9.2943   10.8200    6.2909 H         1 RES1    0.0000
     28 C15        9.5773    9.4556    4.8620 C.ar      1 RES1    0.0000
     29 H14       10.3186    9.8649    4.4783 H         1 RES1    0.0000
     30 C16        9.0959    8.2616    4.3420 C.ar      1 RES1    0.0000
     31 H15        9.5136    7.8712    3.6084 H         1 RES1    0.0000
     32 N1         7.9037    5.2097    4.6710 N.2       1 RES1    0.0000
     33 N2         5.9788    7.5906    3.0038 N.2       1 RES1    0.0000
     34 O1         4.9755    7.4769    2.0606 O.3       1 RES1    0.0000
     35 H16        4.7849    8.3127    1.8413 H         1 RES1    0.0000
@<TRIPOS>BOND
     1    1    2 ar
     2    2    3 1
     3    4    2 ar
     4    5    4 1
     5    6    4 ar
     6    7    6 1
     7    8    6 ar
     8    9    8 1
     9   10    1 ar
    10   11   10 1
    11   12    1 1
    12   13   12 1
    13   14   12 1
    14   15   14 1
    15   16   14 1
    16   17   14 1
    17   18   19 1
    18   19   20 1
    19   21   18 1
    20   22   21 ar
    21   23   22 1
    22   24   22 ar
    23   25   24 1
    24   26   24 ar
    25   27   26 1
    26   28   26 ar
    27   29   28 1
    28   30   21 ar
    29   31   30 1
    30   32   12 1
    31   33   19 2
    32   34   33 1
    33   35   34 1
    34    8   10 ar
    35   18   32 2
    36   28   30 ar
@<TRIPOS>SUBSTRUCTURE
     1 RES1 1

@<TRIPOS>CRYSIN
  12.3416    9.5990   11.9750  90.0000  92.4170  90.0000  14 1

