# MOL2 file generated by ConQuest
# Please check atom types

@<TRIPOS>MOLECULE
YEBFEQ
    54    57     1
SMALL
NO_CHARGES
****
Generated from CSD

@<TRIPOS>ATOM
      1 O1         3.6043    2.5747    5.6927 O.3       1 RES1    0.0000
      2 O2         4.4018    1.2377    7.3233 O.2       1 RES1    0.0000
      3 O3         5.4324    1.4845    3.8158 O.2       1 RES1    0.0000
      4 O4         4.8529    2.5076    1.0256 O.3       1 RES1    0.0000
      5 O5         7.0579    2.5054    1.7970 O.3       1 RES1    0.0000
      6 O6        -0.3984   -1.5217    3.1000 O.2       1 RES1    0.0000
      7 O7         1.4441   -0.6494    2.4184 O.2       1 RES1    0.0000
      8 O8        -1.0874   -2.0304    7.8297 O.2       1 RES1    0.0000
      9 O9         0.0203   -0.8223    9.2145 O.2       1 RES1    0.0000
     10 N1         0.6491   -0.9214    3.2896 N.pl3     1 RES1    0.0000
     11 N2        -0.2124   -1.2248    8.0903 N.pl3     1 RES1    0.0000
     12 C1         5.4228    2.6277    3.4239 C.2       1 RES1    0.0000
     13 C2         5.7600    3.0214    1.9646 C.3       1 RES1    0.0000
     14 C3         5.6532    4.5511    1.8670 C.3       1 RES1    0.0000
     15 C4         6.6725    5.1786    2.8377 C.3       1 RES1    0.0000
     16 C5         6.3932    4.7228    4.2871 C.3       1 RES1    0.0000
     17 C6         6.2173    5.8872    5.2575 C.3       1 RES1    0.0000
     18 C7         5.8662    5.4472    6.6675 C.3       1 RES1    0.0000
     19 C8         4.6164    4.5719    6.6819 C.3       1 RES1    0.0000
     20 C9         4.8174    3.4026    5.7485 C.3       1 RES1    0.0000
     21 C10        5.1074    3.8211    4.3163 C.3       1 RES1    0.0000
     22 C11        4.0026    4.5603    3.5964 C.2       1 RES1    0.0000
     23 C12        4.2806    4.9267    2.3596 C.2       1 RES1    0.0000
     24 C13        3.5816    1.4994    6.4835 C.2       1 RES1    0.0000
     25 C14        2.4014    0.6310    6.1919 C.ar      1 RES1    0.0000
     26 C15        1.6927    0.0855    7.2573 C.ar      1 RES1    0.0000
     27 C16        0.5971   -0.7052    6.9738 C.ar      1 RES1    0.0000
     28 C17        0.2216   -1.0320    5.6928 C.ar      1 RES1    0.0000
     29 C18        0.9838   -0.5219    4.6677 C.ar      1 RES1    0.0000
     30 C19        2.0472    0.3353    4.8823 C.ar      1 RES1    0.0000
     31 C20        4.7170    1.0785    0.9727 C.3       1 RES1    0.0000
     32 C21        7.6329    2.6767    0.4970 C.3       1 RES1    0.0000
     33 H1         5.8183    4.8325    0.9263 H         1 RES1    0.0000
     34 H2         7.5984    4.9058    2.5041 H         1 RES1    0.0000
     35 H3         6.5993    6.1813    2.7370 H         1 RES1    0.0000
     36 H4         7.1518    4.1741    4.5459 H         1 RES1    0.0000
     37 H5         5.5153    6.4894    4.8523 H         1 RES1    0.0000
     38 H6         6.9973    6.4660    5.2393 H         1 RES1    0.0000
     39 H7         6.6291    4.9314    7.0114 H         1 RES1    0.0000
     40 H8         5.7431    6.2105    7.2198 H         1 RES1    0.0000
     41 H9         3.7747    5.1125    6.3723 H         1 RES1    0.0000
     42 H10        4.4138    4.2480    7.5350 H         1 RES1    0.0000
     43 H11        5.5468    2.7789    6.0150 H         1 RES1    0.0000
     44 H12        3.2010    4.7111    4.0363 H         1 RES1    0.0000
     45 H13        3.6444    5.4053    1.7546 H         1 RES1    0.0000
     46 H14        1.9350    0.2825    8.1321 H         1 RES1    0.0000
     47 H15       -0.5870   -1.5790    5.4477 H         1 RES1    0.0000
     48 H16        2.5482    0.6817    4.1379 H         1 RES1    0.0000
     49 H17        5.5536    0.6550    1.0892 H         1 RES1    0.0000
     50 H18        4.2600    0.9013    0.0911 H         1 RES1    0.0000
     51 H19        4.1243    0.7820    1.6495 H         1 RES1    0.0000
     52 H20        7.0453    2.3120   -0.2224 H         1 RES1    0.0000
     53 H21        8.4938    2.4544    0.5498 H         1 RES1    0.0000
     54 H22        7.5674    3.6355    0.2206 H         1 RES1    0.0000
@<TRIPOS>BOND
     1    1   20 1
     2    2   24 2
     3    3   12 2
     4    4   13 1
     5    5   13 1
     6    6   10 2
     7    7   10 2
     8    8   11 2
     9    9   11 2
    10   10   29 1
    11   11   27 1
    12   12   13 1
    13   13   14 1
    14   14   15 1
    15   15   16 1
    16   16   17 1
    17   17   18 1
    18   18   19 1
    19   19   20 1
    20   20   21 1
    21   21   12 1
    22   22   21 1
    23   23   14 1
    24   24    1 1
    25   25   24 1
    26   26   25 ar
    27   27   26 ar
    28   28   27 ar
    29   29   28 ar
    30   30   25 ar
    31   31    4 1
    32   32    5 1
    33   33   14 1
    34   34   15 1
    35   35   15 1
    36   36   16 1
    37   37   17 1
    38   38   17 1
    39   39   18 1
    40   40   18 1
    41   41   19 1
    42   42   19 1
    43   43   20 1
    44   44   22 1
    45   45   23 1
    46   46   26 1
    47   47   28 1
    48   48   30 1
    49   49   31 1
    50   50   31 1
    51   51   31 1
    52   52   32 1
    53   53   32 1
    54   54   32 1
    55   16   21 1
    56   22   23 2
    57   29   30 ar
@<TRIPOS>SUBSTRUCTURE
     1 RES1 1

@<TRIPOS>CRYSIN
   6.3649    9.8499   17.6830  82.1900  85.9730  72.0600   2 1

