# MOL2 file generated by ConQuest
# Please check atom types

@<TRIPOS>MOLECULE
YEBQAX
   102   108     2
SMALL
NO_CHARGES
****
Generated from CSD

@<TRIPOS>ATOM
      1 O1         0.5872    1.8225   -2.5676 O.2       1 RES1    0.0000
      2 O2         3.0820    3.3700   -2.0403 O.3       1 RES1    0.0000
      3 O3         1.1035    4.5898   -2.2918 O.3       1 RES1    0.0000
      4 O4         2.8123    5.8703    1.3223 O.3       1 RES1    0.0000
      5 O5         3.5076    7.7142    0.2406 O.2       1 RES1    0.0000
      6 O6         2.8540   12.0104    2.5432 O.2       1 RES1    0.0000
      7 O7         1.8648   12.0937    4.4654 O.2       1 RES1    0.0000
      8 O8         0.3832    8.0283    6.5759 O.2       1 RES1    0.0000
      9 O9         0.5221    6.1747    5.5046 O.2       1 RES1    0.0000
     10 C1         2.0022    4.0355   -0.0181 C.3       1 RES1    0.0000
     11 C2         3.1892    4.9875    0.2118 C.3       1 RES1    0.0000
     12 H1         3.4001    5.4994   -0.5971 H         1 RES1    0.0000
     13 C3         4.3788    4.1160    0.6531 C.3       1 RES1    0.0000
     14 H2         5.1171    4.2217    0.0341 H         1 RES1    0.0000
     15 H3         4.6787    4.3839    1.5356 H         1 RES1    0.0000
     16 C4         3.9182    2.6673    0.6747 C.3       1 RES1    0.0000
     17 H4         4.1334    2.2171   -0.1571 H         1 RES1    0.0000
     18 H5         4.3190    2.1806    1.4126 H         1 RES1    0.0000
     19 C5         2.4145    2.8031    0.8556 C.3       1 RES1    0.0000
     20 H6         2.2749    3.0697    1.7880 H         1 RES1    0.0000
     21 C6         1.4885    1.6198    0.6116 C.3       1 RES1    0.0000
     22 H7         1.2013    1.2425    1.4586 H         1 RES1    0.0000
     23 H8         1.9557    0.9306    0.1125 H         1 RES1    0.0000
     24 C7         0.2535    2.1152   -0.1970 C.3       1 RES1    0.0000
     25 H9        -0.4499    1.4336   -0.2473 H         1 RES1    0.0000
     26 C8         0.8352    2.4321   -1.5530 C.2       1 RES1    0.0000
     27 C9         1.8093    3.6407   -1.5219 C.3       1 RES1    0.0000
     28 C10        0.6134    4.4002    0.4539 C.2       1 RES1    0.0000
     29 H10        0.3924    5.2466    0.7714 H         1 RES1    0.0000
     30 C11       -0.2576    3.4130    0.3758 C.2       1 RES1    0.0000
     31 H11       -1.1382    3.5124    0.6579 H         1 RES1    0.0000
     32 C12        3.1705    3.0421   -3.4369 C.3       1 RES1    0.0000
     33 H12        4.0873    2.8798   -3.6700 H         1 RES1    0.0000
     34 H13        2.8324    3.7740   -3.9592 H         1 RES1    0.0000
     35 H14        2.6505    2.2548   -3.6145 H         1 RES1    0.0000
     36 C13        1.7109    5.8590   -2.5293 C.3       1 RES1    0.0000
     37 H15        1.1239    6.3998   -3.0624 H         1 RES1    0.0000
     38 H16        2.5413    5.7333   -2.9928 H         1 RES1    0.0000
     39 H17        1.8752    6.2954   -1.6897 H         1 RES1    0.0000
     40 C14        3.0032    7.1858    1.1902 C.2       1 RES1    0.0000
     41 C15        2.5124    7.9277    2.3941 C.ar      1 RES1    0.0000
     42 C16        2.6492    9.3136    2.4024 C.ar      1 RES1    0.0000
     43 H18        3.0504    9.7562    1.6892 H         1 RES1    0.0000
     44 C17        2.1756   10.0203    3.4948 C.ar      1 RES1    0.0000
     45 C18        1.5475    9.4167    4.5619 C.ar      1 RES1    0.0000
     46 H19        1.2231    9.9097    5.2806 H         1 RES1    0.0000
     47 C19        1.4247    8.0472    4.5099 C.ar      1 RES1    0.0000
     48 C20        1.9011    7.2876    3.4576 C.ar      1 RES1    0.0000
     49 H20        1.8125    6.3608    3.4643 H         1 RES1    0.0000
     50 N1         2.3039   11.4854    3.4948 N.pl3     1 RES1    0.0000
     51 N2         0.7212    7.3681    5.6089 N.pl3     1 RES1    0.0000
     52 O10        9.0272   10.7785    2.1619 O.2       2 RES2    0.0000
     53 O11       11.1857    9.2898    3.5773 O.3       2 RES2    0.0000
     54 O12        9.5981    8.0163    2.4225 O.3       2 RES2    0.0000
     55 O13       13.3603    6.7044    1.0474 O.3       2 RES2    0.0000
     56 O14       13.0078    4.8756    2.3125 O.2       2 RES2    0.0000
     57 O15       14.3889    0.5615    0.4314 O.2       2 RES2    0.0000
     58 O16       14.8412    0.3776   -1.6677 O.2       2 RES2    0.0000
     59 O17       15.1001    4.3763   -4.4057 O.2       2 RES2    0.0000
     60 O18       14.8044    6.2677   -3.5161 O.2       2 RES2    0.0000
     61 C21       11.8258    8.5376    1.4024 C.3       2 RES2    0.0000
     62 C22       12.8305    7.6008    2.0957 C.3       2 RES2    0.0000
     63 H21       12.4011    7.0902    2.8138 H         2 RES2    0.0000
     64 C23       13.9683    8.4823    2.6433 C.3       2 RES2    0.0000
     65 H22       13.9960    8.4282    3.6118 H         2 RES2    0.0000
     66 H23       14.8220    8.1818    2.2938 H         2 RES2    0.0000
     67 C24       13.7003    9.9159    2.2060 C.3       2 RES2    0.0000
     68 H24       14.5193   10.3548    1.9279 H         2 RES2    0.0000
     69 H25       13.2941   10.4290    2.9223 H         2 RES2    0.0000
     70 C25       12.7398    9.7562    1.0345 C.3       2 RES2    0.0000
     71 H26       13.2845    9.4682    0.2725 H         2 RES2    0.0000
     72 C26       11.9135   10.9421    0.5435 C.3       2 RES2    0.0000
     73 H27       12.3053   11.3093   -0.2651 H         2 RES2    0.0000
     74 H28       11.8969   11.6388    1.2173 H         2 RES2    0.0000
     75 C27       10.4727   10.4416    0.2572 C.3       2 RES2    0.0000
     76 H29        9.9410   11.1144   -0.2174 H         2 RES2    0.0000
     77 C28        9.9199   10.1587    1.6319 C.2       2 RES2    0.0000
     78 C29       10.6432    8.9690    2.3272 C.3       2 RES2    0.0000
     79 C30       11.1627    8.1428    0.1048 C.2       2 RES2    0.0000
     80 H30       11.2178    7.2851   -0.2507 H         2 RES2    0.0000
     81 C31       10.4976    9.1224   -0.4804 C.2       2 RES2    0.0000
     82 H31       10.0697    9.0067   -1.2980 H         2 RES2    0.0000
     83 C32       10.2674    9.6443    4.6291 C.3       2 RES2    0.0000
     84 H32       10.7588    9.8417    5.4303 H         2 RES2    0.0000
     85 H33        9.6693    8.9111    4.7935 H         2 RES2    0.0000
     86 H34        9.7615   10.4165    4.3670 H         2 RES2    0.0000
     87 C33        9.8603    6.7796    3.0787 C.3       2 RES2    0.0000
     88 H35        9.0679    6.2375    3.0683 H         2 RES2    0.0000
     89 H36       10.1199    6.9481    3.9879 H         2 RES2    0.0000
     90 H37       10.5687    6.3193    2.6241 H         2 RES2    0.0000
     91 C34       13.3606    5.3925    1.2849 C.2       2 RES2    0.0000
     92 C35       13.8485    4.6140    0.0988 C.ar      2 RES2    0.0000
     93 C36       13.9893    3.2345    0.2399 C.ar      2 RES2    0.0000
     94 H38       13.7976    2.8195    1.0502 H         2 RES2    0.0000
     95 C37       14.4174    2.4938   -0.8411 C.ar      2 RES2    0.0000
     96 C38       14.6884    3.0496   -2.0738 C.ar      2 RES2    0.0000
     97 H39       14.9539    2.5302   -2.7985 H         2 RES2    0.0000
     98 C39       14.5432    4.4204   -2.1721 C.ar      2 RES2    0.0000
     99 C40       14.1322    5.2151   -1.1145 C.ar      2 RES2    0.0000
    100 H40       14.0486    6.1357   -1.2184 H         2 RES2    0.0000
    101 N3        14.5565    1.0312   -0.6871 N.pl3     2 RES2    0.0000
    102 N4        14.8320    5.0667   -3.4612 N.pl3     2 RES2    0.0000
@<TRIPOS>BOND
     1    1   26 2
     2    2   27 1
     3    3   27 1
     4    4   11 1
     5    5   40 2
     6    6   50 2
     7    7   50 2
     8    8   51 2
     9    9   51 2
    10   10   11 1
    11   11   12 1
    12   13   11 1
    13   14   13 1
    14   15   13 1
    15   16   13 1
    16   17   16 1
    17   18   16 1
    18   19   10 1
    19   20   19 1
    20   21   19 1
    21   22   21 1
    22   23   21 1
    23   24   21 1
    24   25   24 1
    25   26   24 1
    26   27   10 1
    27   28   10 1
    28   29   28 1
    29   30   24 1
    30   31   30 1
    31   32    2 1
    32   33   32 1
    33   34   32 1
    34   35   32 1
    35   36    3 1
    36   37   36 1
    37   38   36 1
    38   39   36 1
    39   40    4 1
    40   41   40 1
    41   42   41 ar
    42   43   42 1
    43   44   42 ar
    44   45   44 ar
    45   46   45 1
    46   47   45 ar
    47   48   41 ar
    48   49   48 1
    49   50   44 1
    50   51   47 1
    51   52   77 2
    52   53   78 1
    53   54   78 1
    54   55   62 1
    55   56   91 2
    56   57  101 2
    57   58  101 2
    58   59  102 2
    59   60  102 2
    60   61   62 1
    61   62   63 1
    62   64   62 1
    63   65   64 1
    64   66   64 1
    65   67   64 1
    66   68   67 1
    67   69   67 1
    68   70   61 1
    69   71   70 1
    70   72   70 1
    71   73   72 1
    72   74   72 1
    73   75   72 1
    74   76   75 1
    75   77   75 1
    76   78   61 1
    77   79   61 1
    78   80   79 1
    79   81   75 1
    80   82   81 1
    81   83   53 1
    82   84   83 1
    83   85   83 1
    84   86   83 1
    85   87   54 1
    86   88   87 1
    87   89   87 1
    88   90   87 1
    89   91   55 1
    90   92   91 1
    91   93   92 ar
    92   94   93 1
    93   95   93 ar
    94   96   95 ar
    95   97   96 1
    96   98   96 ar
    97   99   92 ar
    98  100   99 1
    99  101   95 1
   100  102   98 1
   101   16   19 1
   102   26   27 1
   103   28   30 2
   104   47   48 ar
   105   67   70 1
   106   77   78 1
   107   79   81 2
   108   98   99 ar
@<TRIPOS>SUBSTRUCTURE
     1 RES1 1
     2 RES2 52

@<TRIPOS>CRYSIN
  20.8010   12.5757   15.9854  90.0000 112.1230  90.0000  14 1

