# MOL2 file generated by ConQuest
# Please check atom types

@<TRIPOS>MOLECULE
YECMIE
   181   185     1
SMALL
NO_CHARGES
****
Generated from CSD

@<TRIPOS>ATOM
      1 O1        -3.4513   13.3443   12.6892 O.2       1 RES1    0.0000
      2 O2         0.9187    8.8140   12.7306 O.2       1 RES1    0.0000
      3 O3        -0.2126    8.7742   10.7607 O.3       1 RES1    0.0000
      4 O4        -1.6842    6.7374   11.8287 O.3       1 RES1    0.0000
      5 O5        -1.1032    4.1388   11.4174 O.3       1 RES1    0.0000
      6 O6         1.9449    9.3852    9.5069 O.2       1 RES1    0.0000
      7 O7         2.9226    4.2035    8.4480 O.2       1 RES1    0.0000
      8 O8         6.1021    9.3972    6.6819 O.3       1 RES1    0.0000
      9 O9         6.7225    6.8597    6.1497 O.3       1 RES1    0.0000
     10 O10        5.1743    4.9169    7.1221 O.3       1 RES1    0.0000
     11 O11        4.5187    4.8433    5.0421 O.2       1 RES1    0.0000
     12 O12        8.0736    0.4299    4.9591 O.2       1 RES1    0.0000
     13 N1        -2.5506   12.3941   12.4673 N.3       1 RES1    0.0000
     14 N2         7.2622    1.2036    5.4426 N.3       1 RES1    0.0000
     15 C1        -1.7829    6.2999   13.2574 C.3       1 RES1    0.0000
     16 C2        -3.1422    5.9672   13.6218 C.3       1 RES1    0.0000
     17 C3        -3.2429    5.5054   15.1101 C.3       1 RES1    0.0000
     18 C4        -4.6249    5.0956   15.5232 C.3       1 RES1    0.0000
     19 C5        -4.6755    4.5686   17.0025 C.3       1 RES1    0.0000
     20 C6        -5.9899    4.1470   17.4264 C.3       1 RES1    0.0000
     21 C7        -6.0547    3.7120   18.9075 C.3       1 RES1    0.0000
     22 C8        -7.3059    3.1527   19.3711 C.3       1 RES1    0.0000
     23 C9        -0.9940    2.8249   10.9844 C.3       1 RES1    0.0000
     24 C10       -2.1552    2.0575   11.5779 C.3       1 RES1    0.0000
     25 C11       -2.0061    1.8716   12.9814 C.3       1 RES1    0.0000
     26 C12       -3.2597    1.3021   13.6110 C.3       1 RES1    0.0000
     27 C13        5.9818   10.8553    7.0716 C.3       1 RES1    0.0000
     28 C14        7.0892   11.5738    6.4907 C.3       1 RES1    0.0000
     29 C15        7.0838   11.6978    4.9339 C.3       1 RES1    0.0000
     30 C16        8.2190   12.5065    4.3746 C.3       1 RES1    0.0000
     31 C17        9.4620   13.3806    2.4480 C.3       1 RES1    0.0000
     32 C18        6.7916    7.3065    4.8455 C.3       1 RES1    0.0000
     33 C19        8.1783    7.8040    4.5099 C.3       1 RES1    0.0000
     34 C20        8.3113    8.2379    3.1173 C.3       1 RES1    0.0000
     35 C21        9.5949    8.8118    2.6464 C.3       1 RES1    0.0000
     36 C22        9.6489    9.1533    1.2393 C.3       1 RES1    0.0000
     37 C23       11.0317    9.8763    0.7541 C.3       1 RES1    0.0000
     38 C24       11.0270   10.0778   -0.7306 C.3       1 RES1    0.0000
     39 C25       12.3605   10.5783   -1.2213 C.3       1 RES1    0.0000
     40 C26       -0.5127    6.4603   11.1287 C.ar      1 RES1    0.0000
     41 C27       -0.3384    5.0250   10.8978 C.ar      1 RES1    0.0000
     42 C28        0.6939    4.7939   10.1365 C.ar      1 RES1    0.0000
     43 C29        1.6018    5.6440    9.5629 C.ar      1 RES1    0.0000
     44 C30        2.7932    5.3959    8.6464 C.2       1 RES1    0.0000
     45 C31        3.7053    6.4385    8.1630 C.ar      1 RES1    0.0000
     46 C32        4.8043    6.2319    7.3404 C.ar      1 RES1    0.0000
     47 C33        5.6307    7.2012    6.8208 C.ar      1 RES1    0.0000
     48 C34        5.0993    8.4130    7.1347 C.ar      1 RES1    0.0000
     49 C35        4.0172    8.8468    7.9609 C.ar      1 RES1    0.0000
     50 C36        3.2920    7.7033    8.4065 C.ar      1 RES1    0.0000
     51 C37        2.2029    8.2032    9.1876 C.2       1 RES1    0.0000
     52 C38        1.4590    7.0803    9.7830 C.ar      1 RES1    0.0000
     53 C39        0.3110    7.4515   10.6362 C.ar      1 RES1    0.0000
     54 C40        0.2437    9.2947   11.8629 C.2       1 RES1    0.0000
     55 C41       -0.5438   10.6274   12.1822 C.3       1 RES1    0.0000
     56 C42       -1.0760   11.3289   10.9303 C.3       1 RES1    0.0000
     57 C43       -1.8498   12.6805   11.2297 C.3       1 RES1    0.0000
     58 C44       -0.9296   13.8230   11.1913 C.3       1 RES1    0.0000
     59 C45       -2.8634   12.8715   10.0662 C.3       1 RES1    0.0000
     60 C46       -2.0601   11.7962   13.6507 C.3       1 RES1    0.0000
     61 C47       -1.0545   12.8248   14.4192 C.3       1 RES1    0.0000
     62 C48       -3.1380   11.5309   14.6434 C.3       1 RES1    0.0000
     63 C49       -1.4233   10.5727   13.2845 C.3       1 RES1    0.0000
     64 C50        5.0566    4.1963    5.9748 C.2       1 RES1    0.0000
     65 C51        5.4175    2.7934    6.0090 C.3       1 RES1    0.0000
     66 C52        5.9877    2.3505    7.2430 C.3       1 RES1    0.0000
     67 C53        6.7185    1.0433    6.8984 C.3       1 RES1    0.0000
     68 C54        5.7026   -0.2017    6.6729 C.3       1 RES1    0.0000
     69 C55        7.8460    0.7449    7.8053 C.3       1 RES1    0.0000
     70 C56        6.4235    2.5027    4.7445 C.3       1 RES1    0.0000
     71 C57        5.7195    1.8930    3.6422 C.3       1 RES1    0.0000
     72 C58        7.5263    3.3971    4.3295 C.3       1 RES1    0.0000
     73 H1        -1.1660    5.6060   13.4631 H         1 RES1    0.0000
     74 H2        -1.5792    7.0685   13.7769 H         1 RES1    0.0000
     75 H3        -3.7304    6.7043   13.5082 H         1 RES1    0.0000
     76 H4        -3.3716    5.2803   13.0067 H         1 RES1    0.0000
     77 H5        -2.7742    4.6790   15.1462 H         1 RES1    0.0000
     78 H6        -2.8311    6.1273   15.6982 H         1 RES1    0.0000
     79 H7        -5.0743    5.9312   15.5647 H         1 RES1    0.0000
     80 H8        -5.0693    4.5273   14.9062 H         1 RES1    0.0000
     81 H9        -4.1986    3.7459   17.0007 H         1 RES1    0.0000
     82 H10       -4.2993    5.1523   17.6501 H         1 RES1    0.0000
     83 H11       -6.5260    4.9166   17.2785 H         1 RES1    0.0000
     84 H12       -6.3326    3.4202   16.9195 H         1 RES1    0.0000
     85 H13       -5.3604    3.0792   19.0554 H         1 RES1    0.0000
     86 H14       -5.8771    4.5012   19.4053 H         1 RES1    0.0000
     87 H15       -7.8774    3.8489   19.6723 H         1 RES1    0.0000
     88 H16       -7.1390    2.5487   20.0854 H         1 RES1    0.0000
     89 H17       -7.7224    2.6880   18.6549 H         1 RES1    0.0000
     90 H18       -0.8853    2.8086   10.0409 H         1 RES1    0.0000
     91 H19       -0.2297    2.4428   11.3975 H         1 RES1    0.0000
     92 H20       -2.9181    2.5851   11.3741 H         1 RES1    0.0000
     93 H21       -2.2571    1.1937   11.1973 H         1 RES1    0.0000
     94 H22       -1.2953    1.2835   13.2069 H         1 RES1    0.0000
     95 H23       -1.8436    2.7258   13.3656 H         1 RES1    0.0000
     96 H24       -3.9478    1.9506   13.5226 H         1 RES1    0.0000
     97 H25       -3.4799    0.5347   13.0950 H         1 RES1    0.0000
     98 H26        5.1397   11.2587    6.8948 H         1 RES1    0.0000
     99 H27        6.1490   10.8708    8.0078 H         1 RES1    0.0000
    100 H28        7.1432   12.4244    6.9110 H         1 RES1    0.0000
    101 H29        7.9074   11.1080    6.6134 H         1 RES1    0.0000
    102 H30        7.0045   10.8391    4.5334 H         1 RES1    0.0000
    103 H31        6.2668   12.1711    4.8292 H         1 RES1    0.0000
    104 H32        8.2303   13.4028    4.6903 H         1 RES1    0.0000
    105 H33        9.0618   12.1024    4.5424 H         1 RES1    0.0000
    106 H34        9.6505   14.2019    2.8846 H         1 RES1    0.0000
    107 H35       10.2431   12.8401    2.4390 H         1 RES1    0.0000
    108 H36        6.6696    6.5638    4.2664 H         1 RES1    0.0000
    109 H37        6.1193    7.9555    4.6741 H         1 RES1    0.0000
    110 H38        8.2893    8.5944    5.0259 H         1 RES1    0.0000
    111 H39        8.8649    7.1841    4.7300 H         1 RES1    0.0000
    112 H40        8.1205    7.4448    2.6284 H         1 RES1    0.0000
    113 H41        7.6466    8.8898    2.9315 H         1 RES1    0.0000
    114 H42        9.8022    9.6062    3.1227 H         1 RES1    0.0000
    115 H43       10.2714    8.1627    2.8034 H         1 RES1    0.0000
    116 H44        9.5385    8.3391    0.7613 H         1 RES1    0.0000
    117 H45        8.9000    9.7163    1.0824 H         1 RES1    0.0000
    118 H46       11.1339   10.6923    1.2285 H         1 RES1    0.0000
    119 H47       11.7794    9.3150    0.9254 H         1 RES1    0.0000
    120 H48       10.8028    9.2827   -1.1996 H         1 RES1    0.0000
    121 H49       10.3661   10.7401   -0.8966 H         1 RES1    0.0000
    122 H50       12.3929   11.5236   -1.1383 H         1 RES1    0.0000
    123 H51       12.5108   10.3354   -2.1287 H         1 RES1    0.0000
    124 H52       13.0316   10.1876   -0.6747 H         1 RES1    0.0000
    125 H53        0.8394    3.8647    9.9994 H         1 RES1    0.0000
    126 H54        3.6601    9.7116    8.1287 H         1 RES1    0.0000
    127 H55        0.1389   11.2122   12.4907 H         1 RES1    0.0000
    128 H56       -0.3074   11.4593   10.3873 H         1 RES1    0.0000
    129 H57       -1.6768   10.7386   10.4901 H         1 RES1    0.0000
    130 H58       -1.3883   14.6243   10.9664 H         1 RES1    0.0000
    131 H59       -0.2340   13.6688   10.5641 H         1 RES1    0.0000
    132 H60       -0.5583   13.9059   12.0614 H         1 RES1    0.0000
    133 H61       -3.0446   12.0569    9.6134 H         1 RES1    0.0000
    134 H62       -2.5661   13.5211    9.4402 H         1 RES1    0.0000
    135 H63       -3.6546   13.1807   10.4919 H         1 RES1    0.0000
    136 H64       -3.3369   12.3064   15.1552 H         1 RES1    0.0000
    137 H65       -2.8281   10.8420   15.2201 H         1 RES1    0.0000
    138 H66       -3.9224   11.2383   14.1937 H         1 RES1    0.0000
    139 H67       -2.1734   10.0470   13.0319 H         1 RES1    0.0000
    140 H68       -1.0289   10.2050   14.0674 H         1 RES1    0.0000
    141 H69        4.6623    2.2212    5.9315 H         1 RES1    0.0000
    142 H70        6.6381    3.0117    7.4468 H         1 RES1    0.0000
    143 H71        5.3715    2.2812    7.9627 H         1 RES1    0.0000
    144 H72        4.8272    0.0208    6.3807 H         1 RES1    0.0000
    145 H73        5.6485   -0.6996    7.4811 H         1 RES1    0.0000
    146 H74        6.1357   -0.7254    6.0090 H         1 RES1    0.0000
    147 H75        7.9642   -0.1941    7.8762 H         1 RES1    0.0000
    148 H76        7.6824    1.1107    8.6663 H         1 RES1    0.0000
    149 H77        8.6311    1.1361    7.4396 H         1 RES1    0.0000
    150 H78        6.2593    1.7595    2.8737 H         1 RES1    0.0000
    151 H79        4.9505    2.3990    3.4077 H         1 RES1    0.0000
    152 H80        5.4502    1.0513    3.9904 H         1 RES1    0.0000
    153 C59        9.2776   13.4759    0.8858 C.3       1 RES1    0.0000
    154 H81        8.5423   14.0759    0.8533 H         1 RES1    0.0000
    155 H82        9.0576   12.6793    0.4167 H         1 RES1    0.0000
    156 C60       10.5581   14.1475    0.6566 C.3       1 RES1    0.0000
    157 C61       -2.9389    0.9453   15.1426 C.3       1 RES1    0.0000
    158 H83       -2.4770    1.5609   15.7000 H         1 RES1    0.0000
    159 H84       -2.3266    0.3033   14.8052 H         1 RES1    0.0000
    160 C62       -3.9783    0.3803   15.9291 C.3       1 RES1    0.0000
    161 H85       -4.5907    1.0221   16.2682 H         1 RES1    0.0000
    162 H86       -4.4403   -0.2354   15.3717 H         1 RES1    0.0000
    163 C63       -3.8861   -0.1375   17.4083 C.3       1 RES1    0.0000
    164 H87       -4.5610   -0.5777   17.9117 H         1 RES1    0.0000
    165 H88       -3.2737   -0.7808   17.0692 H         1 RES1    0.0000
    166 C64       -2.5473    0.2767   17.9189 C.3       1 RES1    0.0000
    167 C65        8.1501   12.7084    2.8864 C.3       1 RES1    0.0000
    168 H89        7.3698   13.2137    2.6897 H         1 RES1    0.0000
    169 H90        8.0852   11.8536    2.4769 H         1 RES1    0.0000
    170 H91       -0.7232   12.4280   15.2165 H         1 RES1    0.0000
    171 H92       -1.5268   13.6203   14.6338 H         1 RES1    0.0000
    172 H93       -0.3276   13.0337   13.8437 H         1 RES1    0.0000
    173 H94        7.1696    4.1758    3.9182 H         1 RES1    0.0000
    174 H95        8.0492    3.6460    5.0818 H         1 RES1    0.0000
    175 H96        8.0717    2.9310    3.7054 H         1 RES1    0.0000
    176 H97       -2.4442   -0.0208   18.8154 H         1 RES1    0.0000
    177 H98       -2.4809    1.2240   17.8882 H         1 RES1    0.0000
    178 H99       -1.8657   -0.1070   17.3795 H         1 RES1    0.0000
    179 H100      10.6647   14.3143   -0.2724 H         1 RES1    0.0000
    180 H101      10.5707   14.9714    1.1293 H         1 RES1    0.0000
    181 H102      11.2675   13.5944    0.9633 H         1 RES1    0.0000
@<TRIPOS>BOND
     1    1   13 1
     2    2   54 2
     3    3   53 1
     4    4   15 1
     5    5   23 1
     6    6   51 2
     7    7   44 2
     8    8   27 1
     9    9   32 1
    10   10   46 1
    11   11   64 2
    12   12   14 1
    13   13   57 1
    14   14   67 1
    15   15   16 1
    16   16   17 1
    17   17   18 1
    18   18   19 1
    19   19   20 1
    20   20   21 1
    21   21   22 1
    22   22   87 1
    23   23   24 1
    24   24   25 1
    25   25   26 1
    26   26   96 1
    27   27   28 1
    28   28   29 1
    29   29   30 1
    30   30  104 1
    31   31  106 1
    32   32   33 1
    33   33   34 1
    34   34   35 1
    35   35   36 1
    36   36   37 1
    37   37   38 1
    38   38   39 1
    39   39  122 1
    40   40    4 1
    41   41    5 1
    42   42   41 ar
    43   43   42 ar
    44   44   43 1
    45   45   44 1
    46   46   45 ar
    47   47    9 1
    48   48    8 1
    49   49   48 ar
    50   50   45 ar
    51   51   50 1
    52   52   43 ar
    53   53   40 ar
    54   54    3 1
    55   55   54 1
    56   56   55 1
    57   57   56 1
    58   58   57 1
    59   59   57 1
    60   60   13 1
    61   61   60 1
    62   62   60 1
    63   63   55 1
    64   64   10 1
    65   65   64 1
    66   66   65 1
    67   67   66 1
    68   68   67 1
    69   69   67 1
    70   70   14 1
    71   71   70 1
    72   72   70 1
    73   73   15 1
    74   74   15 1
    75   75   16 1
    76   76   16 1
    77   77   17 1
    78   78   17 1
    79   79   18 1
    80   80   18 1
    81   81   19 1
    82   82   19 1
    83   83   20 1
    84   84   20 1
    85   85   21 1
    86   86   21 1
    87   88   22 1
    88   89   22 1
    89   90   23 1
    90   91   23 1
    91   92   24 1
    92   93   24 1
    93   94   25 1
    94   95   25 1
    95   97   26 1
    96   98   27 1
    97   99   27 1
    98  100   28 1
    99  101   28 1
   100  102   29 1
   101  103   29 1
   102  105   30 1
   103  107   31 1
   104  108   32 1
   105  109   32 1
   106  110   33 1
   107  111   33 1
   108  112   34 1
   109  113   34 1
   110  114   35 1
   111  115   35 1
   112  116   36 1
   113  117   36 1
   114  118   37 1
   115  119   37 1
   116  120   38 1
   117  121   38 1
   118  123   39 1
   119  124   39 1
   120  125   42 1
   121  126   49 1
   122  127   55 1
   123  128   56 1
   124  129   56 1
   125  130   58 1
   126  131   58 1
   127  132   58 1
   128  133   59 1
   129  134   59 1
   130  135   59 1
   131  136   62 1
   132  137   62 1
   133  138   62 1
   134  139   63 1
   135  140   63 1
   136  141   65 1
   137  142   66 1
   138  143   66 1
   139  144   68 1
   140  145   68 1
   141  146   68 1
   142  147   69 1
   143  148   69 1
   144  149   69 1
   145  150   71 1
   146  151   71 1
   147  152   71 1
   148  153   31 1
   149  154  153 1
   150  155  153 1
   151  156  153 1
   152  157   26 1
   153  158  157 1
   154  159  157 1
   155  160  157 1
   156  161  160 1
   157  162  160 1
   158  163  160 1
   159  164  163 1
   160  165  163 1
   161  166  163 1
   162  167   30 1
   163  168  167 1
   164  169  167 1
   165  170   61 1
   166  171   61 1
   167  172   61 1
   168  173   72 1
   169  174   72 1
   170  175   72 1
   171  176  166 1
   172  177  166 1
   173  178  166 1
   174  179  156 1
   175  180  156 1
   176  181  156 1
   177   31  167 1
   178   40   41 ar
   179   46   47 ar
   180   47   48 ar
   181   49   50 ar
   182   51   52 1
   183   52   53 ar
   184   60   63 1
   185   65   70 1
@<TRIPOS>SUBSTRUCTURE
     1 RES1 1

@<TRIPOS>CRYSIN
   5.8304   15.4060   18.1270  95.6060  90.1210  93.3640   1 1

