# MOL2 file generated by ConQuest
# Please check atom types

@<TRIPOS>MOLECULE
YECMEA
   178   182     1
SMALL
NO_CHARGES
****
Generated from CSD

@<TRIPOS>ATOM
      1 O1         1.0018    6.8183   16.1256 O.2       1 RES1    0.0000
      2 O2         4.1705    6.4758   11.5668 O.2       1 RES1    0.0000
      3 O3         3.0335    8.3713   11.3760 O.3       1 RES1    0.0000
      4 O4         5.4108    9.5637   11.6761 O.2       1 RES1    0.0000
      5 O5         1.2843    7.2676    9.6358 O.3       1 RES1    0.0000
      6 O6         1.5597    7.6043    6.9799 O.3       1 RES1    0.0000
      7 N1         2.0010    6.9248   15.3478 N.3       1 RES1    0.0000
      8 C1        -4.6551    8.5999   -0.6696 C.3       1 RES1    0.0000
      9 C2        -3.3571    8.8389   -0.0920 C.3       1 RES1    0.0000
     10 C3        -3.0628    8.1075    1.1821 C.3       1 RES1    0.0000
     11 C4        -1.6832    8.3814    1.7560 C.3       1 RES1    0.0000
     12 C5        -1.3925    7.7333    3.0537 C.3       1 RES1    0.0000
     13 C6        -0.0293    8.0578    3.6384 C.3       1 RES1    0.0000
     14 C7         0.2519    7.4650    5.0082 C.3       1 RES1    0.0000
     15 C8         1.5041    7.9936    5.5948 C.3       1 RES1    0.0000
     16 C9        -4.5922    3.7662    4.4109 C.3       1 RES1    0.0000
     17 C10       -3.1697    4.2748    4.3892 C.3       1 RES1    0.0000
     18 C11       -2.3070    3.8165    5.5406 C.3       1 RES1    0.0000
     19 C12       -2.2387    4.7588    6.6885 C.3       1 RES1    0.0000
     20 C13       -0.9905    4.5648    7.6143 C.3       1 RES1    0.0000
     21 C14       -0.9236    5.5505    8.6629 C.3       1 RES1    0.0000
     22 C15       -0.0210    5.2070    9.6682 C.3       1 RES1    0.0000
     23 C16        1.2303    5.8390    9.3451 C.3       1 RES1    0.0000
     24 C17        2.3907    7.9165    9.1321 C.ar      1 RES1    0.0000
     25 C18        2.5482    8.1167    7.7569 C.ar      1 RES1    0.0000
     26 C19        3.6335    8.8241    7.2967 C.ar      1 RES1    0.0000
     27 C20        4.5683    9.3389    8.1774 C.ar      1 RES1    0.0000
     28 C21        4.4409    9.1721    9.5563 C.ar      1 RES1    0.0000
     29 C22        5.4640    9.7260   10.4713 C.2       1 RES1    0.0000
     30 C23        3.3110    8.4535   10.0074 C.ar      1 RES1    0.0000
     31 C24        3.5722    7.3604   12.0829 C.2       1 RES1    0.0000
     32 C25        3.3302    7.5428   13.5665 C.3       1 RES1    0.0000
     33 C26        4.0967    6.5970   14.4327 C.3       1 RES1    0.0000
     34 C27        3.3726    6.6339   15.7791 C.3       1 RES1    0.0000
     35 C28        3.8811    7.7223   16.6923 C.3       1 RES1    0.0000
     36 C29        3.4612    5.3093   16.5028 C.3       1 RES1    0.0000
     37 C30        1.8414    7.3366   13.9617 C.3       1 RES1    0.0000
     38 C31        1.1865    6.2418   13.1911 C.3       1 RES1    0.0000
     39 C32        1.0505    8.6480   13.9256 C.3       1 RES1    0.0000
     40 H1        -4.6261    7.8445   -1.2435 H         1 RES1    0.0000
     41 H2        -4.9496    9.3584   -1.1587 H         1 RES1    0.0000
     42 H3        -5.2525    8.4319    0.0487 H         1 RES1    0.0000
     43 H4        -2.7074    8.5551   -0.7237 H         1 RES1    0.0000
     44 H5        -3.2559    9.7700    0.0722 H         1 RES1    0.0000
     45 H6        -3.7093    8.3825    1.8228 H         1 RES1    0.0000
     46 H7        -3.1469    7.1737    1.0287 H         1 RES1    0.0000
     47 H8        -1.0423    8.0916    1.1153 H         1 RES1    0.0000
     48 H9        -1.5998    9.3189    1.8860 H         1 RES1    0.0000
     49 H10       -2.0613    7.9891    3.6781 H         1 RES1    0.0000
     50 H11       -1.4337    6.7946    2.9129 H         1 RES1    0.0000
     51 H12        0.6393    7.7421    3.0410 H         1 RES1    0.0000
     52 H13        0.0316    9.0027    3.7106 H         1 RES1    0.0000
     53 H14       -0.4721    7.6833    5.5840 H         1 RES1    0.0000
     54 H15        0.3200    6.5216    4.9288 H         1 RES1    0.0000
     55 H16        1.5101    8.9409    5.5244 H         1 RES1    0.0000
     56 H17        2.2526    7.6374    5.1310 H         1 RES1    0.0000
     57 H18       -4.6350    2.9460    3.9326 H         1 RES1    0.0000
     58 H19       -5.1662    4.4027    3.9994 H         1 RES1    0.0000
     59 H20       -4.8705    3.6247    5.3078 H         1 RES1    0.0000
     60 H21       -3.0993    4.1332    3.4525 H         1 RES1    0.0000
     61 H22       -3.4841    5.1510    4.5570 H         1 RES1    0.0000
     62 H23       -1.6246    4.0122    4.9072 H         1 RES1    0.0000
     63 H24       -2.2107    2.9205    5.8402 H         1 RES1    0.0000
     64 H25       -2.2189    5.6465    6.3510 H         1 RES1    0.0000
     65 H26       -3.0071    4.6404    7.2317 H         1 RES1    0.0000
     66 H27       -1.0158    3.6985    8.0042 H         1 RES1    0.0000
     67 H28       -0.2060    4.6449    7.0801 H         1 RES1    0.0000
     68 H29       -0.7067    6.3887    8.2731 H         1 RES1    0.0000
     69 H30       -1.7919    5.5985    9.0509 H         1 RES1    0.0000
     70 H31       -0.3389    5.5930   10.4767 H         1 RES1    0.0000
     71 H32        0.0503    4.2666    9.7728 H         1 RES1    0.0000
     72 H33        1.4423    5.6972    8.4301 H         1 RES1    0.0000
     73 H34        1.8731    5.4016    9.8901 H         1 RES1    0.0000
     74 H35        3.7467    8.9480    6.3618 H         1 RES1    0.0000
     75 H36        3.5749    8.4301   13.8029 H         1 RES1    0.0000
     76 H37        4.0465    5.7254   14.0610 H         1 RES1    0.0000
     77 H38        5.0077    6.8576   14.5067 H         1 RES1    0.0000
     78 H39        4.3076    8.3790   16.1545 H         1 RES1    0.0000
     79 H40        4.5007    7.3807   17.3258 H         1 RES1    0.0000
     80 H41        3.1463    8.1160   17.1489 H         1 RES1    0.0000
     81 H42        3.2852    5.4109   17.4323 H         1 RES1    0.0000
     82 H43        4.3248    4.9309   16.3837 H         1 RES1    0.0000
     83 H44        2.8087    4.7389   16.1166 H         1 RES1    0.0000
     84 H45        1.8508    5.6717   12.8247 H         1 RES1    0.0000
     85 H46        0.6634    6.6129   12.4908 H         1 RES1    0.0000
     86 H47        0.6261    5.7430   13.7740 H         1 RES1    0.0000
     87 H48        0.1204    8.4578   13.8913 H         1 RES1    0.0000
     88 H49        1.2979    9.1584   13.1622 H         1 RES1    0.0000
     89 H50        1.2438    9.1426   14.7125 H         1 RES1    0.0000
     90 O1A       10.1599   13.0253    1.9221 O.2       1 RES1    0.0000
     91 O2A        6.9913   13.3677    6.4809 O.2       1 RES1    0.0000
     92 O3A        8.1283   11.4723    6.6717 O.3       1 RES1    0.0000
     93 O4A        5.7510   10.2798    6.3716 O.2       1 RES1    0.0000
     94 O5A        9.8774   12.5760    8.4119 O.3       1 RES1    0.0000
     95 O6A        9.6020   12.2393   11.0677 O.3       1 RES1    0.0000
     96 N1A        9.1608   12.9187    2.6999 N.3       1 RES1    0.0000
     97 C1A       15.8169   11.2437   18.7173 C.3       1 RES1    0.0000
     98 C2A       14.5189   11.0046   18.1397 C.3       1 RES1    0.0000
     99 C3A       14.2245   11.7360   16.8656 C.3       1 RES1    0.0000
    100 C4A       12.8450   11.4622   16.2917 C.3       1 RES1    0.0000
    101 C5A       12.5542   12.1103   14.9940 C.3       1 RES1    0.0000
    102 C6A       11.1911   11.7857   14.4093 C.3       1 RES1    0.0000
    103 C7A       10.9099   12.3785   13.0395 C.3       1 RES1    0.0000
    104 C8A        9.6577   11.8500   12.4529 C.3       1 RES1    0.0000
    105 C9A       15.7540   16.0774   13.6368 C.3       1 RES1    0.0000
    106 C10A      14.3314   15.5687   13.6585 C.3       1 RES1    0.0000
    107 C11A      13.4687   16.0271   12.5071 C.3       1 RES1    0.0000
    108 C12A      13.4005   15.0847   11.3592 C.3       1 RES1    0.0000
    109 C13A      12.1523   15.2788   10.4334 C.3       1 RES1    0.0000
    110 C14A      12.0853   14.2931    9.3848 C.3       1 RES1    0.0000
    111 C15A      11.1827   14.6366    8.3795 C.3       1 RES1    0.0000
    112 C16A       9.9314   14.0045    8.7026 C.3       1 RES1    0.0000
    113 C17A       8.7710   11.9270    8.9156 C.ar      1 RES1    0.0000
    114 C18A       8.6135   11.7268   10.2908 C.ar      1 RES1    0.0000
    115 C19A       7.5283   11.0195   10.7510 C.ar      1 RES1    0.0000
    116 C20A       6.5935   10.5046    9.8703 C.ar      1 RES1    0.0000
    117 C21A       6.7209   10.6715    8.4914 C.ar      1 RES1    0.0000
    118 C22A       5.6977   10.1175    7.5764 C.2       1 RES1    0.0000
    119 C23A       7.8507   11.3900    8.0402 C.ar      1 RES1    0.0000
    120 C24A       7.5896   12.4832    5.9648 C.2       1 RES1    0.0000
    121 C25A       7.8315   12.3008    4.4812 C.3       1 RES1    0.0000
    122 C26A       7.0651   13.2465    3.6150 C.3       1 RES1    0.0000
    123 C27A       7.7891   13.2096    2.2686 C.3       1 RES1    0.0000
    124 C28A       7.2807   12.1213    1.3554 C.3       1 RES1    0.0000
    125 C29A       7.7005   14.5342    1.5449 C.3       1 RES1    0.0000
    126 C30A       9.3204   12.5070    4.0860 C.3       1 RES1    0.0000
    127 C31A       9.9752   13.6018    4.8566 C.3       1 RES1    0.0000
    128 C32A      10.1113   11.1956    4.1221 C.3       1 RES1    0.0000
    129 H1A       15.7879   11.9991   19.2912 H         1 RES1    0.0000
    130 H2A       16.1114   10.4851   19.2064 H         1 RES1    0.0000
    131 H3A       16.4143   11.4117   17.9990 H         1 RES1    0.0000
    132 H4A       13.8691   11.2885   18.7714 H         1 RES1    0.0000
    133 H5A       14.4176   10.0736   17.9755 H         1 RES1    0.0000
    134 H6A       14.8711   11.4610   16.2249 H         1 RES1    0.0000
    135 H7A       14.3086   12.6699   17.0190 H         1 RES1    0.0000
    136 H8A       12.2040   11.7519   16.9323 H         1 RES1    0.0000
    137 H9A       12.7616   10.5247   16.1617 H         1 RES1    0.0000
    138 H10A      13.2231   11.8544   14.3696 H         1 RES1    0.0000
    139 H11A      12.5954   13.0490   15.1348 H         1 RES1    0.0000
    140 H12A      10.5224   12.1014   15.0067 H         1 RES1    0.0000
    141 H13A      11.1302   10.8408   14.3371 H         1 RES1    0.0000
    142 H14A      11.6338   12.1602   12.4637 H         1 RES1    0.0000
    143 H15A      10.8418   13.3220   13.1189 H         1 RES1    0.0000
    144 H16A       9.6517   10.9027   12.5233 H         1 RES1    0.0000
    145 H17A       8.9091   12.2061   12.9167 H         1 RES1    0.0000
    146 H18A      15.7968   16.8975   14.1151 H         1 RES1    0.0000
    147 H19A      16.3279   15.4409   14.0483 H         1 RES1    0.0000
    148 H20A      16.0323   16.2188   12.7399 H         1 RES1    0.0000
    149 H21A      14.2611   15.7104   14.5952 H         1 RES1    0.0000
    150 H22A      14.6459   14.6926   13.4907 H         1 RES1    0.0000
    151 H23A      12.7863   15.8313   13.1405 H         1 RES1    0.0000
    152 H24A      13.3724   16.9230   12.2075 H         1 RES1    0.0000
    153 H25A      13.3807   14.1970   11.6967 H         1 RES1    0.0000
    154 H26A      14.1688   15.2032   10.8160 H         1 RES1    0.0000
    155 H27A      12.1775   16.1451   10.0435 H         1 RES1    0.0000
    156 H28A      11.3677   15.1986   10.9676 H         1 RES1    0.0000
    157 H29A      11.8684   13.4549    9.7746 H         1 RES1    0.0000
    158 H30A      12.9537   14.2450    8.9968 H         1 RES1    0.0000
    159 H31A      11.5006   14.2506    7.5710 H         1 RES1    0.0000
    160 H32A      11.1114   15.5769    8.2749 H         1 RES1    0.0000
    161 H33A       9.7194   14.1464    9.6176 H         1 RES1    0.0000
    162 H34A       9.2887   14.4420    8.1576 H         1 RES1    0.0000
    163 H35A       7.4151   10.8956   11.6859 H         1 RES1    0.0000
    164 H36A       7.5868   11.4134    4.2448 H         1 RES1    0.0000
    165 H37A       7.1152   14.1182    3.9867 H         1 RES1    0.0000
    166 H38A       6.1540   12.9859    3.5410 H         1 RES1    0.0000
    167 H39A       6.8542   11.4645    1.8932 H         1 RES1    0.0000
    168 H40A       6.6610   12.4629    0.7219 H         1 RES1    0.0000
    169 H41A       8.0154   11.7276    0.8988 H         1 RES1    0.0000
    170 H42A       7.8766   14.4327    0.6154 H         1 RES1    0.0000
    171 H43A       6.8370   14.9127    1.6640 H         1 RES1    0.0000
    172 H44A       8.3530   15.1047    1.9311 H         1 RES1    0.0000
    173 H45A       9.3110   14.1718    5.2230 H         1 RES1    0.0000
    174 H46A      10.4983   13.2306    5.5569 H         1 RES1    0.0000
    175 H47A      10.5357   14.1006    4.2737 H         1 RES1    0.0000
    176 H48A      11.0413   11.3858    4.1564 H         1 RES1    0.0000
    177 H49A       9.8638   10.6852    4.8855 H         1 RES1    0.0000
    178 H50A       9.9179   10.7009    3.3352 H         1 RES1    0.0000
@<TRIPOS>BOND
     1    1    7 1
     2    2   31 2
     3    3   30 1
     4    4   29 2
     5    5   23 1
     6    6   15 1
     7    7   34 1
     8    8    9 1
     9    9   10 1
    10   10   11 1
    11   11   12 1
    12   12   13 1
    13   13   14 1
    14   14   15 1
    15   15   55 1
    16   16   17 1
    17   17   18 1
    18   18   19 1
    19   19   20 1
    20   20   21 1
    21   21   22 1
    22   22   23 1
    23   23   72 1
    24   24    5 1
    25   25    6 1
    26   26   25 ar
    27   27   26 ar
    28   28   27 ar
    29   29   28 1
    30   30   24 ar
    31   31    3 1
    32   32   31 1
    33   33   32 1
    34   34   33 1
    35   35   34 1
    36   36   34 1
    37   37    7 1
    38   38   37 1
    39   39   37 1
    40   40    8 1
    41   41    8 1
    42   42    8 1
    43   43    9 1
    44   44    9 1
    45   45   10 1
    46   46   10 1
    47   47   11 1
    48   48   11 1
    49   49   12 1
    50   50   12 1
    51   51   13 1
    52   52   13 1
    53   53   14 1
    54   54   14 1
    55   56   15 1
    56   57   16 1
    57   58   16 1
    58   59   16 1
    59   60   17 1
    60   61   17 1
    61   62   18 1
    62   63   18 1
    63   64   19 1
    64   65   19 1
    65   66   20 1
    66   67   20 1
    67   68   21 1
    68   69   21 1
    69   70   22 1
    70   71   22 1
    71   73   23 1
    72   74   26 1
    73   75   32 1
    74   76   33 1
    75   77   33 1
    76   78   35 1
    77   79   35 1
    78   80   35 1
    79   81   36 1
    80   82   36 1
    81   83   36 1
    82   84   38 1
    83   85   38 1
    84   86   38 1
    85   87   39 1
    86   88   39 1
    87   89   39 1
    88   90   96 1
    89   91  120 2
    90   92  119 1
    91   93  118 2
    92   94  112 1
    93   95  104 1
    94   96  123 1
    95   97   98 1
    96   98   99 1
    97   99  100 1
    98  100  101 1
    99  101  102 1
   100  102  103 1
   101  103  104 1
   102  104  144 1
   103  105  106 1
   104  106  107 1
   105  107  108 1
   106  108  109 1
   107  109  110 1
   108  110  111 1
   109  111  112 1
   110  112  161 1
   111  113   94 1
   112  114   95 1
   113  115  114 ar
   114  116   29 1
   115  117  116 ar
   116  118   27 1
   117  119  113 ar
   118  120   92 1
   119  121  120 1
   120  122  121 1
   121  123  122 1
   122  124  123 1
   123  125  123 1
   124  126   96 1
   125  127  126 1
   126  128  126 1
   127  129   97 1
   128  130   97 1
   129  131   97 1
   130  132   98 1
   131  133   98 1
   132  134   99 1
   133  135   99 1
   134  136  100 1
   135  137  100 1
   136  138  101 1
   137  139  101 1
   138  140  102 1
   139  141  102 1
   140  142  103 1
   141  143  103 1
   142  145  104 1
   143  146  105 1
   144  147  105 1
   145  148  105 1
   146  149  106 1
   147  150  106 1
   148  151  107 1
   149  152  107 1
   150  153  108 1
   151  154  108 1
   152  155  109 1
   153  156  109 1
   154  157  110 1
   155  158  110 1
   156  159  111 1
   157  160  111 1
   158  162  112 1
   159  163  115 1
   160  164  121 1
   161  165  122 1
   162  166  122 1
   163  167  124 1
   164  168  124 1
   165  169  124 1
   166  170  125 1
   167  171  125 1
   168  172  125 1
   169  173  127 1
   170  174  127 1
   171  175  127 1
   172  176  128 1
   173  177  128 1
   174  178  128 1
   175   24   25 ar
   176   28   30 ar
   177   32   37 1
   178  113  114 ar
   179  115  116 ar
   180  117  118 1
   181  117  119 ar
   182  121  126 1
@<TRIPOS>SUBSTRUCTURE
     1 RES1 1

@<TRIPOS>CRYSIN
   6.6836   13.6330   19.2602  69.6380  84.4860  78.8880   2 1

