# MOL2 file generated by ConQuest
# Please check atom types

@<TRIPOS>MOLECULE
YEDHEU
    95   102     1
SMALL
NO_CHARGES
****
Generated from CSD

@<TRIPOS>ATOM
      1 O1         3.6441   11.0651    9.2074 O.3       1 RES1    0.0000
      2 O2         5.2479   14.6330    7.5182 O.3       1 RES1    0.0000
      3 O3         2.7014   17.2647    6.3635 O.2       1 RES1    0.0000
      4 O4         3.2720   20.6893    9.2974 O.2       1 RES1    0.0000
      5 O5         2.0542   14.7492    9.1091 O.3       1 RES1    0.0000
      6 O6         3.1738   14.2541   11.6429 O.3       1 RES1    0.0000
      7 N1         4.4070   12.1636    8.7644 N.2       1 RES1    0.0000
      8 N2         3.0534   16.7473    8.5525 N.am      1 RES1    0.0000
      9 N3         2.8666   18.9603    7.8810 N.am      1 RES1    0.0000
     10 C1         4.0548   13.1348   13.6284 C.ar      1 RES1    0.0000
     11 C2         3.8845   15.6010   13.4608 C.ar      1 RES1    0.0000
     12 C3         7.1948   13.6093    8.5802 C.ar      1 RES1    0.0000
     13 C4         1.7368   14.2843   13.5951 C.ar      1 RES1    0.0000
     14 C5         7.3239   14.8686    6.3787 C.ar      1 RES1    0.0000
     15 C6         3.0707   15.3192    8.2770 C.3       1 RES1    0.0000
     16 C7         6.9448   16.2044    8.3725 C.ar      1 RES1    0.0000
     17 C8         4.3753   14.6011    8.6287 C.3       1 RES1    0.0000
     18 C9         3.5606   16.2697   14.6474 C.ar      1 RES1    0.0000
     19 C10        6.6837   14.8129    7.7647 C.3       1 RES1    0.0000
     20 C11        7.2033   13.5997    9.9717 C.ar      1 RES1    0.0000
     21 C12        4.2689   13.0282   15.0060 C.ar      1 RES1    0.0000
     22 C13        6.5810   14.9498    5.2282 C.ar      1 RES1    0.0000
     23 C14        2.8552   17.6341    7.5099 C.2       1 RES1    0.0000
     24 C15        8.0191   16.4512    9.2268 C.ar      1 RES1    0.0000
     25 C16        1.1842   13.2797   14.3733 C.ar      1 RES1    0.0000
     26 C17        5.1068   12.0506   15.5100 C.ar      1 RES1    0.0000
     27 C18        7.5856   12.4773   10.6765 C.ar      1 RES1    0.0000
     28 C19        7.2451   15.0995    3.9931 C.ar      1 RES1    0.0000
     29 C20        4.2478   17.4160   15.0296 C.ar      1 RES1    0.0000
     30 C21        8.3004   17.7519    9.6270 C.ar      1 RES1    0.0000
     31 C22        3.8239   13.2495    9.0177 C.2       1 RES1    0.0000
     32 C23       -0.1696   13.3147   14.7070 C.ar      1 RES1    0.0000
     33 C24        2.4272   13.4262    9.5466 C.3       1 RES1    0.0000
     34 C25        7.9410   11.3310   10.0049 C.ar      1 RES1    0.0000
     35 C26        5.7092   11.1495   14.6890 C.ar      1 RES1    0.0000
     36 C27       -0.9730   14.3178   14.2584 C.ar      1 RES1    0.0000
     37 C28        3.1639   19.4793    9.1507 C.2       1 RES1    0.0000
     38 C29        8.5995   15.1632    3.9253 C.ar      1 RES1    0.0000
     39 C30        7.5418   18.8043    9.1936 C.ar      1 RES1    0.0000
     40 C31        5.2489   17.9079   14.2251 C.ar      1 RES1    0.0000
     41 C32        5.5122   11.2418   13.3279 C.ar      1 RES1    0.0000
     42 C33        7.9188   11.3103    8.6342 C.ar      1 RES1    0.0000
     43 C34        3.1884   14.2827   13.0967 C.3       1 RES1    0.0000
     44 C35        3.3014   18.4763   10.1669 C.2       1 RES1    0.0000
     45 C36        9.3615   15.0469    5.0634 C.ar      1 RES1    0.0000
     46 C37        5.5619   17.2870   13.0316 C.ar      1 RES1    0.0000
     47 C38        6.4949   18.5782    8.3241 C.ar      1 RES1    0.0000
     48 C39        2.2511   13.3402   11.0337 C.3       1 RES1    0.0000
     49 C40       -0.4423   15.3208   13.4941 C.ar      1 RES1    0.0000
     50 C41        8.7098   14.9164    6.2901 C.ar      1 RES1    0.0000
     51 C42        7.5684   12.4470    7.9225 C.ar      1 RES1    0.0000
     52 C43        3.2376   17.1931    9.8554 C.2       1 RES1    0.0000
     53 C44        4.6894   12.2448   12.7976 C.ar      1 RES1    0.0000
     54 C45        4.9021   16.1057   12.6786 C.ar      1 RES1    0.0000
     55 C46        6.2064   17.2775    7.9156 C.ar      1 RES1    0.0000
     56 C47        0.9009   15.3096   13.1673 C.ar      1 RES1    0.0000
     57 H1         4.1287   10.3646    8.9582 H         1 RES1    0.0000
     58 H2         2.9462   15.2205    7.2552 H         1 RES1    0.0000
     59 H3         4.7277   15.0294    9.4705 H         1 RES1    0.0000
     60 H4         2.7491   15.9051   15.3411 H         1 RES1    0.0000
     61 H5         6.9315   14.4403   10.4259 H         1 RES1    0.0000
     62 H6         3.8118   13.6125   15.5903 H         1 RES1    0.0000
     63 H7         5.6157   14.9817    5.2060 H         1 RES1    0.0000
     64 H8         8.6042   15.6981    9.4982 H         1 RES1    0.0000
     65 H9         1.6798   12.5457   14.7180 H         1 RES1    0.0000
     66 H10        2.7467   19.5669    7.1998 H         1 RES1    0.0000
     67 H11        5.1782   12.0681   16.4488 H         1 RES1    0.0000
     68 H12        7.5484   12.4343   11.7274 H         1 RES1    0.0000
     69 H13        6.7283   15.2205    3.2953 H         1 RES1    0.0000
     70 H14        9.1699   17.8634   10.1628 H         1 RES1    0.0000
     71 H15       -0.4708   12.6254   15.2580 H         1 RES1    0.0000
     72 H16        3.9489   17.8952   15.9088 H         1 RES1    0.0000
     73 H17        8.1153   10.4919   10.5366 H         1 RES1    0.0000
     74 H18        6.3177   10.4919   15.0642 H         1 RES1    0.0000
     75 H19       -1.9658   14.2652   14.5242 H         1 RES1    0.0000
     76 H20        9.0446   15.2682    3.1430 H         1 RES1    0.0000
     77 H21        7.7612   19.7102    9.4567 H         1 RES1    0.0000
     78 H22        5.7440   18.7709   14.5657 H         1 RES1    0.0000
     79 H23        1.8542   12.7686    9.1382 H         1 RES1    0.0000
     80 H24        8.1736   10.5079    8.0305 H         1 RES1    0.0000
     81 H25        3.5226   18.7231   11.0628 H         1 RES1    0.0000
     82 H26       10.4487   15.3319    4.8599 H         1 RES1    0.0000
     83 H27        6.2789   17.6245   12.4612 H         1 RES1    0.0000
     84 H28        5.9197   19.2963    7.9198 H         1 RES1    0.0000
     85 H29       -1.0671   16.0961   13.1396 H         1 RES1    0.0000
     86 H30        5.8982   10.6830   12.6966 H         1 RES1    0.0000
     87 H31        7.5356   12.4661    6.9367 H         1 RES1    0.0000
     88 H32        3.3423   16.4305   10.4674 H         1 RES1    0.0000
     89 H33        4.6280   12.3388   11.7689 H         1 RES1    0.0000
     90 H34        5.1518   15.5707   11.8797 H         1 RES1    0.0000
     91 H35        5.6113   17.1310    7.2690 H         1 RES1    0.0000
     92 H36        1.3247   16.0484   12.6827 H         1 RES1    0.0000
     93 H37        9.3188   14.8543    7.1167 H         1 RES1    0.0000
     94 H38        2.5059   12.4025   11.3258 H         1 RES1    0.0000
     95 H39        1.2631   13.6125   11.2704 H         1 RES1    0.0000
@<TRIPOS>BOND
     1    1    7 1
     2    2   17 1
     3    3   23 2
     4    4   37 2
     5    5   15 1
     6    6   43 1
     7    7   31 2
     8    8   15 1
     9    9   23 1
    10   10   21 ar
    11   11   18 ar
    12   12   19 1
    13   13   25 ar
    14   14   19 1
    15   15   17 1
    16   16   19 1
    17   17   31 1
    18   18   29 ar
    19   19    2 1
    20   20   12 ar
    21   21   26 ar
    22   22   14 ar
    23   23    8 1
    24   24   16 ar
    25   25   32 ar
    26   26   35 ar
    27   27   20 ar
    28   28   22 ar
    29   29   40 ar
    30   30   24 ar
    31   31   33 1
    32   32   36 ar
    33   33    5 1
    34   34   27 ar
    35   35   41 ar
    36   36   49 ar
    37   37    9 1
    38   38   28 ar
    39   39   30 ar
    40   40   46 ar
    41   41   53 ar
    42   42   34 ar
    43   43   10 1
    44   44   37 1
    45   45   38 ar
    46   46   54 ar
    47   47   39 ar
    48   48    6 1
    49   49   56 ar
    50   50   14 ar
    51   51   12 ar
    52   52    8 1
    53   53   10 ar
    54   54   11 ar
    55   55   16 ar
    56   56   13 ar
    57   57    1 1
    58   58   15 1
    59   59   17 1
    60   60   18 1
    61   61   20 1
    62   62   21 1
    63   63   22 1
    64   64   24 1
    65   65   25 1
    66   66    9 1
    67   67   26 1
    68   68   27 1
    69   69   28 1
    70   70   30 1
    71   71   32 1
    72   72   29 1
    73   73   34 1
    74   74   35 1
    75   75   36 1
    76   76   38 1
    77   77   39 1
    78   78   40 1
    79   79   33 1
    80   80   42 1
    81   81   44 1
    82   82   45 1
    83   83   46 1
    84   84   47 1
    85   85   49 1
    86   86   41 1
    87   87   51 1
    88   88   52 1
    89   89   53 1
    90   90   54 1
    91   91   55 1
    92   92   56 1
    93   93   50 1
    94   94   48 1
    95   95   48 1
    96   11   43 1
    97   13   43 1
    98   33   48 1
    99   42   51 ar
   100   44   52 2
   101   45   50 ar
   102   47   55 ar
@<TRIPOS>SUBSTRUCTURE
     1 RES1 1

@<TRIPOS>CRYSIN
   8.9180   15.9210   13.9170  90.0000  95.8000  90.0000   4 1

