# MOL2 file generated by ConQuest
# Please check atom types

@<TRIPOS>MOLECULE
YEFFAR
    35    36     1
SMALL
NO_CHARGES
****
Generated from CSD

@<TRIPOS>ATOM
      1 O1         1.3948    3.8838    6.4596 O.2       1 RES1    0.0000
      2 O2        -0.4928    4.9141    6.4655 O.2       1 RES1    0.0000
      3 O3        -1.6532    7.8255    2.9668 O.2       1 RES1    0.0000
      4 O4        -0.4624    8.0354    1.1831 O.2       1 RES1    0.0000
      5 O5         7.6730    5.8248   -3.9871 O.3       1 RES1    0.0000
      6 N1         0.5839    4.6488    5.9526 N.pl3     1 RES1    0.0000
      7 N2        -0.6583    7.5570    2.3037 N.pl3     1 RES1    0.0000
      8 N3         1.8322    6.7957    0.9470 N.pl3     1 RES1    0.0000
      9 H1         1.2871    7.3453    0.5539 H         1 RES1    0.0000
     10 N4         2.9985    6.3972    0.3302 N.2       1 RES1    0.0000
     11 C1         2.4034    5.4427    2.8321 C.ar      1 RES1    0.0000
     12 H2         3.2050    5.2138    2.4224 H         1 RES1    0.0000
     13 C2         2.1164    4.9203    4.0515 C.ar      1 RES1    0.0000
     14 H3         2.7174    4.3446    4.4658 H         1 RES1    0.0000
     15 C3         0.9175    5.2509    4.6765 C.ar      1 RES1    0.0000
     16 C4         0.0318    6.1104    4.0969 C.ar      1 RES1    0.0000
     17 H4        -0.7605    6.3311    4.5294 H         1 RES1    0.0000
     18 C5         0.3242    6.6513    2.8568 C.ar      1 RES1    0.0000
     19 C6         1.5216    6.3229    2.1680 C.ar      1 RES1    0.0000
     20 C7         3.1814    6.9029   -0.8253 C.2       1 RES1    0.0000
     21 H5         2.5428    7.4886   -1.1635 H         1 RES1    0.0000
     22 C8         4.3473    6.6023   -1.6368 C.ar      1 RES1    0.0000
     23 C9         5.3686    5.7412   -1.2237 C.ar      1 RES1    0.0000
     24 H6         5.3105    5.3228   -0.3949 H         1 RES1    0.0000
     25 C10        6.4538    5.5081   -2.0267 C.ar      1 RES1    0.0000
     26 H7         7.1261    4.9324   -1.7413 H         1 RES1    0.0000
     27 C11        6.5565    6.1281   -3.2694 C.ar      1 RES1    0.0000
     28 C12        5.5532    6.9770   -3.6996 C.ar      1 RES1    0.0000
     29 H8         5.6105    7.3900   -4.5320 H         1 RES1    0.0000
     30 C13        4.4656    7.2040   -2.8801 C.ar      1 RES1    0.0000
     31 H9         3.7925    7.7770   -3.1698 H         1 RES1    0.0000
     32 C14        7.8971    6.5422   -5.2036 C.3       1 RES1    0.0000
     33 H10        7.2132    6.3165   -5.8387 H         1 RES1    0.0000
     34 H11        8.7559    6.3045   -5.5604 H         1 RES1    0.0000
     35 H12        7.8731    7.4852   -5.0277 H         1 RES1    0.0000
@<TRIPOS>BOND
     1    1    6 2
     2    2    6 2
     3    3    7 2
     4    4    7 2
     5    5   27 1
     6    6   15 1
     7    7   18 1
     8    8    9 1
     9   10    8 1
    10   11   12 1
    11   13   11 ar
    12   14   13 1
    13   15   13 ar
    14   16   15 ar
    15   17   16 1
    16   18   16 ar
    17   19    8 1
    18   20   10 2
    19   21   20 1
    20   22   20 1
    21   23   22 ar
    22   24   23 1
    23   25   23 ar
    24   26   25 1
    25   27   25 ar
    26   28   27 ar
    27   29   28 1
    28   30   22 ar
    29   31   30 1
    30   32    5 1
    31   33   32 1
    32   34   32 1
    33   35   32 1
    34   11   19 ar
    35   18   19 ar
    36   28   30 ar
@<TRIPOS>SUBSTRUCTURE
     1 RES1 1

@<TRIPOS>CRYSIN
   6.1890    8.5810   26.6690  90.0000  96.3920  90.0000 231 1

