# MOL2 file generated by ConQuest
# Please check atom types

@<TRIPOS>MOLECULE
YEFGOG
    67    57     2
SMALL
NO_CHARGES
****
Generated from CSD

@<TRIPOS>ATOM
      1 O1         7.9037    4.5459    5.6117 O.2       1 RES1    0.0000
      2 N1         6.8160    3.9026    5.7514 N.2       1 RES1    0.0000
      3 N2         6.5455    2.7426    5.3588 Du        2 SUP2    0.0000
      4 O2         6.5732    8.0592    8.1533 O.2       1 RES1    0.0000
      5 O3         4.6325    8.8853    7.7048 O.2       1 RES1    0.0000
      6 N3         5.4052    7.9472    7.7929 N.2       1 RES1    0.0000
      7 N4         4.0075    7.1849   10.2436 N.2       1 RES1    0.0000
      8 C1         5.7248    4.6136    6.4313 C.2       1 RES1    0.0000
      9 C2         5.9875    5.9204    6.8261 C.2       1 RES1    0.0000
     10 H1         6.8485    6.2958    6.6841 H         1 RES1    0.0000
     11 C3         4.9901    6.6769    7.4305 C.2       1 RES1    0.0000
     12 C4         3.7313    6.1279    7.6390 C.2       1 RES1    0.0000
     13 C5         3.4684    4.8211    7.2431 C.2       1 RES1    0.0000
     14 H2         2.6076    4.4456    7.3861 H         1 RES1    0.0000
     15 C6         4.4660    4.0645    6.6398 C.2       1 RES1    0.0000
     16 H3         4.2858    3.1713    6.3692 H         1 RES1    0.0000
     17 C7         2.5705    6.9187    8.3177 C.3       1 RES1    0.0000
     18 H4         2.3097    7.6550    7.7100 H         1 RES1    0.0000
     19 H5         1.7921    6.3114    8.3909 H         1 RES1    0.0000
     20 C8         7.5699    1.9717    4.6834 Du        2 SUP2    0.0000
     21 C9         7.0862    0.7301    4.2864 Du        2 SUP2    0.0000
     22 H6         6.1753    0.5062    4.4339 Du        2 SUP2    0.0000
     23 C10        7.9367   -0.1825    3.6731 Du        2 SUP2    0.0000
     24 C11        9.2700    0.1459    3.4569 Du        2 SUP2    0.0000
     25 C12        9.7527    1.3869    3.8539 Du        2 SUP2    0.0000
     26 H7        10.6639    1.6115    3.7064 Du        2 SUP2    0.0000
     27 C13        8.9032    2.3001    4.4672 Du        2 SUP2    0.0000
     28 H8         9.2330    3.1481    4.7389 Du        2 SUP2    0.0000
     29 C14       10.2938   -0.8211    2.8424 Du        2 SUP2    0.0000
     30 H9        11.1992   -0.4263    2.9112 Du        2 SUP2    0.0000
     31 H10       10.2906   -1.6697    3.3515 Du        2 SUP2    0.0000
     32 C15        2.8300    7.5235    9.7084 C.2       1 RES1    0.0000
     33 C16        1.8662    8.2539   10.4094 C.2       1 RES1    0.0000
     34 H11        1.0325    8.4667   10.0057 H         1 RES1    0.0000
     35 C17        2.1487    8.6601   11.6970 C.2       1 RES1    0.0000
     36 H12        1.5163    9.1682   12.1916 H         1 RES1    0.0000
     37 C18        3.3614    8.3177   12.2577 C.2       1 RES1    0.0000
     38 H13        3.5787    8.5821   13.1442 H         1 RES1    0.0000
     39 C19        4.2542    7.5831   11.5031 C.2       1 RES1    0.0000
     40 H14        5.0867    7.3466   11.8955 H         1 RES1    0.0000
     41 O1A        4.9062    1.8677    5.4786 O.2       1 RES1    0.0000
     42 N1A        5.9939    2.5110    5.3389 N.2       1 RES1    0.0000
     43 O2A        6.2367   -1.6456    2.9370 O.2       1 RES1    0.0000
     44 O3A        8.1774   -2.4717    3.3855 O.2       1 RES1    0.0000
     45 N3A        7.4047   -1.5336    3.2974 N.2       1 RES1    0.0000
     46 N4A        8.8024   -0.7714    0.8467 N.2       1 RES1    0.0000
     47 C1A        7.0850    1.8000    4.6590 C.2       1 RES1    0.0000
     48 C2A        6.8224    0.4932    4.2642 C.2       1 RES1    0.0000
     49 H1A        5.9614    0.1178    4.4062 H         1 RES1    0.0000
     50 C3A        7.8198   -0.2633    3.6598 C.2       1 RES1    0.0000
     51 C4A        9.0786    0.2857    3.4513 C.2       1 RES1    0.0000
     52 C5A        9.3415    1.5925    3.8472 C.2       1 RES1    0.0000
     53 H2A       10.2022    1.9679    3.7042 H         1 RES1    0.0000
     54 C6A        8.3439    2.3490    4.4505 C.2       1 RES1    0.0000
     55 H3A        8.5241    3.2423    4.7211 H         1 RES1    0.0000
     56 C7A       10.2394   -0.5051    2.7726 C.3       1 RES1    0.0000
     57 H4A       10.5002   -1.2415    3.3803 H         1 RES1    0.0000
     58 H5A       11.0178    0.1022    2.6994 H         1 RES1    0.0000
     59 C15A       9.9799   -1.1099    1.3820 C.2       1 RES1    0.0000
     60 C16A      10.9437   -1.8404    0.6809 C.2       1 RES1    0.0000
     61 H11A      11.7773   -2.0531    1.0846 H         1 RES1    0.0000
     62 C17A      10.6612   -2.2465   -0.6066 C.2       1 RES1    0.0000
     63 H12A      11.2936   -2.7547   -1.1013 H         1 RES1    0.0000
     64 C18A       9.4485   -1.9042   -1.1674 C.2       1 RES1    0.0000
     65 H13A       9.2312   -2.1686   -2.0539 H         1 RES1    0.0000
     66 C19A       8.5557   -1.1695   -0.4128 C.2       1 RES1    0.0000
     67 H14A       7.7232   -0.9331   -0.8052 H         1 RES1    0.0000
@<TRIPOS>BOND
     1    1    2 1
     2    2    8 1
     3    4    6 1
     4    5    6 1
     5    6   11 1
     6    7   32 1
     7    8    9 1
     8    9   10 1
     9   11    9 1
    10   12   11 1
    11   13   12 1
    12   14   13 1
    13   15    8 1
    14   16   15 1
    15   17   12 1
    16   18   17 1
    17   19   17 1
    18   32   17 1
    19   33   32 1
    20   34   33 1
    21   35   33 1
    22   36   35 1
    23   37   35 1
    24   38   37 1
    25   39    7 1
    26   40   39 1
    27   41   42 1
    28   42    2 1
    29   43   45 1
    30   44   45 1
    31   45   50 1
    32   46   59 1
    33   47   42 1
    34   48   47 1
    35   49   48 1
    36   50   48 1
    37   51   50 1
    38   52   51 1
    39   53   52 1
    40   54   47 1
    41   55   54 1
    42   56   51 1
    43   57   56 1
    44   58   56 1
    45   59   56 1
    46   60   59 1
    47   61   60 1
    48   62   60 1
    49   63   62 1
    50   64   62 1
    51   65   64 1
    52   66   46 1
    53   67   66 1
    54   13   15 1
    55   37   39 1
    56   52   54 1
    57   64   66 1
@<TRIPOS>SUBSTRUCTURE
     1 RES1 1
     2 SUP2 3

@<TRIPOS>CRYSIN
   7.2765    7.5673   11.2579  86.3850  80.1760  61.4850   2 1

