# MOL2 file generated by ConQuest
# Please check atom types

@<TRIPOS>MOLECULE
YEFGOG01
    80    57     2
SMALL
NO_CHARGES
****
Generated from CSD

@<TRIPOS>ATOM
      1 O1         5.3781    2.8673   14.2459 O.2       1 RES1    0.0000
      2 O2         5.7396    5.1579    8.2448 Du        2 SUP2    0.0000
      3 O3         5.7725    2.9713    8.0474 Du        2 SUP2    0.0000
      4 N1         5.0573    2.6822   13.0389 Du        2 SUP2    0.0000
      5 N2         5.8779    4.0667    8.4832 Du        2 SUP2    0.0000
      6 C1         5.8902    3.3407   12.0570 Du        2 SUP2    0.0000
      7 C2         5.5280    3.3574   10.7136 C.2       1 RES1    0.0000
      8 H1         4.7169    2.9483   10.4367 H         1 RES1    0.0000
      9 C3         6.3517    3.9702    9.7804 Du        2 SUP2    0.0000
     10 C4         7.5389    4.5703   10.1855 Du        2 SUP2    0.0000
     11 C5         7.9012    4.5548   11.5263 Du        2 SUP2    0.0000
     12 H2         8.7122    4.9640   11.8058 Du        2 SUP2    0.0000
     13 C6         7.0774    3.9400   12.4621 Du        2 SUP2    0.0000
     14 H3         7.3249    3.9290   13.3799 Du        2 SUP2    0.0000
     15 C7         8.5023    5.2922    9.1780 Du        2 SUP2    0.0000
     16 H4         8.0024    5.5494    8.3627 Du        2 SUP2    0.0000
     17 H5         8.8633    6.1160    9.5933 Du        2 SUP2    0.0000
     18 C8         9.6059    4.3940    8.8216 Du        2 SUP2    0.0000
     19 C9         9.9554    3.8766    7.5782 Du        2 SUP2    0.0000
     20 H6         9.4242    4.0713    6.8168 Du        2 SUP2    0.0000
     21 C10       11.0833    3.0721    7.4526 Du        2 SUP2    0.0000
     22 H7        11.3222    2.7204    6.6040 Du        2 SUP2    0.0000
     23 C11       11.8619    2.7909    8.5678 Du        2 SUP2    0.0000
     24 H8        12.6318    2.2403    8.4832 Du        2 SUP2    0.0000
     25 C12       11.5115    3.3071    9.8112 Du        2 SUP2    0.0000
     26 H9        12.0437    3.1115   10.5726 Du        2 SUP2    0.0000
     27 N3        10.3836    4.1087    9.9368 Du        2 SUP2    0.0000
     28 O4         4.6706    4.2593    8.1910 O.2       1 RES1    0.0000
     29 O5         6.6919    3.8464    7.5229 O.2       1 RES1    0.0000
     30 N4         4.6942    2.1932   13.0389 N.2       1 RES1    0.0000
     31 N5         5.8832    4.0172    8.5396 N.2       1 RES1    0.0000
     32 C13        5.5316    2.9294   12.0903 C.2       1 RES1    0.0000
     33 C14        3.4659    1.0366   14.9001 Du        2 SUP2    0.0000
     34 H10        4.2203    1.4248   15.3282 Du        2 SUP2    0.0000
     35 C15        6.1879    3.9534   10.0112 C.2       1 RES1    0.0000
     36 C16        7.2922    4.5200   10.6393 C.2       1 RES1    0.0000
     37 C17        7.5148    4.2916   11.9929 C.2       1 RES1    0.0000
     38 H11        8.2691    4.6786   12.4210 H         1 RES1    0.0000
     39 C18        6.6349    3.4972   12.7184 C.2       1 RES1    0.0000
     40 H12        6.7876    3.3415   13.6413 H         1 RES1    0.0000
     41 C19        8.3540    5.3173    9.8292 C.3       1 RES1    0.0000
     42 H13        8.7281    6.0241   10.4162 H         1 RES1    0.0000
     43 H14        7.8991    5.7689    9.0754 H         1 RES1    0.0000
     44 C20        9.4934    4.5032    9.2805 C.2       1 RES1    0.0000
     45 C21        9.5336    4.2052    7.9243 C.2       1 RES1    0.0000
     46 H15        8.8507    4.5237    7.3475 H         1 RES1    0.0000
     47 C22       10.5729    3.4330    7.4116 C.2       1 RES1    0.0000
     48 H16       10.6003    3.2307    6.4861 H         1 RES1    0.0000
     49 C23       11.5717    2.9671    8.2576 C.2       1 RES1    0.0000
     50 H17       12.2822    2.4413    7.9064 H         1 RES1    0.0000
     51 C24       11.5315    3.2651    9.6138 C.2       1 RES1    0.0000
     52 H18       12.2144    2.9449   10.1906 H         1 RES1    0.0000
     53 N6        10.4923    4.0331   10.1265 N.2       1 RES1    0.0000
     54 O1B        3.3958    1.3295   11.3909 O.2       1 RES1    0.0000
     55 C2B        3.2460    0.8394   14.9232 C.2       1 RES1    0.0000
     56 H1B        4.0570    1.2485   15.2001 H         1 RES1    0.0000
     57 O4B        4.1033   -0.0625   17.4459 O.2       1 RES1    0.0000
     58 O5B        2.0821    0.3504   18.1139 O.2       1 RES1    0.0000
     59 N4B        4.0797    2.0036   12.5979 N.2       1 RES1    0.0000
     60 N5B        2.8907    0.1796   17.0972 N.2       1 RES1    0.0000
     61 C13B       3.2424    1.2674   13.5465 C.2       1 RES1    0.0000
     62 C15B       2.5860    0.2434   15.6256 C.2       1 RES1    0.0000
     63 C16B       1.4817   -0.3232   14.9975 C.2       1 RES1    0.0000
     64 C17B       1.2592   -0.0948   13.6439 C.2       1 RES1    0.0000
     65 H11B       0.5048   -0.4818   13.2158 H         1 RES1    0.0000
     66 C18B       2.1390    0.6996   12.9184 C.2       1 RES1    0.0000
     67 H12B       1.9863    0.8553   11.9955 H         1 RES1    0.0000
     68 C19B       0.4199   -1.1205   15.8077 C.3       1 RES1    0.0000
     69 H13B       0.0459   -1.8273   15.2206 H         1 RES1    0.0000
     70 H14B       0.8748   -1.5721   16.5614 H         1 RES1    0.0000
     71 C20B      -0.7195   -0.3064   16.3563 C.2       1 RES1    0.0000
     72 C21B      -0.7597   -0.0084   17.7125 C.2       1 RES1    0.0000
     73 H15B      -0.0768   -0.3269   18.2893 H         1 RES1    0.0000
     74 C22B      -1.7989    0.7638   18.2252 C.2       1 RES1    0.0000
     75 H16B      -1.8264    0.9661   19.1507 H         1 RES1    0.0000
     76 C23B      -2.7978    1.2297   17.3792 C.2       1 RES1    0.0000
     77 H17B      -3.5083    1.7555   17.7304 H         1 RES1    0.0000
     78 C24B      -2.7576    0.9317   16.0230 C.2       1 RES1    0.0000
     79 H18B      -3.4404    1.2519   15.4462 H         1 RES1    0.0000
     80 N6B       -1.7183    0.1637   15.5103 N.2       1 RES1    0.0000
@<TRIPOS>BOND
     1    1   30 1
     2    7    8 1
     3   28   31 1
     4   29   31 1
     5   30   32 1
     6   31   35 1
     7   32    7 1
     8   35    7 1
     9   36   35 1
    10   37   36 1
    11   38   37 1
    12   39   32 1
    13   40   39 1
    14   41   36 1
    15   42   41 1
    16   43   41 1
    17   44   41 1
    18   45   44 1
    19   46   45 1
    20   47   45 1
    21   48   47 1
    22   49   47 1
    23   50   49 1
    24   51   49 1
    25   52   51 1
    26   53   44 1
    27   54   59 1
    28   55   56 1
    29   57   60 1
    30   58   60 1
    31   59   30 1
    32   60   62 1
    33   61   55 1
    34   62   55 1
    35   63   62 1
    36   64   63 1
    37   65   64 1
    38   66   61 1
    39   67   66 1
    40   68   63 1
    41   69   68 1
    42   70   68 1
    43   71   68 1
    44   72   71 1
    45   73   72 1
    46   74   72 1
    47   75   74 1
    48   76   74 1
    49   77   76 1
    50   78   76 1
    51   79   78 1
    52   80   71 1
    53   37   39 1
    54   51   53 1
    55   59   61 1
    56   64   66 1
    57   78   80 1
@<TRIPOS>SUBSTRUCTURE
     1 RES1 1
     2 SUP2 2

@<TRIPOS>CRYSIN
   9.9484    4.1968   25.6637  90.0000  92.6230  90.0000 231 1

