# MOL2 file generated by ConQuest
# Please check atom types

@<TRIPOS>MOLECULE
YEFSIN
    54    55     1
SMALL
NO_CHARGES
****
Generated from CSD

@<TRIPOS>ATOM
      1 C1         1.3805   -3.5248    8.1794 C.3       1 RES1    0.0000
      2 H1         1.4770   -3.8047    9.1141 H         1 RES1    0.0000
      3 H2         1.6074   -4.2732    7.5885 H         1 RES1    0.0000
      4 H3         0.4545   -3.2483    8.0148 H         1 RES1    0.0000
      5 C2         2.1068   -1.3537    8.7285 C.2       1 RES1    0.0000
      6 C3         3.1354   -0.2843    8.4317 C.3       1 RES1    0.0000
      7 H4         3.1641   -0.1212    7.4549 H         1 RES1    0.0000
      8 H5         4.0292   -0.6031    8.7154 H         1 RES1    0.0000
      9 C4         2.8147    1.0274    9.1542 C.3       1 RES1    0.0000
     10 H6         2.5792    0.7930   10.0981 H         1 RES1    0.0000
     11 C5         1.6197    1.7684    8.5665 C.ar      1 RES1    0.0000
     12 C6         0.7049    2.4176    9.4247 C.ar      1 RES1    0.0000
     13 C7         0.1972    3.0647   11.6775 C.3       1 RES1    0.0000
     14 H7         0.2968    4.0098   11.4369 H         1 RES1    0.0000
     15 H8         0.5307    2.9220   12.5869 H         1 RES1    0.0000
     16 H9        -0.7494    2.8141   11.6328 H         1 RES1    0.0000
     17 C8        -0.3662    3.1542    8.9122 C.ar      1 RES1    0.0000
     18 H10       -0.9719    3.5890    9.5012 H         1 RES1    0.0000
     19 C9        -0.5411    3.2470    7.5334 C.ar      1 RES1    0.0000
     20 H11       -1.2718    3.7436    7.1829 H         1 RES1    0.0000
     21 C10        0.3437    2.6194    6.6677 C.ar      1 RES1    0.0000
     22 H12        0.2220    2.6844    5.7288 H         1 RES1    0.0000
     23 C11        1.4140    1.8916    7.1901 C.ar      1 RES1    0.0000
     24 H13        2.0196    1.4677    6.5930 H         1 RES1    0.0000
     25 C12        4.0874    1.9313    9.2108 C.3       1 RES1    0.0000
     26 H14        4.8582    1.3637    9.5012 H         1 RES1    0.0000
     27 C13        3.8603    3.0061   10.2810 C.3       1 RES1    0.0000
     28 H15        3.0922    3.5756   10.0243 H         1 RES1    0.0000
     29 H16        3.6492    2.5746   11.1466 H         1 RES1    0.0000
     30 C14        4.4320    2.5407    7.8768 C.2       1 RES1    0.0000
     31 H17        3.9539    3.3151    7.6047 H         1 RES1    0.0000
     32 C15        5.3657    2.0620    7.0541 C.2       1 RES1    0.0000
     33 H18        5.8547    1.3064    7.3581 H         1 RES1    0.0000
     34 C16        5.7159    2.5860    5.7224 C.ar      1 RES1    0.0000
     35 C17        6.7381    1.9611    4.9896 C.ar      1 RES1    0.0000
     36 H19        7.1648    1.1938    5.3532 H         1 RES1    0.0000
     37 C18        7.1409    2.4355    3.7493 C.ar      1 RES1    0.0000
     38 H20        7.8366    1.9973    3.2746 H         1 RES1    0.0000
     39 C19        6.5184    3.5612    3.2032 C.ar      1 RES1    0.0000
     40 C20        6.2236    4.9929    1.3147 C.3       1 RES1    0.0000
     41 H21        5.2883    4.7065    1.2513 H         1 RES1    0.0000
     42 H22        6.5833    5.1311    0.4148 H         1 RES1    0.0000
     43 H23        6.2753    5.8315    1.8182 H         1 RES1    0.0000
     44 C21        5.4802    4.1892    3.9003 C.ar      1 RES1    0.0000
     45 H24        5.0427    4.9460    3.5281 H         1 RES1    0.0000
     46 C22        5.0927    3.6985    5.1444 C.ar      1 RES1    0.0000
     47 H25        4.3876    4.1291    5.6136 H         1 RES1    0.0000
     48 N1         5.0886    3.8516   10.4255 N.pl3     1 RES1    0.0000
     49 O1         1.2721   -1.3033    9.5895 O.2       1 RES1    0.0000
     50 O2         2.2701   -2.4125    7.9139 O.3       1 RES1    0.0000
     51 O3         0.9465    2.2600   10.7631 O.3       1 RES1    0.0000
     52 O4         6.0762    3.3390   10.9253 O.2       1 RES1    0.0000
     53 O5         5.0380    5.0093   10.0393 O.2       1 RES1    0.0000
     54 O6         6.9909    3.9799    1.9878 O.3       1 RES1    0.0000
@<TRIPOS>BOND
     1    1    2 1
     2    3    1 1
     3    4    1 1
     4    5    6 1
     5    6    7 1
     6    8    6 1
     7    9    6 1
     8   10    9 1
     9   11    9 1
    10   12   11 ar
    11   13   14 1
    12   15   13 1
    13   16   13 1
    14   17   12 ar
    15   18   17 1
    16   19   17 ar
    17   20   19 1
    18   21   19 ar
    19   22   21 1
    20   23   11 ar
    21   24   23 1
    22   25    9 1
    23   26   25 1
    24   27   25 1
    25   28   27 1
    26   29   27 1
    27   30   25 1
    28   31   30 1
    29   32   30 2
    30   33   32 1
    31   34   32 1
    32   35   34 ar
    33   36   35 1
    34   37   35 ar
    35   38   37 1
    36   39   37 ar
    37   40   41 1
    38   42   40 1
    39   43   40 1
    40   44   39 ar
    41   45   44 1
    42   46   34 ar
    43   47   46 1
    44   48   27 1
    45   49    5 2
    46   50    1 1
    47   51   12 1
    48   52   48 2
    49   53   48 2
    50   54   39 1
    51    5   50 1
    52   13   51 1
    53   21   23 ar
    54   40   54 1
    55   44   46 ar
@<TRIPOS>SUBSTRUCTURE
     1 RES1 1

@<TRIPOS>CRYSIN
   9.4383    9.5427   23.0680  90.0000  92.5920  90.0000 231 1

