# MOL2 file generated by ConQuest
# Please check atom types

@<TRIPOS>MOLECULE
YEFTEL
    82    86     1
SMALL
NO_CHARGES
****
Generated from CSD

@<TRIPOS>ATOM
      1 N1         9.4755    7.6031    3.5327 N.pl3     1 RES1    0.0000
      2 O1        10.4553    8.1711    3.0824 O.2       1 RES1    0.0000
      3 C1         9.4755    6.1283    3.5327 C.ar      1 RES1    0.0000
      4 C2        10.1206    5.4639    2.5024 C.ar      1 RES1    0.0000
      5 H1        10.5528    5.9354    1.8271 H         1 RES1    0.0000
      6 C3        10.1064    4.0768    2.5043 C.ar      1 RES1    0.0000
      7 C4         9.4755    3.3772    3.5327 C.ar      1 RES1    0.0000
      8 H2         9.4755    2.4474    3.5327 H         1 RES1    0.0000
      9 C5        10.7687    3.3772    1.3978 C.2       1 RES1    0.0000
     10 N2        11.2084    3.8981    0.3157 N.2       1 RES1    0.0000
     11 N3        11.7747    2.8454   -0.4314 N.2       1 RES1    0.0000
     12 C6        11.6223    1.7763    0.2756 C.2       1 RES1    0.0000
     13 O2        10.9852    2.0343    1.4654 O.3       1 RES1    0.0000
     14 C7        12.0729    0.4364   -0.0353 C.ar      1 RES1    0.0000
     15 C8        12.6666    0.2029   -1.2831 C.ar      1 RES1    0.0000
     16 H3        12.7164    0.8904   -1.9077 H         1 RES1    0.0000
     17 C9        13.1773   -1.0373   -1.5897 C.ar      1 RES1    0.0000
     18 H4        13.5697   -1.1831   -2.4206 H         1 RES1    0.0000
     19 C10       13.1121   -2.0735   -0.6670 C.ar      1 RES1    0.0000
     20 C11       12.4706   -1.8695    0.5553 C.ar      1 RES1    0.0000
     21 H5        12.3858   -2.5680    1.1630 H         1 RES1    0.0000
     22 C12       11.9627   -0.6184    0.8549 C.ar      1 RES1    0.0000
     23 H6        11.5379   -0.4825    1.6703 H         1 RES1    0.0000
     24 O3        13.7000   -3.2314   -1.0503 O.3       1 RES1    0.0000
     25 C13       13.8039   -4.3125   -0.0933 C.3       1 RES1    0.0000
     26 H7        12.9356   -4.7237    0.0480 H         1 RES1    0.0000
     27 H8        14.1302   -3.9803    0.7574 H         1 RES1    0.0000
     28 C14       14.7979   -5.3389   -0.6896 C.3       1 RES1    0.0000
     29 H9        15.6393   -4.8970   -0.8747 H         1 RES1    0.0000
     30 H10       14.9644   -6.0384   -0.0382 H         1 RES1    0.0000
     31 C15       14.2885   -5.9365   -1.9147 C.3       1 RES1    0.0000
     32 H11       14.0011   -5.2314   -2.5153 H         1 RES1    0.0000
     33 H12       13.5153   -6.4836   -1.7042 H         1 RES1    0.0000
     34 C16       15.4008   -6.8487   -2.6580 C.3       1 RES1    0.0000
     35 H13       15.0741   -7.0746   -3.5426 H         1 RES1    0.0000
     36 H14       16.2102   -6.3257   -2.7668 H         1 RES1    0.0000
     37 C17       15.7074   -7.9968   -1.9981 C.3       1 RES1    0.0000
     38 H15       14.8879   -8.4595   -1.7565 H         1 RES1    0.0000
     39 H16       16.1835   -7.7830   -1.1813 H         1 RES1    0.0000
     40 C18       16.5814   -8.9211   -2.8770 C.3       1 RES1    0.0000
     41 H17       16.7509   -9.7413   -2.4079 H         1 RES1    0.0000
     42 H18       17.4141   -8.4847   -3.0692 H         1 RES1    0.0000
     43 H19       16.1227   -9.1108   -3.6981 H         1 RES1    0.0000
     44 O1A        8.4956    8.1711    3.9831 O.2       1 RES1    0.0000
     45 C2A        8.8303    5.4639    4.5630 C.ar      1 RES1    0.0000
     46 H1A        8.3981    5.9354    5.2383 H         1 RES1    0.0000
     47 C3A        8.8445    4.0768    4.5612 C.ar      1 RES1    0.0000
     48 C5A        8.1822    3.3772    5.6676 C.2       1 RES1    0.0000
     49 N2A        7.7425    3.8981    6.7498 N.2       1 RES1    0.0000
     50 N3A        7.1762    2.8454    7.4969 N.2       1 RES1    0.0000
     51 C6A        7.3286    1.7763    6.7899 C.2       1 RES1    0.0000
     52 O2A        7.9657    2.0343    5.6001 O.3       1 RES1    0.0000
     53 C7A        6.8780    0.4364    7.1008 C.ar      1 RES1    0.0000
     54 C8A        6.2843    0.2029    8.3485 C.ar      1 RES1    0.0000
     55 H3A        6.2345    0.8904    8.9731 H         1 RES1    0.0000
     56 C9A        5.7736   -1.0373    8.6552 C.ar      1 RES1    0.0000
     57 H4A        5.3812   -1.1831    9.4861 H         1 RES1    0.0000
     58 C10A       5.8388   -2.0735    7.7324 C.ar      1 RES1    0.0000
     59 C11A       6.4803   -1.8695    6.5101 C.ar      1 RES1    0.0000
     60 H5A        6.5651   -2.5680    5.9025 H         1 RES1    0.0000
     61 C12A       6.9882   -0.6184    6.2105 C.ar      1 RES1    0.0000
     62 H6A        7.4130   -0.4825    5.3952 H         1 RES1    0.0000
     63 O3A        5.2509   -3.2314    8.1158 O.3       1 RES1    0.0000
     64 C13A       5.1470   -4.3125    7.1587 C.3       1 RES1    0.0000
     65 H7A        6.0153   -4.7237    7.0174 H         1 RES1    0.0000
     66 H8A        4.8207   -3.9803    6.3080 H         1 RES1    0.0000
     67 C14A       4.1530   -5.3389    7.7550 C.3       1 RES1    0.0000
     68 H9A        3.3116   -4.8970    7.9401 H         1 RES1    0.0000
     69 H10A       3.9865   -6.0384    7.1036 H         1 RES1    0.0000
     70 C15A       4.6624   -5.9365    8.9802 C.3       1 RES1    0.0000
     71 H11A       4.9498   -5.2314    9.5807 H         1 RES1    0.0000
     72 H12A       5.4356   -6.4836    8.7696 H         1 RES1    0.0000
     73 C16A       3.5501   -6.8487    9.7235 C.3       1 RES1    0.0000
     74 H13A       3.8768   -7.0746   10.6081 H         1 RES1    0.0000
     75 H14A       2.7407   -6.3257    9.8323 H         1 RES1    0.0000
     76 C17A       3.2435   -7.9968    9.0636 C.3       1 RES1    0.0000
     77 H15A       4.0630   -8.4595    8.8219 H         1 RES1    0.0000
     78 H16A       2.7674   -7.7830    8.2468 H         1 RES1    0.0000
     79 C18A       2.3695   -8.9211    9.9425 C.3       1 RES1    0.0000
     80 H17A       2.2000   -9.7413    9.4733 H         1 RES1    0.0000
     81 H18A       1.5368   -8.4847   10.1347 H         1 RES1    0.0000
     82 H19A       2.8282   -9.1108   10.7635 H         1 RES1    0.0000
@<TRIPOS>BOND
     1    1    2 2
     2    3    1 1
     3    4    3 ar
     4    5    4 1
     5    6    4 ar
     6    7    6 ar
     7    8    7 1
     8    9    6 1
     9   10    9 2
    10   11   10 1
    11   12   11 2
    12   13    9 1
    13   14   12 1
    14   15   14 ar
    15   16   15 1
    16   17   15 ar
    17   18   17 1
    18   19   17 ar
    19   20   19 ar
    20   21   20 1
    21   22   14 ar
    22   23   22 1
    23   24   19 1
    24   25   24 1
    25   26   25 1
    26   27   25 1
    27   28   25 1
    28   29   28 1
    29   30   28 1
    30   31   28 1
    31   32   31 1
    32   33   31 1
    33   34   31 1
    34   35   34 1
    35   36   34 1
    36   37   34 1
    37   38   37 1
    38   39   37 1
    39   40   37 1
    40   41   40 1
    41   42   40 1
    42   43   40 1
    43   44    1 2
    44   45    3 ar
    45   46   45 1
    46   47    7 ar
    47   48   47 1
    48   49   48 2
    49   50   49 1
    50   51   50 2
    51   52   48 1
    52   53   51 1
    53   54   53 ar
    54   55   54 1
    55   56   54 ar
    56   57   56 1
    57   58   56 ar
    58   59   58 ar
    59   60   59 1
    60   61   53 ar
    61   62   61 1
    62   63   58 1
    63   64   63 1
    64   65   64 1
    65   66   64 1
    66   67   64 1
    67   68   67 1
    68   69   67 1
    69   70   67 1
    70   71   70 1
    71   72   70 1
    72   73   70 1
    73   74   73 1
    74   75   73 1
    75   76   73 1
    76   77   76 1
    77   78   76 1
    78   79   76 1
    79   80   79 1
    80   81   79 1
    81   82   79 1
    82   12   13 1
    83   20   22 ar
    84   45   47 ar
    85   51   52 1
    86   59   61 ar
@<TRIPOS>SUBSTRUCTURE
     1 RES1 1

@<TRIPOS>CRYSIN
  20.5830   10.9650   14.5030  90.0000 103.0070  90.0000  15 1

