# MOL2 file generated by ConQuest
# Please check atom types

@<TRIPOS>MOLECULE
YEFWEO
    39    40     1
SMALL
NO_CHARGES
****
Generated from CSD

@<TRIPOS>ATOM
      1 C1         2.5682   -4.0511    9.1708 C.ar      1 RES1    0.0000
      2 N1         2.2965   -5.3050    9.8749 N.pl3     1 RES1    0.0000
      3 C2         4.6541    2.3128    3.7419 C.ar      1 RES1    0.0000
      4 C3         2.7023   -1.6903    9.1912 C.ar      1 RES1    0.0000
      5 H1         2.6157   -0.8785    9.6366 H         1 RES1    0.0000
      6 C4         3.0981   -1.7017    7.8527 C.ar      1 RES1    0.0000
      7 N2         4.0755    0.9485    5.6115 N.2       1 RES1    0.0000
      8 O1         2.0165   -5.2484   11.0706 O.2       1 RES1    0.0000
      9 C5         4.3920    1.0306    4.3740 C.2       1 RES1    0.0000
     10 H2         4.4560    0.2531    3.8677 H         1 RES1    0.0000
     11 N3         3.8435   -0.3814    6.0028 N.2       1 RES1    0.0000
     12 O2         2.3620   -6.3550    9.2506 O.2       1 RES1    0.0000
     13 C6         4.6319    3.5038    4.4607 C.ar      1 RES1    0.0000
     14 H3         4.4808    3.4837    5.3786 H         1 RES1    0.0000
     15 C7         4.8302    4.7063    3.8331 C.ar      1 RES1    0.0000
     16 H4         4.8078    5.4892    4.3337 H         1 RES1    0.0000
     17 C8         3.2010   -2.9194    7.1846 C.ar      1 RES1    0.0000
     18 H5         3.4499   -2.9341    6.2888 H         1 RES1    0.0000
     19 C9         5.0645    4.7805    2.4602 C.ar      1 RES1    0.0000
     20 C10        3.4037   -0.4341    7.2002 C.2       1 RES1    0.0000
     21 H6         3.2742    0.3580    7.6700 H         1 RES1    0.0000
     22 C11        2.9376   -4.1045    7.8384 C.ar      1 RES1    0.0000
     23 H7         3.0067   -4.9190    7.3953 H         1 RES1    0.0000
     24 C12        4.9023    2.3749    2.3697 C.ar      1 RES1    0.0000
     25 H8         4.9312    1.5900    1.8716 H         1 RES1    0.0000
     26 C13        2.4383   -2.8642    9.8610 C.ar      1 RES1    0.0000
     27 H9         2.1798   -2.8573   10.7547 H         1 RES1    0.0000
     28 C14        5.1039    3.5893    1.7436 C.ar      1 RES1    0.0000
     29 H10        5.2688    3.6106    0.8293 H         1 RES1    0.0000
     30 C15        5.2246    6.1239    1.7816 C.3       1 RES1    0.0000
     31 H11        5.3800    6.7914    2.4814 H         1 RES1    0.0000
     32 C16        6.4166    6.1659    0.8343 C.3       1 RES1    0.0000
     33 H12        7.2058    5.8805    1.3004 H         1 RES1    0.0000
     34 H13        6.5396    7.0626    0.5148 H         1 RES1    0.0000
     35 H14        6.2550    5.5810    0.0911 H         1 RES1    0.0000
     36 C17        3.9354    6.5080    1.0557 C.3       1 RES1    0.0000
     37 H15        3.7382    5.8511    0.3838 H         1 RES1    0.0000
     38 H16        4.0458    7.3668    0.6406 H         1 RES1    0.0000
     39 H17        3.2128    6.5475    1.6868 H         1 RES1    0.0000
@<TRIPOS>BOND
     1    1    2 1
     2    2    8 2
     3    3    9 1
     4    4    5 1
     5    6    4 ar
     6    7    9 2
     7    9   10 1
     8   11    7 1
     9   12    2 2
    10   13    3 ar
    11   14   13 1
    12   15   13 ar
    13   16   15 1
    14   17    6 ar
    15   18   17 1
    16   19   15 ar
    17   20    6 1
    18   21   20 1
    19   22    1 ar
    20   23   22 1
    21   24    3 ar
    22   25   24 1
    23   26    1 ar
    24   27   26 1
    25   28   19 ar
    26   29   28 1
    27   30   19 1
    28   31   30 1
    29   32   30 1
    30   33   32 1
    31   34   32 1
    32   35   32 1
    33   36   30 1
    34   37   36 1
    35   38   36 1
    36   39   36 1
    37    4   26 ar
    38   11   20 2
    39   17   22 ar
    40   24   28 ar
@<TRIPOS>SUBSTRUCTURE
     1 RES1 1

@<TRIPOS>CRYSIN
   7.0745    8.1086   13.3297  95.4690 104.2950  92.8640   2 1

