# MOL2 file generated by ConQuest
# Please check atom types

@<TRIPOS>MOLECULE
YEFYEO
    25    26     1
SMALL
NO_CHARGES
****
Generated from CSD

@<TRIPOS>ATOM
      1 O1        -1.0071    1.9783    3.1614 O.3       1 RES1    0.0000
      2 O2         1.9789    0.3628    1.9614 O.3       1 RES1    0.0000
      3 H1         1.7184    0.4748    1.1929 H         1 RES1    0.0000
      4 O3         1.6137    2.9932    1.4252 O.3       1 RES1    0.0000
      5 O4        -1.2462    3.1750    0.7569 O.3       1 RES1    0.0000
      6 H2        -2.2202    3.0385    1.0519 H         1 RES1    0.0000
      7 O5         0.4777   -1.2987    4.6895 O.2       1 RES1    0.0000
      8 O6         2.5778   -1.4366    4.3137 O.2       1 RES1    0.0000
      9 N1         1.5459   -0.7923    4.4400 N.pl3     1 RES1    0.0000
     10 C1        -0.3377    0.8570    2.5645 C.3       1 RES1    0.0000
     11 H3        -0.5041    0.8275    1.6091 H         1 RES1    0.0000
     12 H4        -0.6429    0.0251    2.9609 H         1 RES1    0.0000
     13 C2         1.1470    1.0760    2.8472 C.3       1 RES1    0.0000
     14 C3         1.2517    2.6161    2.7581 C.3       1 RES1    0.0000
     15 H5         1.8715    2.9810    3.4241 H         1 RES1    0.0000
     16 C4        -0.1807    3.1132    2.9736 C.3       1 RES1    0.0000
     17 H6        -0.2204    3.6922    3.7643 H         1 RES1    0.0000
     18 C5        -0.4969    3.9364    1.6957 C.3       1 RES1    0.0000
     19 H7        -0.9509    4.7768    1.9157 H         1 RES1    0.0000
     20 C6         0.8710    4.1878    1.1235 C.3       1 RES1    0.0000
     21 H8         0.8231    4.3322    0.1656 H         1 RES1    0.0000
     22 H9         1.2815    4.9636    1.5375 H         1 RES1    0.0000
     23 C7         1.5944    0.6882    4.2491 C.3       1 RES1    0.0000
     24 H10        2.5001    1.0028    4.3977 H         1 RES1    0.0000
     25 H11        1.0181    1.1170    4.9012 H         1 RES1    0.0000
@<TRIPOS>BOND
     1    1   10 1
     2    2    3 1
     3    4   14 1
     4    5    6 1
     5    7    9 2
     6    8    9 2
     7    9   23 1
     8   10   11 1
     9   12   10 1
    10   13    2 1
    11   14   13 1
    12   15   14 1
    13   16    1 1
    14   17   16 1
    15   18    5 1
    16   19   18 1
    17   20    4 1
    18   21   20 1
    19   22   20 1
    20   23   13 1
    21   24   23 1
    22   25   23 1
    23   10   13 1
    24   14   16 1
    25   16   18 1
    26   18   20 1
@<TRIPOS>SUBSTRUCTURE
     1 RES1 1

@<TRIPOS>CRYSIN
   5.5093    7.1832   22.3800  90.0000  90.0000  90.0000  19 1

