# MOL2 file generated by ConQuest
# Please check atom types

@<TRIPOS>MOLECULE
YEHGIB
    42    42     1
SMALL
NO_CHARGES
****
Generated from CSD

@<TRIPOS>ATOM
      1 N1         3.7153    8.2685    2.8777 N.3       1 RES1    0.0000
      2 O1         4.7515    7.5026    3.6064 O.3       1 RES1    0.0000
      3 C1         3.9313    7.9048    1.4393 C.3       1 RES1    0.0000
      4 C2         4.7002    6.5743    1.4932 C.3       1 RES1    0.0000
      5 C3         4.6812    6.2400    2.9882 C.3       1 RES1    0.0000
      6 C4         3.9828    9.6867    3.2677 C.3       1 RES1    0.0000
      7 C5         3.7426    9.7870    4.7609 C.3       1 RES1    0.0000
      8 C6         5.3904   10.1677    2.9092 C.3       1 RES1    0.0000
      9 C7         2.9506   10.5451    2.5255 C.3       1 RES1    0.0000
     10 C8         2.5873    7.7539    0.7304 C.3       1 RES1    0.0000
     11 C9         2.7556    7.6192   -0.7700 C.3       1 RES1    0.0000
     12 C10        6.1277    6.6678    1.0081 C.2       1 RES1    0.0000
     13 O2         6.7131    7.6698    0.7053 O.2       1 RES1    0.0000
     14 O3         6.6942    5.4574    1.0117 O.3       1 RES1    0.0000
     15 C11        8.0731    5.3953    0.6388 C.3       1 RES1    0.0000
     16 C12        3.4461    5.4495    3.4123 C.2       1 RES1    0.0000
     17 O4         2.8214    4.7310    2.6882 O.2       1 RES1    0.0000
     18 O5         3.1920    5.6158    4.6935 O.3       1 RES1    0.0000
     19 C13        2.1003    4.8397    5.2344 C.3       1 RES1    0.0000
     20 H1         4.4618    8.5767    1.0045 H         1 RES1    0.0000
     21 H2         4.2270    5.9008    0.9991 H         1 RES1    0.0000
     22 H3         5.4679    5.7363    3.2084 H         1 RES1    0.0000
     23 H4         4.3892    9.2489    5.2245 H         1 RES1    0.0000
     24 H5         3.8282   10.7018    5.0394 H         1 RES1    0.0000
     25 H6         2.8588    9.4714    4.9648 H         1 RES1    0.0000
     26 H7         6.0387    9.6304    3.3701 H         1 RES1    0.0000
     27 H8         5.5251   10.0873    1.9613 H         1 RES1    0.0000
     28 H9         5.4911   11.0858    3.1697 H         1 RES1    0.0000
     29 H10        2.0667   10.2455    2.7493 H         1 RES1    0.0000
     30 H11        3.0523   11.4635    2.7870 H         1 RES1    0.0000
     31 H12        3.0864   10.4650    1.5786 H         1 RES1    0.0000
     32 H13        2.0417    8.5211    0.9182 H         1 RES1    0.0000
     33 H14        2.1352    6.9782    1.0701 H         1 RES1    0.0000
     34 H15        1.8938    7.5260   -1.1824 H         1 RES1    0.0000
     35 H16        3.1927    8.4012   -1.1150 H         1 RES1    0.0000
     36 H17        3.2872    6.8437   -0.9622 H         1 RES1    0.0000
     37 H18        8.3743    4.4845    0.6765 H         1 RES1    0.0000
     38 H19        8.1707    5.7265   -0.2570 H         1 RES1    0.0000
     39 H20        8.5986    5.9313    1.2372 H         1 RES1    0.0000
     40 H21        1.9992    5.0358    6.1688 H         1 RES1    0.0000
     41 H22        1.2888    5.0601    4.7717 H         1 RES1    0.0000
     42 H23        2.2885    3.9054    5.1221 H         1 RES1    0.0000
@<TRIPOS>BOND
     1    1    2 1
     2    2    5 1
     3    3    1 1
     4    4    3 1
     5    5    4 1
     6    6    1 1
     7    7    6 1
     8    8    6 1
     9    9    6 1
    10   10    3 1
    11   11   10 1
    12   12    4 1
    13   13   12 2
    14   14   12 1
    15   15   14 1
    16   16    5 1
    17   17   16 2
    18   18   16 1
    19   19   18 1
    20   20    3 1
    21   21    4 1
    22   22    5 1
    23   23    7 1
    24   24    7 1
    25   25    7 1
    26   26    8 1
    27   27    8 1
    28   28    8 1
    29   29    9 1
    30   30    9 1
    31   31    9 1
    32   32   10 1
    33   33   10 1
    34   34   11 1
    35   35   11 1
    36   36   11 1
    37   37   15 1
    38   38   15 1
    39   39   15 1
    40   40   19 1
    41   41   19 1
    42   42   19 1
@<TRIPOS>SUBSTRUCTURE
     1 RES1 1

@<TRIPOS>CRYSIN
   8.9530    9.3690    9.6960  68.3400  83.3500  83.0600   2 1

