# MOL2 file generated by ConQuest
# Please check atom types

@<TRIPOS>MOLECULE
YEJCOH
    25    25     1
SMALL
NO_CHARGES
****
Generated from CSD

@<TRIPOS>ATOM
      1 N1         6.0811    5.0569    6.4151 N.pl3     1 RES1    0.0000
      2 N2         5.7493    7.9353    7.0081 N.3       1 RES1    0.0000
      3 H1         6.1537    7.6933    6.2883 H         1 RES1    0.0000
      4 O1         3.4790    2.7947    9.9479 O.3       1 RES1    0.0000
      5 O2         2.9565    4.3247   11.5030 O.2       1 RES1    0.0000
      6 O3         6.1064    3.8478    6.2300 O.2       1 RES1    0.0000
      7 O4         6.6458    5.8458    5.6461 O.2       1 RES1    0.0000
      8 C1         3.4642    4.0347   10.4374 C.2       1 RES1    0.0000
      9 C2         4.1229    5.0181    9.5488 C.ar      1 RES1    0.0000
     10 C3         4.7964    4.6344    8.4026 C.ar      1 RES1    0.0000
     11 H2         4.8629    3.7309    8.1908 H         1 RES1    0.0000
     12 C4         5.3762    5.5809    7.5632 C.ar      1 RES1    0.0000
     13 C5         5.2797    6.9671    7.8151 C.ar      1 RES1    0.0000
     14 C6         4.6064    7.3190    9.0221 C.ar      1 RES1    0.0000
     15 H3         4.5389    8.2164    9.2550 H         1 RES1    0.0000
     16 C7         4.0587    6.3820    9.8444 C.ar      1 RES1    0.0000
     17 H4         3.6311    6.6573   10.6225 H         1 RES1    0.0000
     18 C8         2.8781    1.7786   10.7910 C.3       1 RES1    0.0000
     19 H5         3.4253    1.6426   11.5681 H         1 RES1    0.0000
     20 H6         2.8087    0.9560   10.3007 H         1 RES1    0.0000
     21 H7         2.0029    2.0651   11.0617 H         1 RES1    0.0000
     22 C9         5.6236    9.3574    7.2643 C.3       1 RES1    0.0000
     23 H8         4.6943    9.5923    7.3110 H         1 RES1    0.0000
     24 H9         6.0431    9.8487    6.5543 H         1 RES1    0.0000
     25 H10        6.0509    9.5708    8.0978 H         1 RES1    0.0000
@<TRIPOS>BOND
     1    1    6 2
     2    2    3 1
     3    4    8 1
     4    5    8 2
     5    7    1 2
     6    8    9 1
     7    9   10 ar
     8   10   11 1
     9   12    1 1
    10   13    2 1
    11   14   13 ar
    12   15   14 1
    13   16    9 ar
    14   17   16 1
    15   18    4 1
    16   19   18 1
    17   20   18 1
    18   21   18 1
    19   22    2 1
    20   23   22 1
    21   24   22 1
    22   25   22 1
    23   10   12 ar
    24   12   13 ar
    25   14   16 ar
@<TRIPOS>SUBSTRUCTURE
     1 RES1 1

@<TRIPOS>CRYSIN
   7.8167    8.6045   14.3211  90.0000  92.7580  90.0000 231 1

