# MOL2 file generated by ConQuest
# Please check atom types

@<TRIPOS>MOLECULE
YEJJEF
    90    93     3
SMALL
NO_CHARGES
****
Generated from CSD

@<TRIPOS>ATOM
      1 C1         1.2884    0.6093    4.7528 C.3       1 RES1    0.0000
      2 H1         1.1845   -0.1247    4.1116 H         1 RES1    0.0000
      3 H2         1.6407    1.3987    4.2911 H         1 RES1    0.0000
      4 H3         0.4181    0.8232    5.1486 H         1 RES1    0.0000
      5 O1         2.1980    0.2153    5.7849 O.3       1 RES1    0.0000
      6 C2         2.5158    1.1526    6.7312 C.ar      1 RES1    0.0000
      7 C3         3.4177    0.7358    7.7057 C.ar      1 RES1    0.0000
      8 H4         3.7554   -0.1522    7.6909 H         1 RES1    0.0000
      9 C4         3.8230    1.6091    8.6912 C.ar      1 RES1    0.0000
     10 H5         4.4432    1.3189    9.3494 H         1 RES1    0.0000
     11 C5         3.3310    2.9124    8.7331 C.ar      1 RES1    0.0000
     12 C6         2.4176    3.3057    7.7552 C.ar      1 RES1    0.0000
     13 H6         2.0690    4.1896    7.7740 H         1 RES1    0.0000
     14 C7         2.0076    2.4402    6.7610 C.ar      1 RES1    0.0000
     15 H7         1.3846    2.7254    6.1034 H         1 RES1    0.0000
     16 C8         3.7163    3.8180    9.7751 C.1       1 RES1    0.0000
     17 C9         4.0310    4.5672   10.6553 C.1       1 RES1    0.0000
     18 C10        4.4547    5.4403   11.7095 C.ar      1 RES1    0.0000
     19 C11        5.4923    5.0485   12.5559 C.ar      1 RES1    0.0000
     20 H8         5.8996    4.2000   12.4295 H         1 RES1    0.0000
     21 C12        5.9377    5.8654   13.5709 C.ar      1 RES1    0.0000
     22 H9         6.6474    5.5958   14.1414 H         1 RES1    0.0000
     23 C13        5.3206    7.0898   13.7331 C.ar      1 RES1    0.0000
     24 C14        4.2952    7.5203   12.9167 C.ar      1 RES1    0.0000
     25 H10        3.8960    8.3719   13.0500 H         1 RES1    0.0000
     26 C15        3.8613    6.6911   11.9033 C.ar      1 RES1    0.0000
     27 H11        3.1551    6.9724   11.3335 H         1 RES1    0.0000
     28 N1         5.7648    7.9556   14.8246 N.pl3     1 RES1    0.0000
     29 O2         6.7388    7.6066   15.4852 O.2       1 RES1    0.0000
     30 O3         5.1423    8.9847   15.0562 O.2       1 RES1    0.0000
     31 C16        9.7491   10.1635    5.2414 C.3       2 RES2    0.0000
     32 H12       10.2026   10.5062    6.0393 H         2 RES2    0.0000
     33 H13        8.7788   10.2312    5.3625 H         2 RES2    0.0000
     34 H14       10.0181   10.6911    4.4604 H         2 RES2    0.0000
     35 O4        10.1090    8.7967    5.0391 O.3       2 RES2    0.0000
     36 C17        9.5745    8.1619    3.9596 C.ar      2 RES2    0.0000
     37 C18        8.7568    8.7603    3.0119 C.ar      2 RES2    0.0000
     38 H15        8.5279    9.6784    3.0925 H         2 RES2    0.0000
     39 C19        8.2769    8.0173    1.9521 C.ar      2 RES2    0.0000
     40 H16        7.7159    8.4351    1.3089 H         2 RES2    0.0000
     41 C20        8.5959    6.6741    1.8054 C.ar      2 RES2    0.0000
     42 C21        9.4187    6.0872    2.7808 C.ar      2 RES2    0.0000
     43 H17        9.6442    5.1666    2.7091 H         2 RES2    0.0000
     44 C22        9.9005    6.8193    3.8346 C.ar      2 RES2    0.0000
     45 H18       10.4600    6.4058    4.4817 H         2 RES2    0.0000
     46 C23        8.0974    5.8958    0.7165 C.1       2 RES2    0.0000
     47 C24        7.6746    5.2215   -0.1893 C.1       2 RES2    0.0000
     48 C25        7.1560    4.4777   -1.3005 C.ar      2 RES2    0.0000
     49 C26        6.3626    5.1110   -2.2540 C.ar      2 RES2    0.0000
     50 H19        6.1609    6.0349   -2.1577 H         2 RES2    0.0000
     51 C27        5.8646    4.4146   -3.3365 C.ar      2 RES2    0.0000
     52 H20        5.3249    4.8499   -3.9865 H         2 RES2    0.0000
     53 C28        6.1647    3.0813   -3.4539 C.ar      2 RES2    0.0000
     54 C29        6.9435    2.4098   -2.5331 C.ar      2 RES2    0.0000
     55 H21        7.1358    1.4866   -2.6424 H         2 RES2    0.0000
     56 C30        7.4348    3.1089   -1.4517 C.ar      2 RES2    0.0000
     57 H22        7.9666    2.6620   -0.8037 H         2 RES2    0.0000
     58 N2         5.6451    2.3429   -4.6177 N.pl3     2 RES2    0.0000
     59 O5         4.8720    2.9251   -5.3771 O.2       2 RES2    0.0000
     60 O6         6.0032    1.1819   -4.7799 O.2       2 RES2    0.0000
     61 C31        4.9849    1.4289    0.7328 C.3       3 RES3    0.0000
     62 H23        4.5206    0.7506    0.1993 H         3 RES3    0.0000
     63 H24        5.9515    1.3464    0.5976 H         3 RES3    0.0000
     64 H25        4.6907    2.3214    0.4535 H         3 RES3    0.0000
     65 O7         4.6788    1.2385    2.1158 O.3       3 RES3    0.0000
     66 C32        5.2116    2.1519    2.9883 C.ar      3 RES3    0.0000
     67 C33        6.0274    3.2058    2.6285 C.ar      3 RES3    0.0000
     68 H26        6.2780    3.3268    1.7204 H         3 RES3    0.0000
     69 C34        6.4761    4.0824    3.5966 C.ar      3 RES3    0.0000
     70 H27        7.0337    4.8083    3.3430 H         3 RES3    0.0000
     71 C35        6.1289    3.9253    4.9391 C.ar      3 RES3    0.0000
     72 C36        5.3233    2.8346    5.2900 C.ar      3 RES3    0.0000
     73 H28        5.0803    2.7011    6.1988 H         3 RES3    0.0000
     74 C37        4.8791    1.9556    4.3279 C.ar      3 RES3    0.0000
     75 H29        4.3441    1.2110    4.5779 H         3 RES3    0.0000
     76 C38        6.5807    4.8518    5.9356 C.1       3 RES3    0.0000
     77 C39        6.9412    5.6399    6.7647 C.1       3 RES3    0.0000
     78 C40        7.3757    6.5130    7.8128 C.ar      3 RES3    0.0000
     79 C41        8.3768    7.4587    7.6183 C.ar      3 RES3    0.0000
     80 H30        8.7617    7.5607    6.7557 H         3 RES3    0.0000
     81 C42        8.8220    8.2539    8.6578 C.ar      3 RES3    0.0000
     82 H31        9.4973    8.9067    8.5197 H         3 RES3    0.0000
     83 C43        8.2547    8.0699    9.9030 C.ar      3 RES3    0.0000
     84 C44        7.2329    7.1741   10.1323 C.ar      3 RES3    0.0000
     85 H32        6.8458    7.0873   10.9954 H         3 RES3    0.0000
     86 C45        6.7894    6.4079    9.0801 C.ar      3 RES3    0.0000
     87 H33        6.0728    5.7986    9.2152 H         3 RES3    0.0000
     88 N3         8.7782    8.8362   11.0384 N.pl3     3 RES3    0.0000
     89 O8         9.4638    9.8337   10.8099 O.2       3 RES3    0.0000
     90 O9         8.5229    8.4372   12.1753 O.2       3 RES3    0.0000
@<TRIPOS>BOND
     1    1    2 1
     2    3    1 1
     3    4    1 1
     4    5    1 1
     5    6    5 1
     6    7    6 ar
     7    8    7 1
     8    9    7 ar
     9   10    9 1
    10   11    9 ar
    11   12   11 ar
    12   13   12 1
    13   14    6 ar
    14   15   14 1
    15   16   11 1
    16   17   16 3
    17   18   17 1
    18   19   18 ar
    19   20   19 1
    20   21   19 ar
    21   22   21 1
    22   23   21 ar
    23   24   23 ar
    24   25   24 1
    25   26   18 ar
    26   27   26 1
    27   28   23 1
    28   29   28 2
    29   30   28 2
    30   31   32 1
    31   33   31 1
    32   34   31 1
    33   35   31 1
    34   36   35 1
    35   37   36 ar
    36   38   37 1
    37   39   37 ar
    38   40   39 1
    39   41   39 ar
    40   42   41 ar
    41   43   42 1
    42   44   36 ar
    43   45   44 1
    44   46   41 1
    45   47   46 3
    46   48   47 1
    47   49   48 ar
    48   50   49 1
    49   51   49 ar
    50   52   51 1
    51   53   51 ar
    52   54   53 ar
    53   55   54 1
    54   56   48 ar
    55   57   56 1
    56   58   53 1
    57   59   58 2
    58   60   58 2
    59   61   62 1
    60   63   61 1
    61   64   61 1
    62   65   61 1
    63   66   65 1
    64   67   66 ar
    65   68   67 1
    66   69   67 ar
    67   70   69 1
    68   71   69 ar
    69   72   71 ar
    70   73   72 1
    71   74   66 ar
    72   75   74 1
    73   76   71 1
    74   77   76 3
    75   78   77 1
    76   79   78 ar
    77   80   79 1
    78   81   79 ar
    79   82   81 1
    80   83   81 ar
    81   84   83 ar
    82   85   84 1
    83   86   78 ar
    84   87   86 1
    85   88   83 1
    86   89   88 2
    87   90   88 2
    88   12   14 ar
    89   24   26 ar
    90   42   44 ar
    91   54   56 ar
    92   72   74 ar
    93   84   86 ar
@<TRIPOS>SUBSTRUCTURE
     1 RES1 1
     2 RES2 31
     3 RES3 61

@<TRIPOS>CRYSIN
  11.6920   12.0671   14.6335  99.1680 112.4290  92.6360   2 1

