# MOL2 file generated by ConQuest
# Please check atom types

@<TRIPOS>MOLECULE
YEJJEF01
    30    31     1
SMALL
NO_CHARGES
****
Generated from CSD

@<TRIPOS>ATOM
      1 C1        13.0217   -1.4519    9.1251 C.3       1 RES1    0.0000
      2 H1        13.2946   -0.6248    9.5741 H         1 RES1    0.0000
      3 H2        13.7145   -2.1342    9.2479 H         1 RES1    0.0000
      4 H3        12.1785   -1.7699    9.5104 H         1 RES1    0.0000
      5 O1        12.8420   -1.1992    7.7239 O.3       1 RES1    0.0000
      6 C2        11.9103   -0.2726    7.3801 C.ar      1 RES1    0.0000
      7 C3        11.1649    0.4716    8.2951 C.ar      1 RES1    0.0000
      8 H4        11.2883    0.3462    9.2287 H         1 RES1    0.0000
      9 C4        10.2494    1.3894    7.8331 C.ar      1 RES1    0.0000
     10 H5         9.7440    1.8924    8.4608 H         1 RES1    0.0000
     11 C5        10.0415    1.6031    6.4721 C.ar      1 RES1    0.0000
     12 C6        10.8067    0.8573    5.5666 C.ar      1 RES1    0.0000
     13 H6        10.6900    0.9895    4.6332 H         1 RES1    0.0000
     14 C7        11.7238   -0.0631    6.0122 C.ar      1 RES1    0.0000
     15 H7        12.2353   -0.5605    5.3851 H         1 RES1    0.0000
     16 C8         9.0765    2.5734    6.0436 C.1       1 RES1    0.0000
     17 C9         8.2756    3.4078    5.7343 C.1       1 RES1    0.0000
     18 C10        7.3217    4.4365    5.4360 C.ar      1 RES1    0.0000
     19 C11        6.4501    4.8832    6.4374 C.ar      1 RES1    0.0000
     20 H8         6.4802    4.4825    7.2982 H         1 RES1    0.0000
     21 C12        5.5520    5.8937    6.1904 C.ar      1 RES1    0.0000
     22 H9         4.9678    6.1995    6.8742 H         1 RES1    0.0000
     23 C13        5.5146    6.4560    4.9314 C.ar      1 RES1    0.0000
     24 C14        6.3441    6.0266    3.9100 C.ar      1 RES1    0.0000
     25 H10        6.2920    6.4216    3.0476 H         1 RES1    0.0000
     26 C15        7.2451    5.0182    4.1633 C.ar      1 RES1    0.0000
     27 H11        7.8196    4.7138    3.4705 H         1 RES1    0.0000
     28 N1         4.5765    7.5515    4.6667 N.pl3     1 RES1    0.0000
     29 O2         3.8597    7.9350    5.5915 O.2       1 RES1    0.0000
     30 O3         4.5546    8.0429    3.5471 O.2       1 RES1    0.0000
@<TRIPOS>BOND
     1    1    2 1
     2    3    1 1
     3    4    1 1
     4    5    1 1
     5    6    5 1
     6    7    6 ar
     7    8    7 1
     8    9    7 ar
     9   10    9 1
    10   11    9 ar
    11   12   11 ar
    12   13   12 1
    13   14    6 ar
    14   15   14 1
    15   16   11 1
    16   17   16 3
    17   18   17 1
    18   19   18 ar
    19   20   19 1
    20   21   19 ar
    21   22   21 1
    22   23   21 ar
    23   24   23 ar
    24   25   24 1
    25   26   18 ar
    26   27   26 1
    27   28   23 1
    28   29   28 2
    29   30   28 2
    30   12   14 ar
    31   24   26 ar
@<TRIPOS>SUBSTRUCTURE
     1 RES1 1

@<TRIPOS>CRYSIN
  14.2640    5.2115   16.4530  90.0000  91.3500  90.0000 231 1

