# MOL2 file generated by ConQuest
# Please check atom types

@<TRIPOS>MOLECULE
YEJKIK
    80    84     2
SMALL
NO_CHARGES
****
Generated from CSD

@<TRIPOS>ATOM
      1 N1        -3.3178    9.5083   18.0276 N.pl3     1 RES1    0.0000
      2 O1        -4.4798    9.8414   18.1178 O.2       1 RES1    0.0000
      3 O2        -2.4953    9.9973   17.2305 O.2       1 RES1    0.0000
      4 C1        -2.8228    8.4368   18.8864 C.ar      1 RES1    0.0000
      5 C2        -3.6607    7.9793   19.8952 C.ar      1 RES1    0.0000
      6 H1        -4.5291    8.3474   20.0057 H         1 RES1    0.0000
      7 C3        -3.2077    6.9766   20.7370 C.ar      1 RES1    0.0000
      8 H2        -3.7751    6.6487   21.4235 H         1 RES1    0.0000
      9 C4        -1.9432    6.4497   20.5900 C.ar      1 RES1    0.0000
     10 C5        -1.1048    6.9225   19.5377 C.ar      1 RES1    0.0000
     11 H3        -0.2389    6.5513   19.4215 H         1 RES1    0.0000
     12 C6        -1.5509    7.9246   18.6820 C.ar      1 RES1    0.0000
     13 H4        -0.9999    8.2484   17.9789 H         1 RES1    0.0000
     14 C7        -1.4672    5.4096   21.4520 C.1       1 RES1    0.0000
     15 C8        -1.1020    4.5629   22.1958 C.1       1 RES1    0.0000
     16 C9        -0.6723    3.5334   23.1125 C.ar      1 RES1    0.0000
     17 C10       -1.5109    3.1259   24.1792 C.ar      1 RES1    0.0000
     18 H5        -2.3647    3.5299   24.2882 H         1 RES1    0.0000
     19 C11       -1.1039    2.1526   25.0614 C.ar      1 RES1    0.0000
     20 H6        -1.6765    1.8910   25.7730 H         1 RES1    0.0000
     21 C12        0.1569    1.5402   24.9173 C.ar      1 RES1    0.0000
     22 C13        0.9869    1.9426   23.8506 C.ar      1 RES1    0.0000
     23 H7         1.8395    1.5401   23.7357 H         1 RES1    0.0000
     24 C14        0.5601    2.9214   22.9770 C.ar      1 RES1    0.0000
     25 H8         1.1283    3.1819   22.2622 H         1 RES1    0.0000
     26 C15        0.5867    0.5137   25.8196 C.1       1 RES1    0.0000
     27 C16        0.9509   -0.3371   26.5721 C.1       1 RES1    0.0000
     28 C17        1.3955   -1.3757   27.4658 C.ar      1 RES1    0.0000
     29 C18        0.5978   -1.8626   28.4921 C.ar      1 RES1    0.0000
     30 H9        -0.2766   -1.5107   28.6173 H         1 RES1    0.0000
     31 C19        1.0624   -2.8567   29.3368 C.ar      1 RES1    0.0000
     32 H10        0.5158   -3.1809   30.0426 H         1 RES1    0.0000
     33 C20        2.3240   -3.3704   29.1465 C.ar      1 RES1    0.0000
     34 C21        3.1571   -2.9184   28.1222 C.ar      1 RES1    0.0000
     35 H11        4.0229   -3.2874   27.9919 H         1 RES1    0.0000
     36 C22        2.6772   -1.9132   27.3043 C.ar      1 RES1    0.0000
     37 H12        3.2335   -1.5770   26.6134 H         1 RES1    0.0000
     38 N2         2.7829   -4.4368   30.0218 N.pl3     1 RES1    0.0000
     39 O3         3.9692   -4.7820   29.9272 O.2       1 RES1    0.0000
     40 O4         1.9997   -4.9440   30.8039 O.2       1 RES1    0.0000
     41 N3         9.7039   -4.4464   20.4216 N.pl3     2 RES2    0.0000
     42 O5        10.8714   -4.7906   20.3276 O.2       2 RES2    0.0000
     43 O6         8.9011   -4.9470   21.1974 O.2       2 RES2    0.0000
     44 C23        9.2122   -3.3582   19.5233 C.ar      2 RES2    0.0000
     45 C24        7.9473   -2.8556   19.7395 C.ar      2 RES2    0.0000
     46 H13        7.4024   -3.1924   20.4415 H         2 RES2    0.0000
     47 C25        7.4954   -1.8520   18.9150 C.ar      2 RES2    0.0000
     48 H14        6.6267   -1.4907   19.0415 H         2 RES2    0.0000
     49 C26        8.3046   -1.3625   17.8918 C.ar      2 RES2    0.0000
     50 C27        9.5925   -1.9041   17.6955 C.ar      2 RES2    0.0000
     51 H15       10.1445   -1.5885   16.9895 H         2 RES2    0.0000
     52 C28       10.0470   -2.9083   18.5517 C.ar      2 RES2    0.0000
     53 H16       10.9214   -3.2693   18.4562 H         2 RES2    0.0000
     54 C29        7.8384   -0.3305   16.9805 C.1       2 RES2    0.0000
     55 C30        7.5134    0.5163   16.2281 C.1       2 RES2    0.0000
     56 C31        7.0856    1.5377   15.2969 C.ar      2 RES2    0.0000
     57 C32        5.8164    2.1374   15.4670 C.ar      2 RES2    0.0000
     58 H17        5.2463    1.8684   16.1766 H         2 RES2    0.0000
     59 C33        7.8854    1.9329   14.2533 C.ar      2 RES2    0.0000
     60 H18        8.7323    1.5206   14.1373 H         2 RES2    0.0000
     61 N3B        3.5955    9.5078    8.4078 N.pl3     2 RES2    0.0000
     62 O5B        2.4280    9.8520    8.5018 O.2       2 RES2    0.0000
     63 O6B        4.3982   10.0084    7.6320 O.2       2 RES2    0.0000
     64 C23B       4.0871    8.4196    9.3061 C.ar      2 RES2    0.0000
     65 C24B       5.3521    7.9170    9.0899 C.ar      2 RES2    0.0000
     66 H13B       5.8969    8.2538    8.3879 H         2 RES2    0.0000
     67 C25B       5.8039    6.9134    9.9144 C.ar      2 RES2    0.0000
     68 H14B       6.6727    6.5521    9.7879 H         2 RES2    0.0000
     69 C26B       4.9948    6.4239   10.9376 C.ar      2 RES2    0.0000
     70 C27B       3.7069    6.9655   11.1339 C.ar      2 RES2    0.0000
     71 H15B       3.1549    6.6499   11.8399 H         2 RES2    0.0000
     72 C28B       3.2523    7.9697   10.2777 C.ar      2 RES2    0.0000
     73 H16B       2.3780    8.3307   10.3732 H         2 RES2    0.0000
     74 C29B       5.4609    5.3919   11.8489 C.1       2 RES2    0.0000
     75 C30B       5.7859    4.5451   12.6013 C.1       2 RES2    0.0000
     76 C31B       6.2138    3.5237   13.5325 C.ar      2 RES2    0.0000
     77 C32B       7.4830    2.9240   13.3624 C.ar      2 RES2    0.0000
     78 H17B       8.0531    3.1930   12.6529 H         2 RES2    0.0000
     79 C33B       5.4139    3.1285   14.5762 C.ar      2 RES2    0.0000
     80 H18B       4.5670    3.5408   14.6921 H         2 RES2    0.0000
@<TRIPOS>BOND
     1    1    2 2
     2    3    1 2
     3    4    1 1
     4    5    4 ar
     5    6    5 1
     6    7    5 ar
     7    8    7 1
     8    9    7 ar
     9   10    9 ar
    10   11   10 1
    11   12    4 ar
    12   13   12 1
    13   14    9 1
    14   15   14 3
    15   16   15 1
    16   17   16 ar
    17   18   17 1
    18   19   17 ar
    19   20   19 1
    20   21   19 ar
    21   22   21 ar
    22   23   22 1
    23   24   16 ar
    24   25   24 1
    25   26   21 1
    26   27   26 3
    27   28   27 1
    28   29   28 ar
    29   30   29 1
    30   31   29 ar
    31   32   31 1
    32   33   31 ar
    33   34   33 ar
    34   35   34 1
    35   36   28 ar
    36   37   36 1
    37   38   33 1
    38   39   38 2
    39   40   38 2
    40   41   42 2
    41   43   41 2
    42   44   41 1
    43   45   44 ar
    44   46   45 1
    45   47   45 ar
    46   48   47 1
    47   49   47 ar
    48   50   49 ar
    49   51   50 1
    50   52   44 ar
    51   53   52 1
    52   54   49 1
    53   55   54 3
    54   56   55 1
    55   57   56 ar
    56   58   57 1
    57   59   56 ar
    58   60   59 1
    59   61   62 2
    60   63   61 2
    61   64   61 1
    62   65   64 ar
    63   66   65 1
    64   67   65 ar
    65   68   67 1
    66   69   67 ar
    67   70   69 ar
    68   71   70 1
    69   72   64 ar
    70   73   72 1
    71   74   69 1
    72   75   74 3
    73   76   75 1
    74   77   59 ar
    75   78   77 1
    76   79   57 ar
    77   80   79 1
    78   10   12 ar
    79   22   24 ar
    80   34   36 ar
    81   50   52 ar
    82   70   72 ar
    83   76   77 ar
    84   76   79 ar
@<TRIPOS>SUBSTRUCTURE
     1 RES1 1
     2 RES2 41

@<TRIPOS>CRYSIN
  17.0160    5.0614   29.0680  90.0000  97.3460  90.0000 231 1

