# MOL2 file generated by ConQuest
# Please check atom types

@<TRIPOS>MOLECULE
YEJLOO
    26    27     1
SMALL
NO_CHARGES
****
Generated from CSD

@<TRIPOS>ATOM
      1 C1         1.5849    6.3471    1.4397 C.ar      1 RES1    0.0000
      2 N1         1.2076    7.6181    1.7913 N.3       1 RES1    0.0000
      3 C2         2.9290    5.9244    1.4010 C.ar      1 RES1    0.0000
      4 N2         4.0190    6.8053    1.7560 N.pl3     1 RES1    0.0000
      5 O1         3.7558    7.8587    2.3839 O.2       1 RES1    0.0000
      6 O2         5.1705    6.5003    1.4607 O.2       1 RES1    0.0000
      7 C3         3.2966    4.6320    0.9944 C.ar      1 RES1    0.0000
      8 C4         2.3281    3.7227    0.6523 C.ar      1 RES1    0.0000
      9 C5         0.9954    4.0915    0.7439 C.ar      1 RES1    0.0000
     10 C6         0.6207    5.3595    1.1281 C.ar      1 RES1    0.0000
     11 C7        -0.0363    8.2440    1.5415 C.ar      1 RES1    0.0000
     12 C8        -0.7992    7.9914    0.4161 C.ar      1 RES1    0.0000
     13 C9        -1.9869    8.6777    0.2084 C.ar      1 RES1    0.0000
     14 C10       -2.4046    9.6359    1.1159 C.ar      1 RES1    0.0000
     15 C11       -1.6334    9.9174    2.2223 C.ar      1 RES1    0.0000
     16 C12       -0.4536    9.2143    2.4497 C.ar      1 RES1    0.0000
     17 H1         1.8076    8.0987    2.2203 H         1 RES1    0.0000
     18 H2         4.2138    4.3872    0.9564 H         1 RES1    0.0000
     19 H3         2.5680    2.8520    0.3564 H         1 RES1    0.0000
     20 H4         0.3236    3.4524    0.5369 H         1 RES1    0.0000
     21 H5        -0.3030    5.5749    1.1851 H         1 RES1    0.0000
     22 H6        -0.5089    7.3458   -0.2172 H         1 RES1    0.0000
     23 H7        -2.5150    8.4899   -0.5593 H         1 RES1    0.0000
     24 H8        -3.2225   10.0982    0.9768 H         1 RES1    0.0000
     25 H9        -1.9076   10.5930    2.8312 H         1 RES1    0.0000
     26 H10        0.0662    9.3972    3.2228 H         1 RES1    0.0000
@<TRIPOS>BOND
     1    1    2 1
     2    2   11 1
     3    3    1 ar
     4    4    3 1
     5    5    4 2
     6    6    4 2
     7    7    3 ar
     8    8    7 ar
     9    9    8 ar
    10   10    1 ar
    11   11   12 ar
    12   12   13 ar
    13   13   14 ar
    14   14   15 ar
    15   15   16 ar
    16   16   11 ar
    17   17    2 1
    18   18    7 1
    19   19    8 1
    20   20    9 1
    21   21   10 1
    22   22   12 1
    23   23   13 1
    24   24   14 1
    25   25   15 1
    26   26   16 1
    27    9   10 ar
@<TRIPOS>SUBSTRUCTURE
     1 RES1 1

@<TRIPOS>CRYSIN
  14.7077   10.1602    6.7878  90.0000  90.0000  90.0000  29 1

