# MOL2 file generated by ConQuest
# Please check atom types

@<TRIPOS>MOLECULE
YEJNAC
    54    56     2
SMALL
NO_CHARGES
****
Generated from CSD

@<TRIPOS>ATOM
      1 O1         3.8674   -2.2979    8.8667 O.3       1 RES1    0.0000
      2 O2         2.2678    7.9327    6.1978 O.3       2 RES2    0.0000
      3 O3         0.8271    3.0326   13.5626 O.2       1 RES1    0.0000
      4 O4         5.5704    2.7826    1.7491 O.2       2 RES2    0.0000
      5 O5         2.0504    4.4323   14.5975 O.2       1 RES1    0.0000
      6 O6         4.4941    1.3781    0.5813 O.2       2 RES2    0.0000
      7 N1         2.0936    2.8443    9.9069 N.2       1 RES1    0.0000
      8 N2         4.1831    2.8137    5.3240 N.2       2 RES2    0.0000
      9 N3         2.1002    3.2512   11.0922 N.2       1 RES1    0.0000
     10 N4         4.1947    2.4123    4.1258 N.2       2 RES2    0.0000
     11 N5         1.4014    4.1011   13.6401 N.pl3     1 RES1    0.0000
     12 N6         5.0598    1.6927    1.5951 N.pl3     2 RES2    0.0000
     13 C1         3.4720   -1.0218    9.1886 C.ar      1 RES1    0.0000
     14 C2         2.7204    6.6593    5.9262 C.ar      2 RES2    0.0000
     15 C3         3.6086   -0.5040   10.4613 C.ar      1 RES1    0.0000
     16 C4         2.6313    6.1033    4.6593 C.ar      2 RES2    0.0000
     17 C5         3.1769    0.7710   10.7276 C.ar      1 RES1    0.0000
     18 C6         3.0937    4.8490    4.4393 C.ar      2 RES2    0.0000
     19 C7         2.5967    1.5364    9.7311 C.ar      1 RES1    0.0000
     20 C8         3.6405    4.1156    5.4706 C.ar      2 RES2    0.0000
     21 C9         2.4758    1.0186    8.4574 C.ar      1 RES1    0.0000
     22 C10        3.7202    4.6580    6.7410 C.ar      2 RES2    0.0000
     23 C11        2.8986   -0.2720    8.1939 C.ar      1 RES1    0.0000
     24 C12        3.2671    5.9353    6.9433 C.ar      2 RES2    0.0000
     25 C13        1.6135    4.5828   11.2360 C.ar      1 RES1    0.0000
     26 C14        4.7286    1.1042    3.9710 C.ar      2 RES2    0.0000
     27 C15        1.3138    5.0355   12.5021 C.ar      1 RES1    0.0000
     28 C16        5.1130    0.7325    2.6989 C.ar      2 RES2    0.0000
     29 C17        0.9343    6.3358   12.7650 C.ar      1 RES1    0.0000
     30 C18        5.5552   -0.5270    2.3884 C.ar      2 RES2    0.0000
     31 C19        0.8189    7.2011   11.7131 C.ar      1 RES1    0.0000
     32 C20        5.6288   -1.4522    3.3945 C.ar      2 RES2    0.0000
     33 C21        1.1104    6.7822   10.4427 C.ar      1 RES1    0.0000
     34 C22        5.2439   -1.1392    4.6675 C.ar      2 RES2    0.0000
     35 C23        1.4932    5.4750   10.1915 C.ar      1 RES1    0.0000
     36 C24        4.7857    0.1473    4.9622 C.ar      2 RES2    0.0000
     37 H1         4.2315   -2.6466    9.4722 H         1 RES1    0.0000
     38 H2         4.0372   -1.0471   11.1415 H         1 RES1    0.0000
     39 H3         3.2449    1.1392   11.6420 H         1 RES1    0.0000
     40 H4         2.0158    1.5557    7.7546 H         1 RES1    0.0000
     41 H5         2.8629   -0.7042    7.3074 H         1 RES1    0.0000
     42 H6         0.6817    6.6165   13.6848 H         1 RES1    0.0000
     43 H7         0.6353    8.1055   11.9317 H         1 RES1    0.0000
     44 H8         1.0434    7.4680    9.7059 H         1 RES1    0.0000
     45 H9         1.7956    5.2012    9.3248 H         1 RES1    0.0000
     46 H10        1.8998    8.1539    5.5364 H         2 RES2    0.0000
     47 H11        2.2825    6.6764    3.9256 H         2 RES2    0.0000
     48 H12        3.0628    4.3704    3.5953 H         2 RES2    0.0000
     49 H13        4.0251    4.1034    7.4674 H         2 RES2    0.0000
     50 H14        3.2630    6.3081    7.8155 H         2 RES2    0.0000
     51 H15        5.8959   -0.6881    1.5067 H         2 RES2    0.0000
     52 H16        5.9066   -2.3474    3.2065 H         2 RES2    0.0000
     53 H17        5.2211   -1.7675    5.3941 H         2 RES2    0.0000
     54 H18        4.5134    0.3567    5.8058 H         2 RES2    0.0000
@<TRIPOS>BOND
     1    1   13 1
     2    2   14 1
     3    3   11 2
     4    4   12 2
     5    5   11 2
     6    6   12 2
     7    7    9 2
     8    8   10 2
     9    9   25 1
    10   10   26 1
    11   11   27 1
    12   12   28 1
    13   13   15 ar
    14   14   16 ar
    15   15   17 ar
    16   16   18 ar
    17   17   19 ar
    18   18   20 ar
    19   19    7 1
    20   20    8 1
    21   21   19 ar
    22   22   20 ar
    23   23   13 ar
    24   24   14 ar
    25   25   27 ar
    26   26   28 ar
    27   27   29 ar
    28   28   30 ar
    29   29   31 ar
    30   30   32 ar
    31   31   33 ar
    32   32   34 ar
    33   33   35 ar
    34   34   36 ar
    35   35   25 ar
    36   36   26 ar
    37   37    1 1
    38   38   15 1
    39   39   17 1
    40   40   21 1
    41   41   23 1
    42   42   29 1
    43   43   31 1
    44   44   33 1
    45   45   35 1
    46   46    2 1
    47   47   16 1
    48   48   18 1
    49   49   22 1
    50   50   24 1
    51   51   30 1
    52   52   32 1
    53   53   34 1
    54   54   36 1
    55   21   23 ar
    56   22   24 ar
@<TRIPOS>SUBSTRUCTURE
     1 RES1 1
     2 RES2 2

@<TRIPOS>CRYSIN
   3.8230   23.0140   25.4370  90.0000  92.7300  90.0000 231 1

