# MOL2 file generated by ConQuest
# Please check atom types

@<TRIPOS>MOLECULE
YEJVIU
    33    34     1
SMALL
USER_CHARGES
****
Generated from CSD

@<TRIPOS>ATOM
      1 O1         3.1712    4.4448    3.4913 O.3       1 RES1    0.0000
      2 O2         3.2847    2.3019    0.5366 O.3       1 RES1    0.0000
      3 O3         5.3005    0.6082    3.1345 O.2       1 RES1    0.0000
      4 O4         3.7024   -0.5391    2.2535 O.2       1 RES1    0.0000
      5 O5         3.6768    7.2465    2.3064 O.3       1 RES1    0.0000
      6 O6         2.4516    6.0539    0.8520 O.3       1 RES1    0.0000
      7 N1         4.1479    0.4777    2.7483 N.pl3     1 RES1    0.0000
      8 N2         5.5763    4.4712    3.6116 N.2       1 RES1    0.0000
      9 N3         5.8470    4.0407    4.7410 N.1       1 RES1    1.0000
     10 N4         6.2039    3.5857    5.7162 N.2       1 RES1   -1.0000
     11 C1         4.3232    5.2686    3.5368 C.3       1 RES1    0.0000
     12 C2         4.3715    6.0051    2.2056 C.3       1 RES1    0.0000
     13 C3         3.5026    5.1564    1.2503 C.3       1 RES1    0.0000
     14 C4         2.9612    4.0276    2.1287 C.3       1 RES1    0.0000
     15 C5         3.6797    2.6994    1.8411 C.3       1 RES1    0.0000
     16 C6         3.2478    1.6655    2.8755 C.3       1 RES1    0.0000
     17 C7         2.9504    7.3904    1.0905 C.3       1 RES1    0.0000
     18 C8         3.8374    7.8317   -0.0507 C.3       1 RES1    0.0000
     19 C9         1.7831    8.3216    1.3225 C.3       1 RES1    0.0000
     20 H1         4.2563    5.8143    4.2923 H         1 RES1    0.0000
     21 H2         5.2097    6.1663    1.8848 H         1 RES1    0.0000
     22 H3         3.9555    4.8401    0.4688 H         1 RES1    0.0000
     23 H4         1.9863    3.8856    2.0369 H         1 RES1    0.0000
     24 H5         4.6195    2.8438    1.8848 H         1 RES1    0.0000
     25 H6         2.3381    1.3515    2.7084 H         1 RES1    0.0000
     26 H7         3.3426    1.9991    3.8488 H         1 RES1    0.0000
     27 H8         3.9044    1.9287    0.2059 H         1 RES1    0.0000
     28 H9         3.2972    7.9260   -0.9028 H         1 RES1    0.0000
     29 H10        4.2109    8.6862    0.0317 H         1 RES1    0.0000
     30 H11        4.5684    7.1799   -0.1267 H         1 RES1    0.0000
     31 H12        1.3166    8.4047    0.4435 H         1 RES1    0.0000
     32 H13        2.1452    9.2635    1.5047 H         1 RES1    0.0000
     33 H14        1.1804    7.9964    2.0432 H         1 RES1    0.0000
@<TRIPOS>BOND
     1    1   11 1
     2    2   15 1
     3    3    7 2
     4    4    7 2
     5    5   12 1
     6    6   13 1
     7    7   16 1
     8    8    9 2
     9    9   10 2
    10   11    8 1
    11   12   11 1
    12   13   12 1
    13   14    1 1
    14   15   14 1
    15   16   15 1
    16   17    5 1
    17   18   17 1
    18   19   17 1
    19   20   11 1
    20   21   12 1
    21   22   13 1
    22   23   14 1
    23   24   15 1
    24   25   16 1
    25   26   16 1
    26   27    2 1
    27   28   18 1
    28   29   18 1
    29   30   18 1
    30   31   19 1
    31   32   19 1
    32   33   19 1
    33    6   17 1
    34   13   14 1
@<TRIPOS>SUBSTRUCTURE
     1 RES1 1

@<TRIPOS>CRYSIN
   5.6750   14.0782   15.8388  90.0000  90.0000  90.0000  19 1

