# MOL2 file generated by ConQuest
# Please check atom types

@<TRIPOS>MOLECULE
YEKFUR
    80    82     2
SMALL
NO_CHARGES
****
Generated from CSD

@<TRIPOS>ATOM
      1 C1        10.0621    7.3677   15.3318 C.3       1 RES1    0.0000
      2 H1        10.2707    8.0382   14.6472 H         1 RES1    0.0000
      3 C2        10.1723    8.5206   17.2961 C.3       1 RES1    0.0000
      4 C3         8.6122    7.5854   15.8448 C.3       1 RES1    0.0000
      5 H2         8.1404    8.1982   15.2425 H         1 RES1    0.0000
      6 C4         7.7945    6.3119   16.0167 C.3       1 RES1    0.0000
      7 H3         7.6578    5.9035   15.1369 H         1 RES1    0.0000
      8 C5         6.4454    6.6153   16.6257 C.3       1 RES1    0.0000
      9 H4         6.5608    6.9295   17.5469 H         1 RES1    0.0000
     10 C6         5.5802    7.6029   15.8474 C.3       1 RES1    0.0000
     11 H5         5.5459    8.4582   16.3035 H         1 RES1    0.0000
     12 H6         5.9376    7.7401   14.9569 H         1 RES1    0.0000
     13 C7         4.2817    5.8510   16.5872 C.3       1 RES1    0.0000
     14 C8        10.5423    8.2419   18.7231 C.3       1 RES1    0.0000
     15 H7        10.0889    8.8629   19.2992 H         1 RES1    0.0000
     16 H8        11.4911    8.3385   18.8335 H         1 RES1    0.0000
     17 H9        10.2836    7.3462   18.9512 H         1 RES1    0.0000
     18 C9        10.4529    9.9527   16.8787 C.3       1 RES1    0.0000
     19 H10       10.2209   10.0684   15.9555 H         1 RES1    0.0000
     20 H11       11.3861   10.1446   16.9996 H         1 RES1    0.0000
     21 H12        9.9299   10.5515   17.4173 H         1 RES1    0.0000
     22 C10        3.7887    6.1700   17.9788 C.3       1 RES1    0.0000
     23 H13        3.7597    5.3650   18.4999 H         1 RES1    0.0000
     24 H14        2.9082    6.5498   17.9262 H         1 RES1    0.0000
     25 H15        4.3850    6.7979   18.3943 H         1 RES1    0.0000
     26 C11        3.4481    4.8055   15.9012 C.3       1 RES1    0.0000
     27 H16        3.8105    4.6284   15.0289 H         1 RES1    0.0000
     28 H17        2.5458    5.1224   15.8138 H         1 RES1    0.0000
     29 H18        3.4557    3.9984   16.4211 H         1 RES1    0.0000
     30 C12       10.3686    6.0026   14.8028 C.2       1 RES1    0.0000
     31 H19       10.8874    5.4509   15.3434 H         1 RES1    0.0000
     32 N1         9.9917    5.5240   13.6926 N.2       1 RES1    0.0000
     33 O1        10.8725    7.5883   16.4747 O.3       1 RES1    0.0000
     34 O2         8.7902    8.2081   17.1115 O.3       1 RES1    0.0000
     35 O3         8.5153    5.4048   16.8323 O.3       1 RES1    0.0000
     36 H20        8.3730    4.6382   16.5796 H         1 RES1    0.0000
     37 O4         4.2991    7.0257   15.7831 O.3       1 RES1    0.0000
     38 O5         5.6425    5.4158   16.6160 O.3       1 RES1    0.0000
     39 O6         9.1918    6.4424   12.9862 O.3       1 RES1    0.0000
     40 H21        8.9886    6.1244   12.2588 H         1 RES1    0.0000
     41 C13        7.6503    1.1405   13.9010 C.3       2 RES2    0.0000
     42 H22        6.7771    0.8204   14.2080 H         2 RES2    0.0000
     43 C14        8.3135   -0.4099   12.3558 C.3       2 RES2    0.0000
     44 C15        7.4967    1.7818   12.4960 C.3       2 RES2    0.0000
     45 H23        6.5467    1.9203   12.2996 H         2 RES2    0.0000
     46 C16        8.2550    3.0831   12.2884 C.3       2 RES2    0.0000
     47 H24        7.8309    3.7863   12.8229 H         2 RES2    0.0000
     48 C17        8.2460    3.5002   10.8335 C.3       2 RES2    0.0000
     49 H25        8.8090    2.8919   10.3097 H         2 RES2    0.0000
     50 C18        6.8970    3.6397   10.1777 C.3       2 RES2    0.0000
     51 H26        6.6040    2.7962    9.7984 H         2 RES2    0.0000
     52 H27        6.2319    3.9506   10.8114 H         2 RES2    0.0000
     53 C19        8.2623    5.3868    9.4888 C.3       2 RES2    0.0000
     54 C20        9.5999   -0.9877   11.8402 C.3       2 RES2    0.0000
     55 H28       10.3042   -0.3438   11.9444 H         2 RES2    0.0000
     56 H29        9.5025   -1.2077   10.9098 H         2 RES2    0.0000
     57 H30        9.8163   -1.7811   12.3357 H         2 RES2    0.0000
     58 C21        7.1505   -1.3711   12.2718 C.3       2 RES2    0.0000
     59 H31        7.3657   -2.1760   12.7485 H         2 RES2    0.0000
     60 H32        6.9751   -1.5820   11.3515 H         2 RES2    0.0000
     61 H33        6.3714   -0.9662   12.6621 H         2 RES2    0.0000
     62 C22        9.2936    5.2114    8.4026 C.3       2 RES2    0.0000
     63 H34        9.5512    4.2878    8.3534 H         2 RES2    0.0000
     64 H35       10.0640    5.7480    8.6030 H         2 RES2    0.0000
     65 H36        8.9215    5.4857    7.5613 H         2 RES2    0.0000
     66 C23        7.8789    6.8231    9.7233 C.3       2 RES2    0.0000
     67 H37        7.5853    7.2146    8.8983 H         2 RES2    0.0000
     68 H38        8.6391    7.3071   10.0553 H         2 RES2    0.0000
     69 H39        7.1677    6.8632   10.3673 H         2 RES2    0.0000
     70 C24        8.2573    2.0115   14.9535 C.2       2 RES2    0.0000
     71 H40        9.1357    1.8257   15.1969 H         2 RES2    0.0000
     72 N2         7.6896    2.9827   15.5505 N.2       2 RES2    0.0000
     73 O7         8.5125    0.0293   13.6931 O.3       2 RES2    0.0000
     74 O8         8.0243    0.7841   11.6244 O.3       2 RES2    0.0000
     75 O9         9.5934    2.9159   12.7272 O.3       2 RES2    0.0000
     76 H41        9.8758    3.6274   13.0198 H         2 RES2    0.0000
     77 O10        7.1242    4.6058    9.1592 O.3       2 RES2    0.0000
     78 O11        8.7558    4.8503   10.7305 O.3       2 RES2    0.0000
     79 O12        6.3775    3.1718   15.0731 O.3       2 RES2    0.0000
     80 H42        6.0328    3.8048   15.4634 H         2 RES2    0.0000
@<TRIPOS>BOND
     1    1    2 1
     2    3   14 1
     3    4    1 1
     4    5    4 1
     5    6    4 1
     6    7    6 1
     7    8    6 1
     8    9    8 1
     9   10    8 1
    10   11   10 1
    11   12   10 1
    12   13   22 1
    13   14   15 1
    14   16   14 1
    15   17   14 1
    16   18    3 1
    17   19   18 1
    18   20   18 1
    19   21   18 1
    20   22   23 1
    21   24   22 1
    22   25   22 1
    23   26   13 1
    24   27   26 1
    25   28   26 1
    26   29   26 1
    27   30    1 1
    28   31   30 1
    29   32   30 2
    30   33    1 1
    31   34    3 1
    32   35    6 1
    33   36   35 1
    34   37   10 1
    35   38    8 1
    36   39   32 1
    37   40   39 1
    38   41   42 1
    39   43   54 1
    40   44   41 1
    41   45   44 1
    42   46   44 1
    43   47   46 1
    44   48   46 1
    45   49   48 1
    46   50   48 1
    47   51   50 1
    48   52   50 1
    49   53   62 1
    50   54   55 1
    51   56   54 1
    52   57   54 1
    53   58   43 1
    54   59   58 1
    55   60   58 1
    56   61   58 1
    57   62   63 1
    58   64   62 1
    59   65   62 1
    60   66   53 1
    61   67   66 1
    62   68   66 1
    63   69   66 1
    64   70   41 1
    65   71   70 1
    66   72   70 2
    67   73   41 1
    68   74   43 1
    69   75   46 1
    70   76   75 1
    71   77   50 1
    72   78   48 1
    73   79   72 1
    74   80   79 1
    75    3   33 1
    76    4   34 1
    77   13   37 1
    78   13   38 1
    79   43   73 1
    80   44   74 1
    81   53   77 1
    82   53   78 1
@<TRIPOS>SUBSTRUCTURE
     1 RES1 1
     2 RES2 41

@<TRIPOS>CRYSIN
  10.8192   10.8801   24.0040  90.0000  90.0000  90.0000  19 1

