# MOL2 file generated by ConQuest
# Please check atom types

@<TRIPOS>MOLECULE
YEKJII
    55    57     1
SMALL
NO_CHARGES
****
Generated from CSD

@<TRIPOS>ATOM
      1 N1         9.6857   19.5204   -2.8875 N.am      1 RES1    0.0000
      2 C1         8.8317   18.9359   -1.9855 C.2       1 RES1    0.0000
      3 N2         9.4126   18.1859   -0.9458 N.am      1 RES1    0.0000
      4 C2        10.7787   18.0359   -0.7036 C.2       1 RES1    0.0000
      5 C3        11.5698   18.7071   -1.6556 C.2       1 RES1    0.0000
      6 C4        11.0435   19.3864   -2.7159 C.2       1 RES1    0.0000
      7 N3        12.9327   18.7638   -1.8425 N.pl3     1 RES1    0.0000
      8 H1        13.5413   18.3838   -1.2963 H         1 RES1    0.0000
      9 C5        13.1462   19.4568   -2.9805 C.2       1 RES1    0.0000
     10 N4        11.9994   19.8566   -3.5544 N.2       1 RES1    0.0000
     11 C6        14.4601   19.7119   -3.5455 C.2       1 RES1    0.0000
     12 C7        15.6224   19.4701   -2.9546 C.2       1 RES1    0.0000
     13 H2        15.7400   19.1400   -2.0919 H         1 RES1    0.0000
     14 C8        16.8164   19.7577   -3.8119 C.3       1 RES1    0.0000
     15 N5        16.1128   20.1605   -5.0375 N.3       1 RES1    0.0000
     16 C9        14.6443   20.2788   -4.9320 C.3       1 RES1    0.0000
     17 C10       17.6636   18.5150   -4.0604 C.3       1 RES1    0.0000
     18 H3        18.2318   18.7304   -4.7827 H         1 RES1    0.0000
     19 H4        18.1735   18.2752   -3.2719 H         1 RES1    0.0000
     20 H5        17.1096   17.8201   -4.3983 H         1 RES1    0.0000
     21 C11       17.6734   20.8975   -3.2988 C.3       1 RES1    0.0000
     22 H6        18.2755   21.0725   -4.0318 H         1 RES1    0.0000
     23 H7        18.1913   20.6384   -2.4674 H         1 RES1    0.0000
     24 H8        17.1352   21.6887   -3.0216 H         1 RES1    0.0000
     25 C12       14.2423   21.7377   -5.0143 C.3       1 RES1    0.0000
     26 H9        14.5083   22.0213   -5.8108 H         1 RES1    0.0000
     27 H10       13.2870   21.8883   -4.8990 H         1 RES1    0.0000
     28 H11       14.7370   22.3189   -4.3000 H         1 RES1    0.0000
     29 C13       13.9808   19.4533   -6.0298 C.3       1 RES1    0.0000
     30 H12       14.3367   19.7264   -6.8478 H         1 RES1    0.0000
     31 H13       12.9931   19.5881   -6.0254 H         1 RES1    0.0000
     32 H14       14.2554   18.5028   -5.9002 H         1 RES1    0.0000
     33 C14        9.1229   20.2218   -4.0542 C.3       1 RES1    0.0000
     34 H15        9.7903   20.1745   -4.7381 H         1 RES1    0.0000
     35 H16        8.3202   19.7579   -4.3179 H         1 RES1    0.0000
     36 C15        8.7088   21.6344   -3.7556 C.3       1 RES1    0.0000
     37 H17        8.3380   22.0738   -4.6129 H         1 RES1    0.0000
     38 H18        8.0760   21.7062   -2.9590 H         1 RES1    0.0000
     39 C16        9.8182   22.5394   -3.3488 C.3       1 RES1    0.0000
     40 H19       10.2821   22.0738   -2.5210 H         1 RES1    0.0000
     41 H20        9.5601   23.4392   -3.2183 H         1 RES1    0.0000
     42 H21       10.4552   22.4064   -4.1302 H         1 RES1    0.0000
     43 C17        8.4910   17.4665   -0.0384 C.3       1 RES1    0.0000
     44 H22        7.6211   17.9584   -0.1073 H         1 RES1    0.0000
     45 H23        8.8428   17.5925    0.8493 H         1 RES1    0.0000
     46 C18        8.3587   16.0048   -0.3719 C.3       1 RES1    0.0000
     47 H24        7.7430   15.5970    0.2593 H         1 RES1    0.0000
     48 H25        9.2679   15.5094   -0.4470 H         1 RES1    0.0000
     49 C19        7.8203   15.7265   -1.7549 C.3       1 RES1    0.0000
     50 H26        7.7580   14.7567   -1.9489 H         1 RES1    0.0000
     51 H27        6.8930   16.1921   -1.8237 H         1 RES1    0.0000
     52 H28        8.4842   16.0346   -2.3690 H         1 RES1    0.0000
     53 O1         7.6200   19.0409   -2.0830 O.2       1 RES1    0.0000
     54 O2        11.1686   17.3667    0.2503 O.2       1 RES1    0.0000
     55 O3        16.7363   20.4730   -6.1031 O.2       1 RES1    0.0000
@<TRIPOS>BOND
     1    1    2 1
     2    2    3 1
     3    3    4 1
     4    4    5 1
     5    5    6 2
     6    6    1 1
     7    7    5 1
     8    8    7 1
     9    9    7 1
    10   10    6 1
    11   11    9 1
    12   12   11 2
    13   13   12 1
    14   14   12 1
    15   15   14 1
    16   16   11 1
    17   17   14 1
    18   18   17 1
    19   19   17 1
    20   20   17 1
    21   21   14 1
    22   22   21 1
    23   23   21 1
    24   24   21 1
    25   25   16 1
    26   26   25 1
    27   27   25 1
    28   28   25 1
    29   29   16 1
    30   30   29 1
    31   31   29 1
    32   32   29 1
    33   33    1 1
    34   34   33 1
    35   35   33 1
    36   36   33 1
    37   37   36 1
    38   38   36 1
    39   39   36 1
    40   40   39 1
    41   41   39 1
    42   42   39 1
    43   43    3 1
    44   44   43 1
    45   45   43 1
    46   46   43 1
    47   47   46 1
    48   48   46 1
    49   49   46 1
    50   50   49 1
    51   51   49 1
    52   52   49 1
    53   53    2 2
    54   54    4 2
    55   55   15 1
    56    9   10 2
    57   15   16 1
@<TRIPOS>SUBSTRUCTURE
     1 RES1 1

@<TRIPOS>CRYSIN
  13.0510   17.5050    9.1880  90.0000 103.3500  90.0000  14 1

