# MOL2 file generated by ConQuest
# Please check atom types

@<TRIPOS>MOLECULE
YEKQAG
    19    19     1
SMALL
USER_CHARGES
****
Generated from CSD

@<TRIPOS>ATOM
      1 N1        -1.6534   14.3504    3.8893 N.pl3     1 RES1    1.0000
      2 O1        -2.7237   14.8714    3.3251 O.2       1 RES1   -1.0000
      3 C1        -1.4200   14.5943    5.2208 C.ar      1 RES1    0.0000
      4 N2        -2.3252   15.3434    5.8204 N.3       1 RES1    0.0000
      5 H1        -2.9959   15.6105    5.2770 H         1 RES1    0.0000
      6 H2        -2.2205   15.5360    6.7221 H         1 RES1    0.0000
      7 C2        -0.2282   14.0260    5.7336 C.ar      1 RES1    0.0000
      8 N3         0.1833   14.2558    7.1106 N.pl3     1 RES1    0.0000
      9 O2        -0.5183   15.0020    7.7945 O.2       1 RES1    0.0000
     10 O3         1.1951   13.7202    7.5259 O.2       1 RES1    0.0000
     11 N4         0.5923   13.3000    5.0201 N.ar      1 RES1    0.0000
     12 C3         0.3313   13.1059    3.7566 C.ar      1 RES1    0.0000
     13 N5         1.3217   12.3429    3.0135 N.pl3     1 RES1    0.0000
     14 O4         1.3320   12.4435    1.7977 O.2       1 RES1    0.0000
     15 O5         2.1044   11.6518    3.6307 O.2       1 RES1    0.0000
     16 C4        -0.8100   13.6245    3.0968 C.ar      1 RES1    0.0000
     17 N6        -1.1622   13.5053    1.8374 N.3       1 RES1    0.0000
     18 H3        -0.6409   13.0143    1.2635 H         1 RES1    0.0000
     19 H4        -1.9425   13.8749    1.5773 H         1 RES1    0.0000
@<TRIPOS>BOND
     1    1    2 1
     2    3    1 ar
     3    4    3 1
     4    5    4 1
     5    6    4 1
     6    7    3 ar
     7    8    7 1
     8    9    8 2
     9   10    8 2
    10   11    7 ar
    11   12   11 ar
    12   13   12 1
    13   14   13 2
    14   15   13 2
    15   16    1 ar
    16   17   16 1
    17   18   17 1
    18   19   17 1
    19   12   16 ar
@<TRIPOS>SUBSTRUCTURE
     1 RES1 1

@<TRIPOS>CRYSIN
   5.7159   15.8498    8.4139  90.0000 101.0410  90.0000 231 1

