# MOL2 file generated by ConQuest
# Please check atom types

@<TRIPOS>MOLECULE
YEKQAG03
    19    19     1
SMALL
USER_CHARGES
****
Generated from CSD

@<TRIPOS>ATOM
      1 N1         3.7236    6.4156    0.2464 N.pl3     1 RES1    1.0000
      2 O1         4.7999    6.9332    0.8099 O.2       1 RES1   -1.0000
      3 C1         3.4881    6.6614   -1.0803 C.ar      1 RES1    0.0000
      4 N2         1.4674    5.3645   -0.8814 N.ar      1 RES1    0.0000
      5 C2         2.2857    6.0933   -1.6000 C.ar      1 RES1    0.0000
      6 O2         0.8563    5.7826   -3.3806 O.2       1 RES1    0.0000
      7 N3         4.3932    7.4026   -1.6792 N.3       1 RES1    0.0000
      8 H1         5.0709    7.6941   -1.2376 H         1 RES1    0.0000
      9 H2         4.3079    7.5960   -2.5131 H         1 RES1    0.0000
     10 O3         2.5736    7.0616   -3.6526 O.2       1 RES1    0.0000
     11 C3         1.7321    5.1721    0.3789 C.ar      1 RES1    0.0000
     12 C4         2.8770    5.6878    1.0383 C.ar      1 RES1    0.0000
     13 O4        -0.0504    3.7222    0.5022 O.2       1 RES1    0.0000
     14 N4         3.2374    5.5693    2.2984 N.3       1 RES1    0.0000
     15 H3         3.9639    5.9375    2.5741 H         1 RES1    0.0000
     16 H4         2.7466    5.1241    2.8460 H         1 RES1    0.0000
     17 O5         0.7315    4.5171    2.3325 O.2       1 RES1    0.0000
     18 N5         1.8749    6.3205   -2.9691 N.pl3     1 RES1    0.0000
     19 N6         0.7477    4.4107    1.1201 N.pl3     1 RES1    0.0000
@<TRIPOS>BOND
     1    1    2 1
     2    3    1 ar
     3    4    5 ar
     4    5    3 ar
     5    6   18 2
     6    7    3 1
     7    8    7 1
     8    9    7 1
     9   10   18 2
    10   11    4 ar
    11   12    1 ar
    12   13   19 2
    13   14   12 1
    14   15   14 1
    15   16   14 1
    16   17   19 2
    17   18    5 1
    18   19   11 1
    19   11   12 ar
@<TRIPOS>SUBSTRUCTURE
     1 RES1 1

@<TRIPOS>CRYSIN
   5.7430   15.8250    8.3930  90.0000 100.9700  90.0000 231 1

