# MOL2 file generated by ConQuest
# Please check atom types

@<TRIPOS>MOLECULE
YEKTOY
    98   100     2
SMALL
NO_CHARGES
****
Generated from CSD

@<TRIPOS>ATOM
      1 C1        -0.1872    5.7895    6.1609 C.ar      1 RES1    0.0000
      2 C2        -1.4525    5.5416    6.6893 C.ar      1 RES1    0.0000
      3 H1        -2.2258    5.7955    6.1965 H         1 RES1    0.0000
      4 C3        -1.6011    4.9383    7.9079 C.ar      1 RES1    0.0000
      5 H2        -2.4645    4.7464    8.2513 H         1 RES1    0.0000
      6 C4        -0.4623    4.6095    8.6373 C.ar      1 RES1    0.0000
      7 C5         0.7927    4.8669    8.1481 C.ar      1 RES1    0.0000
      8 H3         1.5630    4.6362    8.6551 H         1 RES1    0.0000
      9 C6         0.9271    5.4564    6.9276 C.ar      1 RES1    0.0000
     10 H4         1.7945    5.6432    6.5932 H         1 RES1    0.0000
     11 N1        -0.6191    3.9305    9.9218 N.pl3     1 RES1    0.0000
     12 O1        -1.7521    3.5673   10.2580 O.2       1 RES1    0.0000
     13 O2         0.3728    3.7696   10.6050 O.2       1 RES1    0.0000
     14 C7        -0.1311    6.4349    4.8266 C.2       1 RES1    0.0000
     15 O3        -0.7541    7.4694    4.6273 O.2       1 RES1    0.0000
     16 N2         0.6421    5.8463    3.8766 N.am      1 RES1    0.0000
     17 C8         1.2983    4.5829    4.0367 C.ar      1 RES1    0.0000
     18 C9         0.5706    3.4408    4.3783 C.ar      1 RES1    0.0000
     19 H5        -0.3756    3.4787    4.4459 H         1 RES1    0.0000
     20 C10        1.2390    2.2549    4.6131 C.ar      1 RES1    0.0000
     21 H6         0.7541    1.4725    4.8515 H         1 RES1    0.0000
     22 C11        2.6136    2.2144    4.5010 C.ar      1 RES1    0.0000
     23 C12        3.3197    3.3281    4.1096 C.ar      1 RES1    0.0000
     24 H7         4.2629    3.2773    4.0047 H         1 RES1    0.0000
     25 C13        2.6699    4.5123    3.8712 C.ar      1 RES1    0.0000
     26 H8         3.1584    5.2791    3.5919 H         1 RES1    0.0000
     27 C14        3.4044    1.0026    4.8177 C.2       1 RES1    0.0000
     28 O4         2.6983   -0.0353    5.1984 O.3       1 RES1    0.0000
     29 H9         3.2134   -0.6739    5.3799 H         1 RES1    0.0000
     30 O5         4.6251    0.9983    4.7892 O.2       1 RES1    0.0000
     31 C15        0.7065    6.4633    2.5494 C.3       1 RES1    0.0000
     32 H10        1.6516    6.5132    2.2594 H         1 RES1    0.0000
     33 H11        0.3551    7.3885    2.6045 H         1 RES1    0.0000
     34 C16       -0.0833    5.7017    1.5264 C.3       1 RES1    0.0000
     35 H12        0.2822    4.7842    1.4606 H         1 RES1    0.0000
     36 H13        0.0347    6.1372    0.6440 H         1 RES1    0.0000
     37 C17       -1.5717    5.6148    1.8378 C.3       1 RES1    0.0000
     38 H14       -1.9432    6.5244    1.9641 H         1 RES1    0.0000
     39 H15       -1.7117    5.1044    2.6739 H         1 RES1    0.0000
     40 C18       -2.2878    4.9202    0.6832 C.3       1 RES1    0.0000
     41 H16       -2.0707    5.3936   -0.1583 H         1 RES1    0.0000
     42 H17       -1.9449    3.9950    0.6049 H         1 RES1    0.0000
     43 C19       -3.7225    4.8746    0.8308 C.3       1 RES1    0.0000
     44 H18       -4.0658    5.7972    0.9358 H         1 RES1    0.0000
     45 H19       -3.9458    4.3737    1.6563 H         1 RES1    0.0000
     46 C20       -4.4423    4.1964   -0.3914 C.3       1 RES1    0.0000
     47 H20       -5.4103    4.1973   -0.2420 H         1 RES1    0.0000
     48 H21       -4.1264    3.2730   -0.4839 H         1 RES1    0.0000
     49 H22       -4.2368    4.6956   -1.2098 H         1 RES1    0.0000
     50 C21        8.8189   -6.8007    3.5955 C.ar      2 RES2    0.0000
     51 C22        7.4952   -6.9091    3.2130 C.ar      2 RES2    0.0000
     52 H23        6.8459   -7.1845    3.8481 H         2 RES2    0.0000
     53 C23        7.1037   -6.6225    1.9178 C.ar      2 RES2    0.0000
     54 H24        6.2010   -6.7336    1.6421 H         2 RES2    0.0000
     55 C24        8.0645   -6.1707    1.0407 C.ar      2 RES2    0.0000
     56 C25        9.3701   -6.0132    1.4055 C.ar      2 RES2    0.0000
     57 H25       10.0075   -5.6707    0.7881 H         2 RES2    0.0000
     58 C26        9.7467   -6.3601    2.6810 C.ar      2 RES2    0.0000
     59 H26       10.6609   -6.2946    2.9337 H         2 RES2    0.0000
     60 N3         7.6502   -5.8540   -0.3309 N.pl3     2 RES2    0.0000
     61 O6         8.3064   -5.0003   -0.9322 O.2       2 RES2    0.0000
     62 O7         6.7202   -6.4762   -0.8130 O.2       2 RES2    0.0000
     63 C27        9.2585   -7.2852    4.9404 C.2       2 RES2    0.0000
     64 O8        10.0637   -8.2113    5.0009 O.2       2 RES2    0.0000
     65 N4         8.7065   -6.7181    6.0346 N.am      2 RES2    0.0000
     66 C28        7.9183   -5.5201    5.9705 C.ar      2 RES2    0.0000
     67 C29        8.4767   -4.3556    5.4919 C.ar      2 RES2    0.0000
     68 H27        9.3789   -4.3479    5.1966 H         2 RES2    0.0000
     69 C30        7.7237   -3.2024    5.4421 C.ar      2 RES2    0.0000
     70 H28        8.1113   -2.3969    5.1201 H         2 RES2    0.0000
     71 C31        6.4057   -3.2145    5.8620 C.ar      2 RES2    0.0000
     72 C32        5.8636   -4.3815    6.3690 C.ar      2 RES2    0.0000
     73 H29        4.9663   -4.3858    6.6839 H         2 RES2    0.0000
     74 C33        6.6092   -5.5304    6.4188 C.ar      2 RES2    0.0000
     75 H30        6.2296   -6.3308    6.7586 H         2 RES2    0.0000
     76 C34        5.5459   -2.0070    5.7588 C.2       2 RES2    0.0000
     77 O9         6.1982   -0.9209    5.4208 O.3       2 RES2    0.0000
     78 H31        5.6561   -0.2840    5.3336 H         2 RES2    0.0000
     79 O10        4.3395   -2.0380    5.9260 O.2       2 RES2    0.0000
     80 C35        8.9074   -7.3265    7.3617 C.3       2 RES2    0.0000
     81 H32        9.5623   -8.0650    7.2781 H         2 RES2    0.0000
     82 H33        8.0492   -7.7173    7.6660 H         2 RES2    0.0000
     83 C36        9.3957   -6.3644    8.4078 C.3       2 RES2    0.0000
     84 H34        9.5322   -6.8609    9.2529 H         2 RES2    0.0000
     85 H35        8.6911   -5.6888    8.5679 H         2 RES2    0.0000
     86 C37       10.6822   -5.6423    8.0627 C.3       2 RES2    0.0000
     87 H36       10.5443   -5.1423    7.2212 H         2 RES2    0.0000
     88 H37       10.8699   -4.9813    8.7761 H         2 RES2    0.0000
     89 C38       11.8686   -6.5141    7.9043 C.3       2 RES2    0.0000
     90 H38       11.6808   -7.1957    7.2105 H         2 RES2    0.0000
     91 H39       12.0424   -6.9866    8.7565 H         2 RES2    0.0000
     92 C39       13.1159   -5.7249    7.5058 C.3       2 RES2    0.0000
     93 H40       12.9170   -5.2266    6.6732 H         2 RES2    0.0000
     94 H41       13.3006   -5.0571    8.2139 H         2 RES2    0.0000
     95 C40       14.2816   -6.4771    7.2977 C.3       2 RES2    0.0000
     96 H42       15.0154   -5.8798    7.0433 H         2 RES2    0.0000
     97 H43       14.1272   -7.1286    6.5825 H         2 RES2    0.0000
     98 H44       14.5182   -6.9496    8.1232 H         2 RES2    0.0000
@<TRIPOS>BOND
     1    1    2 ar
     2    2    3 1
     3    4    2 ar
     4    5    4 1
     5    6    4 ar
     6    7    6 ar
     7    8    7 1
     8    9    1 ar
     9   10    9 1
    10   11    6 1
    11   12   11 2
    12   13   11 2
    13   14    1 1
    14   15   14 2
    15   16   14 1
    16   17   16 1
    17   18   17 ar
    18   19   18 1
    19   20   18 ar
    20   21   20 1
    21   22   20 ar
    22   23   22 ar
    23   24   23 1
    24   25   17 ar
    25   26   25 1
    26   27   22 1
    27   28   27 1
    28   29   28 1
    29   30   27 2
    30   31   16 1
    31   32   31 1
    32   33   31 1
    33   34   31 1
    34   35   34 1
    35   36   34 1
    36   37   34 1
    37   38   37 1
    38   39   37 1
    39   40   37 1
    40   41   40 1
    41   42   40 1
    42   43   40 1
    43   44   43 1
    44   45   43 1
    45   46   43 1
    46   47   46 1
    47   48   46 1
    48   49   46 1
    49   50   51 ar
    50   51   52 1
    51   53   51 ar
    52   54   53 1
    53   55   53 ar
    54   56   55 ar
    55   57   56 1
    56   58   50 ar
    57   59   58 1
    58   60   55 1
    59   61   60 2
    60   62   60 2
    61   63   50 1
    62   64   63 2
    63   65   63 1
    64   66   65 1
    65   67   66 ar
    66   68   67 1
    67   69   67 ar
    68   70   69 1
    69   71   69 ar
    70   72   71 ar
    71   73   72 1
    72   74   66 ar
    73   75   74 1
    74   76   71 1
    75   77   76 1
    76   78   77 1
    77   79   76 2
    78   80   65 1
    79   81   80 1
    80   82   80 1
    81   83   80 1
    82   84   83 1
    83   85   83 1
    84   86   83 1
    85   87   86 1
    86   88   86 1
    87   89   86 1
    88   90   89 1
    89   91   89 1
    90   92   89 1
    91   93   92 1
    92   94   92 1
    93   95   92 1
    94   96   95 1
    95   97   95 1
    96   98   95 1
    97    7    9 ar
    98   23   25 ar
    99   56   58 ar
   100   72   74 ar
@<TRIPOS>SUBSTRUCTURE
     1 RES1 1
     2 RES2 50

@<TRIPOS>CRYSIN
  24.9970    8.6063   19.0870  90.0000 111.2390  90.0000  14 1

