# MOL2 file generated by ConQuest
# Please check atom types

@<TRIPOS>MOLECULE
YEKTUE
    48    50     1
SMALL
NO_CHARGES
****
Generated from CSD

@<TRIPOS>ATOM
      1 N1         4.6479    4.4485    2.8011 N.am      1 RES1    0.0000
      2 C1         3.7903    3.2420    2.9043 C.3       1 RES1    0.0000
      3 H1         3.5085    2.9767    2.0152 H         1 RES1    0.0000
      4 H2         2.9953    3.4610    3.4155 H         1 RES1    0.0000
      5 C2         4.4956    2.0896    3.5614 C.ar      1 RES1    0.0000
      6 C3         4.9241    0.9952    2.8588 C.ar      1 RES1    0.0000
      7 H3         4.7488    0.9489    1.9469 H         1 RES1    0.0000
      8 C4         5.6030   -0.0320    3.4539 C.ar      1 RES1    0.0000
      9 H4         5.8764   -0.7655    2.9506 H         1 RES1    0.0000
     10 C5         5.8798    0.0231    4.7957 C.ar      1 RES1    0.0000
     11 C6         5.4437    1.0799    5.5368 C.ar      1 RES1    0.0000
     12 H5         5.6174    1.1198    6.4494 H         1 RES1    0.0000
     13 C7         4.7428    2.0899    4.9103 C.ar      1 RES1    0.0000
     14 H6         4.4254    2.7987    5.4236 H         1 RES1    0.0000
     15 O1         6.6013   -1.0399    5.3239 O.3       1 RES1    0.0000
     16 C8         6.9510   -0.9845    6.7099 C.3       1 RES1    0.0000
     17 H7         7.4497   -1.7696    6.9455 H         1 RES1    0.0000
     18 H8         6.1515   -0.9418    7.2402 H         1 RES1    0.0000
     19 H9         7.4851   -0.2030    6.8736 H         1 RES1    0.0000
     20 C9         5.8737    4.3056    2.0444 C.ar      1 RES1    0.0000
     21 C10        7.0804    4.4615    2.6687 C.ar      1 RES1    0.0000
     22 H10        7.1151    4.6413    3.5806 H         1 RES1    0.0000
     23 C11        8.2486    4.3501    1.9377 C.ar      1 RES1    0.0000
     24 H11        9.0696    4.4757    2.3569 H         1 RES1    0.0000
     25 C12        8.2077    4.0572    0.5987 C.ar      1 RES1    0.0000
     26 C13        6.9869    3.8801   -0.0050 C.ar      1 RES1    0.0000
     27 H12        6.9510    3.6657   -0.9097 H         1 RES1    0.0000
     28 C14        5.8169    4.0145    0.7054 C.ar      1 RES1    0.0000
     29 H13        4.9949    3.9096    0.2819 H         1 RES1    0.0000
     30 C15        9.4721    3.9488   -0.1765 C.2       1 RES1    0.0000
     31 O2        10.5480    4.2368    0.2684 O.2       1 RES1    0.0000
     32 O3         9.3146    3.5026   -1.3959 O.3       1 RES1    0.0000
     33 H14       10.2584    3.5037   -1.9070 H         1 RES1    0.0000
     34 C16        4.3315    5.5885    3.4212 C.2       1 RES1    0.0000
     35 O4         3.4289    5.6638    4.2626 O.2       1 RES1    0.0000
     36 C17        5.0686    6.8265    3.0467 C.ar      1 RES1    0.0000
     37 C18        5.6223    7.6572    4.0362 C.ar      1 RES1    0.0000
     38 H15        5.5434    7.4436    4.9374 H         1 RES1    0.0000
     39 C19        6.3059    8.8376    3.6233 C.ar      1 RES1    0.0000
     40 H16        6.7194    9.3859    4.2505 H         1 RES1    0.0000
     41 C20        6.3462    9.1456    2.3228 C.ar      1 RES1    0.0000
     42 C21        5.7719    8.4014    1.3746 C.ar      1 RES1    0.0000
     43 H17        5.8057    8.6666    0.4841 H         1 RES1    0.0000
     44 C22        5.1249    7.2353    1.7334 C.ar      1 RES1    0.0000
     45 H18        4.7198    6.7154    1.0756 H         1 RES1    0.0000
     46 N2         7.0797   10.3989    1.8878 N.pl3     1 RES1    0.0000
     47 O5         6.9735   10.7852    0.7980 O.2       1 RES1    0.0000
     48 O6         7.8503   10.8476    2.7207 O.2       1 RES1    0.0000
@<TRIPOS>BOND
     1    1    2 1
     2    2    3 1
     3    4    2 1
     4    5    2 1
     5    6    5 ar
     6    7    6 1
     7    8    6 ar
     8    9    8 1
     9   10    8 ar
    10   11   10 ar
    11   12   11 1
    12   13    5 ar
    13   14   13 1
    14   15   10 1
    15   16   15 1
    16   17   16 1
    17   18   16 1
    18   19   16 1
    19   20    1 1
    20   21   20 ar
    21   22   21 1
    22   23   21 ar
    23   24   23 1
    24   25   23 ar
    25   26   25 ar
    26   27   26 1
    27   28   20 ar
    28   29   28 1
    29   30   25 1
    30   31   30 2
    31   32   30 1
    32   33   32 1
    33   34    1 1
    34   35   34 2
    35   36   34 1
    36   37   36 ar
    37   38   37 1
    38   39   37 ar
    39   40   39 1
    40   41   39 ar
    41   42   41 ar
    42   43   42 1
    43   44   36 ar
    44   45   44 1
    45   46   41 1
    46   47   46 2
    47   48   46 2
    48   11   13 ar
    49   26   28 ar
    50   42   44 ar
@<TRIPOS>SUBSTRUCTURE
     1 RES1 1

@<TRIPOS>CRYSIN
  16.0866   17.8033    7.1185  90.0000  90.0000  90.0000  33 1

