# MOL2 file generated by ConQuest
# Please check atom types

@<TRIPOS>MOLECULE
YELGAY
    58    63     1
SMALL
NO_CHARGES
****
Generated from CSD

@<TRIPOS>ATOM
      1 O1         5.5632   -8.5120    4.6425 O.2       1 RES1    0.0000
      2 O2         5.0250   -9.1770    2.6893 O.2       1 RES1    0.0000
      3 O3         1.6541   -1.9313   -3.2859 O.2       1 RES1    0.0000
      4 O4         0.0450   -0.7880   -2.4476 O.2       1 RES1    0.0000
      5 N1         1.2876   -0.1703    7.1899 N.pl3     1 RES1    0.0000
      6 N2         2.1649   -3.5617    2.7675 N.pl3     1 RES1    0.0000
      7 N3         5.0001   -8.3473    3.5817 N.pl3     1 RES1    0.0000
      8 N4         0.9752   -1.5638   -2.3381 N.pl3     1 RES1    0.0000
      9 C1         0.7917    1.1327    7.1274 C.ar      1 RES1    0.0000
     10 C2         0.4586    1.8953    6.0209 C.ar      1 RES1    0.0000
     11 C3        -0.0378    3.1615    6.2482 C.ar      1 RES1    0.0000
     12 C4        -0.2244    3.6591    7.5363 C.ar      1 RES1    0.0000
     13 C5         0.1022    2.9034    8.6308 C.ar      1 RES1    0.0000
     14 C6         0.6249    1.6276    8.4396 C.ar      1 RES1    0.0000
     15 C7         1.0727    0.5913    9.3284 C.ar      1 RES1    0.0000
     16 C8         1.2067    0.5007   10.7175 C.ar      1 RES1    0.0000
     17 C9         1.6879   -0.6573   11.2684 C.ar      1 RES1    0.0000
     18 C10        2.0585   -1.7288   10.4613 C.ar      1 RES1    0.0000
     19 C11        1.9563   -1.6769    9.0842 C.ar      1 RES1    0.0000
     20 C12        1.4600   -0.5073    8.5358 C.ar      1 RES1    0.0000
     21 C13        1.5095   -1.0355    6.0762 C.ar      1 RES1    0.0000
     22 C14        0.9340   -2.2935    6.0413 C.ar      1 RES1    0.0000
     23 C15        1.1492   -3.1258    4.9552 C.ar      1 RES1    0.0000
     24 C16        1.9253   -2.6902    3.8932 C.ar      1 RES1    0.0000
     25 C17        2.4820   -1.4298    3.9221 C.ar      1 RES1    0.0000
     26 C18        2.2958   -0.6081    5.0166 C.ar      1 RES1    0.0000
     27 C19        2.8468   -4.7649    2.9719 C.ar      1 RES1    0.0000
     28 C20        3.7157   -4.9025    4.0508 C.ar      1 RES1    0.0000
     29 C21        4.3993   -6.0684    4.2613 C.ar      1 RES1    0.0000
     30 C22        4.2370   -7.1195    3.3809 C.ar      1 RES1    0.0000
     31 C23        3.3739   -7.0317    2.3141 C.ar      1 RES1    0.0000
     32 C24        2.6697   -5.8678    2.1192 C.ar      1 RES1    0.0000
     33 C25        1.8747   -3.0821    1.4782 C.ar      1 RES1    0.0000
     34 C26        2.7266   -3.3194    0.3981 C.ar      1 RES1    0.0000
     35 C27        2.4324   -2.8262   -0.8503 C.ar      1 RES1    0.0000
     36 C28        1.2908   -2.0770   -1.0127 C.ar      1 RES1    0.0000
     37 C29        0.4481   -1.8043    0.0445 C.ar      1 RES1    0.0000
     38 C30        0.7376   -2.3030    1.2869 C.ar      1 RES1    0.0000
     39 H1         0.5649    1.5657    5.1573 H         1 RES1    0.0000
     40 H2        -0.2542    3.6995    5.5217 H         1 RES1    0.0000
     41 H3        -0.5734    4.5130    7.6542 H         1 RES1    0.0000
     42 H4        -0.0225    3.2373    9.4895 H         1 RES1    0.0000
     43 H5         0.9711    1.2187   11.2612 H         1 RES1    0.0000
     44 H6         1.7679   -0.7282   12.1921 H         1 RES1    0.0000
     45 H7         2.3863   -2.5029   10.8606 H         1 RES1    0.0000
     46 H8         2.2090   -2.3958    8.5502 H         1 RES1    0.0000
     47 H9         0.4022   -2.5801    6.7485 H         1 RES1    0.0000
     48 H10        0.7727   -3.9760    4.9384 H         1 RES1    0.0000
     49 H11        2.9874   -1.1315    3.2005 H         1 RES1    0.0000
     50 H12        2.6966    0.2303    5.0430 H         1 RES1    0.0000
     51 H13        3.8333   -4.1897    4.6365 H         1 RES1    0.0000
     52 H14        4.9692   -6.1528    4.9913 H         1 RES1    0.0000
     53 H15        3.2676   -7.7495    1.7319 H         1 RES1    0.0000
     54 H16        2.0666   -5.8092    1.4132 H         1 RES1    0.0000
     55 H17        3.5020   -3.8172    0.5256 H         1 RES1    0.0000
     56 H18        2.9948   -2.9956   -1.5708 H         1 RES1    0.0000
     57 H19       -0.3118   -1.2840   -0.0854 H         1 RES1    0.0000
     58 H20        0.1731   -2.1204    2.0025 H         1 RES1    0.0000
@<TRIPOS>BOND
     1    1    7 2
     2    2    7 2
     3    3    8 2
     4    4    8 2
     5    5    9 1
     6    6   24 1
     7    7   30 1
     8    8   36 1
     9    9   10 ar
    10   10   11 ar
    11   11   12 ar
    12   12   13 ar
    13   13   14 ar
    14   14    9 ar
    15   15   14 1
    16   16   15 ar
    17   17   16 ar
    18   18   17 ar
    19   19   18 ar
    20   20    5 1
    21   21    5 1
    22   22   21 ar
    23   23   22 ar
    24   24   23 ar
    25   25   24 ar
    26   26   21 ar
    27   27    6 1
    28   28   27 ar
    29   29   28 ar
    30   30   29 ar
    31   31   30 ar
    32   32   27 ar
    33   33    6 1
    34   34   33 ar
    35   35   34 ar
    36   36   35 ar
    37   37   36 ar
    38   38   33 ar
    39   39   10 1
    40   40   11 1
    41   41   12 1
    42   42   13 1
    43   43   16 1
    44   44   17 1
    45   45   18 1
    46   46   19 1
    47   47   22 1
    48   48   23 1
    49   49   25 1
    50   50   26 1
    51   51   28 1
    52   52   29 1
    53   53   31 1
    54   54   32 1
    55   55   34 1
    56   56   35 1
    57   57   37 1
    58   58   38 1
    59   15   20 ar
    60   19   20 ar
    61   25   26 ar
    62   31   32 ar
    63   37   38 ar
@<TRIPOS>SUBSTRUCTURE
     1 RES1 1

@<TRIPOS>CRYSIN
   9.2540   11.1300   12.3680 100.1530  97.1200  98.7440   2 1

