# MOL2 file generated by ConQuest
# Please check atom types

@<TRIPOS>MOLECULE
YELKEI
    21    22     1
SMALL
USER_CHARGES
****
Generated from CSD

@<TRIPOS>ATOM
      1 C1         2.9662    0.0248    9.9372 C.ar      1 RES1    0.0000
      2 C2         2.6079   -1.2901   10.2254 C.ar      1 RES1    0.0000
      3 H1         2.6520   -1.9680    9.5903 H         1 RES1    0.0000
      4 C3         2.1882   -1.5156   11.5049 C.ar      1 RES1    0.0000
      5 H2         1.9323   -2.3751   11.7503 H         1 RES1    0.0000
      6 C4         2.1313   -0.4877   12.4612 C.ar      1 RES1    0.0000
      7 H3         1.8363   -0.6923   13.3198 H         1 RES1    0.0000
      8 C5         2.4911    0.8021   12.1815 C.ar      1 RES1    0.0000
      9 H4         2.4489    1.4773   12.8205 H         1 RES1    0.0000
     10 C6         2.9262    1.0418   10.8758 C.ar      1 RES1    0.0000
     11 C7         3.5349    3.5163   10.7026 C.3       1 RES1    0.0000
     12 H5         4.3426    3.8978   10.3249 H         1 RES1    0.0000
     13 H6         3.6333    3.5128   11.6672 H         1 RES1    0.0000
     14 C8         2.3631    4.3898   10.3343 C.2       1 RES1    0.0000
     15 N1         3.4532    0.6103    8.7938 N.pl3     1 RES1    1.0000
     16 N2         3.7145    1.8826    8.9570 N.2       1 RES1    0.0000
     17 N3         3.4000    2.1480   10.2392 N.pl3     1 RES1    0.0000
     18 O1         3.6689    0.0260    7.6479 O.2       1 RES1   -1.0000
     19 O2         1.2395    3.7351   10.2937 O.3       1 RES1    0.0000
     20 H7         0.6277    4.2535   10.1219 H         1 RES1    0.0000
     21 O3         2.4942    5.5611   10.1229 O.2       1 RES1    0.0000
@<TRIPOS>BOND
     1    1    2 ar
     2    2    3 1
     3    4    2 ar
     4    5    4 1
     5    6    4 ar
     6    7    6 1
     7    8    6 ar
     8    9    8 1
     9   10    1 ar
    10   11   12 1
    11   13   11 1
    12   14   11 1
    13   15    1 1
    14   16   15 2
    15   17   10 1
    16   18   15 1
    17   19   14 1
    18   20   19 1
    19   21   14 2
    20    8   10 ar
    21   11   17 1
    22   16   17 1
@<TRIPOS>SUBSTRUCTURE
     1 RES1 1

@<TRIPOS>CRYSIN
   7.2526   10.0770   11.9060  90.0000 104.3930  90.0000  14 1

