# MOL2 file generated by ConQuest
# Please check atom types

@<TRIPOS>MOLECULE
YELMOR
    28    29     1
SMALL
NO_CHARGES
****
Generated from CSD

@<TRIPOS>ATOM
      1 C1         6.8090    5.4711   -1.3231 C.3       1 RES1    0.0000
      2 C2         6.2407    6.0586   -0.0522 C.3       1 RES1    0.0000
      3 C3         6.9731    5.4330    1.1370 C.3       1 RES1    0.0000
      4 C4         6.8714    3.9199    1.0712 C.3       1 RES1    0.0000
      5 C5         7.3501    3.4279   -0.2882 C.3       1 RES1    0.0000
      6 O1         6.6209    4.0514   -1.3413 O.3       1 RES1    0.0000
      7 N1         6.2023    6.0480   -2.4783 N.pl3     1 RES1    0.0000
      8 C6         6.8082    6.0130   -3.7152 C.ar      1 RES1    0.0000
      9 C7         7.9304    5.2241   -3.9580 C.ar      1 RES1    0.0000
     10 C8         8.5355    5.2358   -5.1858 C.ar      1 RES1    0.0000
     11 C9         8.0328    6.0342   -6.1889 C.ar      1 RES1    0.0000
     12 C10        6.9363    6.8177   -5.9869 C.ar      1 RES1    0.0000
     13 C11        6.3096    6.8114   -4.7433 C.ar      1 RES1    0.0000
     14 N2         8.6859    6.0236   -7.5052 N.pl3     1 RES1    0.0000
     15 O2         9.6744    5.3206   -7.6459 O.2       1 RES1    0.0000
     16 O3         8.2441    6.7477   -8.3745 O.2       1 RES1    0.0000
     17 O4         4.8456    5.6970   -0.0113 O.3       1 RES1    0.0000
     18 C12        3.9884    6.5792    0.5447 C.2       1 RES1    0.0000
     19 O5         4.3422    7.6236    1.0349 O.2       1 RES1    0.0000
     20 C13        2.5877    6.0882    0.4539 C.3       1 RES1    0.0000
     21 O6         6.4144    5.8794    2.3807 O.3       1 RES1    0.0000
     22 C14        6.8610    7.0701    2.8437 C.2       1 RES1    0.0000
     23 O7         7.7303    7.6988    2.3081 O.2       1 RES1    0.0000
     24 C15        6.0942    7.4688    4.0624 C.3       1 RES1    0.0000
     25 O8         7.7503    3.4226    2.0970 O.3       1 RES1    0.0000
     26 C16        7.4333    2.2648    2.6803 C.2       1 RES1    0.0000
     27 O9         6.5065    1.5862    2.3308 O.2       1 RES1    0.0000
     28 C17        8.3730    1.9785    3.7901 C.3       1 RES1    0.0000
@<TRIPOS>BOND
     1    1    2 1
     2    2    3 1
     3    3    4 1
     4    4    5 1
     5    5    6 1
     6    6    1 1
     7    7    1 1
     8    8    7 1
     9    9    8 ar
    10   10    9 ar
    11   11   10 ar
    12   12   11 ar
    13   13    8 ar
    14   14   11 1
    15   15   14 2
    16   16   14 2
    17   17    2 1
    18   18   17 1
    19   19   18 2
    20   20   18 1
    21   21    3 1
    22   22   21 1
    23   23   22 2
    24   24   22 1
    25   25    4 1
    26   26   25 1
    27   27   26 2
    28   28   26 1
    29   12   13 ar
@<TRIPOS>SUBSTRUCTURE
     1 RES1 1

@<TRIPOS>CRYSIN
   8.0040   10.6030   22.6950  90.0000  90.0000  90.0000  19 1

