# MOL2 file generated by ConQuest
# Please check atom types

@<TRIPOS>MOLECULE
YELMUX
    28    29     1
SMALL
NO_CHARGES
****
Generated from CSD

@<TRIPOS>ATOM
      1 C1         5.2188    9.4507    0.8213 C.3       1 RES1    0.0000
      2 C2         5.9029    8.3542    1.6137 C.3       1 RES1    0.0000
      3 C3         6.4464    8.9024    2.9179 C.3       1 RES1    0.0000
      4 C4         7.3663   10.0873    2.6537 C.3       1 RES1    0.0000
      5 C5         6.6240   11.0946    1.8201 C.3       1 RES1    0.0000
      6 O1         6.1465   10.5153    0.5984 O.3       1 RES1    0.0000
      7 N1         4.8122    8.9549   -0.4416 N.pl3     1 RES1    0.0000
      8 C6         4.0873    9.6904   -1.3619 C.ar      1 RES1    0.0000
      9 C7         3.4876   10.9044   -1.0359 C.ar      1 RES1    0.0000
     10 C8         2.7734   11.5992   -1.9769 C.ar      1 RES1    0.0000
     11 C9         2.6463   11.1130   -3.2398 C.ar      1 RES1    0.0000
     12 C10        3.2314    9.9136   -3.5947 C.ar      1 RES1    0.0000
     13 C11        3.9330    9.2072   -2.6537 C.ar      1 RES1    0.0000
     14 N2         1.9233   11.9020   -4.2220 N.pl3     1 RES1    0.0000
     15 O2         1.3469   12.9238   -3.8423 O.2       1 RES1    0.0000
     16 O3         1.9030   11.5264   -5.3817 O.2       1 RES1    0.0000
     17 O4         4.9287    7.3450    1.9232 O.3       1 RES1    0.0000
     18 C12        5.3061    6.0669    1.8407 C.2       1 RES1    0.0000
     19 O5         6.3697    5.6972    1.4651 O.2       1 RES1    0.0000
     20 C13        4.2523    5.1548    2.3359 C.3       1 RES1    0.0000
     21 O6         7.1383    7.8224    3.5452 O.3       1 RES1    0.0000
     22 C14        7.2392    7.8486    4.8906 C.2       1 RES1    0.0000
     23 O7         6.7656    8.7045    5.5551 O.2       1 RES1    0.0000
     24 C15        8.0009    6.6569    5.3735 C.3       1 RES1    0.0000
     25 O8         8.5065    9.6302    1.8985 O.3       1 RES1    0.0000
     26 C16        9.6108    9.2741    2.5877 C.2       1 RES1    0.0000
     27 O9         9.7312    9.3906    3.7639 O.2       1 RES1    0.0000
     28 C17       10.6647    8.7511    1.6715 C.3       1 RES1    0.0000
@<TRIPOS>BOND
     1    1    2 1
     2    2    3 1
     3    3    4 1
     4    4    5 1
     5    5    6 1
     6    6    1 1
     7    7    1 1
     8    8    7 1
     9    9    8 ar
    10   10    9 ar
    11   11   10 ar
    12   12   11 ar
    13   13    8 ar
    14   14   11 1
    15   15   14 2
    16   16   14 2
    17   17    2 1
    18   18   17 1
    19   19   18 2
    20   20   18 1
    21   21    3 1
    22   22   21 1
    23   23   22 2
    24   24   22 1
    25   25    4 1
    26   26   25 1
    27   27   26 2
    28   28   26 1
    29   12   13 ar
@<TRIPOS>SUBSTRUCTURE
     1 RES1 1

@<TRIPOS>CRYSIN
   9.7040    9.7040   41.2710  90.0000  90.0000  90.0000  96 1

