# MOL2 file generated by ConQuest
# Please check atom types

@<TRIPOS>MOLECULE
YELQAK
    31    32     1
SMALL
NO_CHARGES
****
Generated from CSD

@<TRIPOS>ATOM
      1 O1        -0.2485    3.5151   12.2963 O.3       1 RES1    0.0000
      2 O2        -1.6388    3.8052    8.1258 O.2       1 RES1    0.0000
      3 O3        -0.7126    0.7875   10.1617 O.3       1 RES1    0.0000
      4 O4        -0.4207    0.8095   12.3830 O.2       1 RES1    0.0000
      5 O5         4.1971    0.2206    5.9082 O.2       1 RES1    0.0000
      6 O6         2.8344    0.4174    4.2364 O.2       1 RES1    0.0000
      7 N1        -0.1741    4.8719   11.9692 N.2       1 RES1    0.0000
      8 N2         3.1403    0.5767    5.4121 N.pl3     1 RES1    0.0000
      9 C1         1.6276    2.3065    8.3434 C.ar      1 RES1    0.0000
     10 H1         1.8649    2.5782    9.2010 H         1 RES1    0.0000
     11 C2         0.3612    2.5841    7.8578 C.ar      1 RES1    0.0000
     12 C3        -0.6412    3.3546    8.6445 C.2       1 RES1    0.0000
     13 C4        -0.3768    2.8060   11.1487 C.2       1 RES1    0.0000
     14 C5         0.0112    2.1770    6.5772 C.ar      1 RES1    0.0000
     15 H2        -0.8420    2.3555    6.2528 H         1 RES1    0.0000
     16 C6        -0.5057    1.3535   11.3215 C.2       1 RES1    0.0000
     17 C7        -0.4027    3.6373   10.0881 C.2       1 RES1    0.0000
     18 C8         0.9079    1.5178    5.7898 C.ar      1 RES1    0.0000
     19 H3         0.6762    1.2507    4.9290 H         1 RES1    0.0000
     20 C9        -0.2756    4.9180   10.6798 C.2       1 RES1    0.0000
     21 H4        -0.2672    5.7095   10.1932 H         1 RES1    0.0000
     22 C10        2.5422    1.6249    7.5552 C.ar      1 RES1    0.0000
     23 H5         3.3914    1.4227    7.8760 H         1 RES1    0.0000
     24 C11        2.1612    1.2557    6.2883 C.ar      1 RES1    0.0000
     25 C12       -0.7653   -0.6723   10.1588 C.3       1 RES1    0.0000
     26 H6        -0.2413   -1.0166   10.8988 H         1 RES1    0.0000
     27 H7        -1.6825   -0.9632   10.2796 H         1 RES1    0.0000
     28 C13       -0.2712   -1.1824    8.9665 C.3       1 RES1    0.0000
     29 H8        -0.2891   -2.1418    8.9961 H         1 RES1    0.0000
     30 H9         0.6320   -0.8831    8.8398 H         1 RES1    0.0000
     31 H10       -0.8147   -0.8749    8.2372 H         1 RES1    0.0000
@<TRIPOS>BOND
     1    1    7 1
     2    2   12 2
     3    3   16 1
     4    4   16 2
     5    5    8 2
     6    6    8 2
     7    7   20 2
     8    8   24 1
     9    9   10 1
    10   11    9 ar
    11   12   11 1
    12   13    1 1
    13   14   11 ar
    14   15   14 1
    15   16   13 1
    16   17   12 1
    17   18   14 ar
    18   19   18 1
    19   20   17 1
    20   21   20 1
    21   22    9 ar
    22   23   22 1
    23   24   18 ar
    24   25    3 1
    25   26   25 1
    26   27   25 1
    27   28   25 1
    28   29   28 1
    29   30   28 1
    30   31   28 1
    31   13   17 2
    32   22   24 ar
@<TRIPOS>SUBSTRUCTURE
     1 RES1 1

@<TRIPOS>CRYSIN
   6.6907    8.7715   12.0020  97.2120  93.5400 107.7590   2 1

