# MOL2 file generated by ConQuest
# Please check atom types

@<TRIPOS>MOLECULE
YELQIS
    31    32     1
SMALL
NO_CHARGES
****
Generated from CSD

@<TRIPOS>ATOM
      1 O1         6.0781    5.4042    5.7565 O.3       1 RES1    0.0000
      2 O2         7.3406    6.6478    2.1564 O.3       1 RES1    0.0000
      3 O3         2.7555    8.1926    5.1071 O.2       1 RES1    0.0000
      4 O4         5.5468    7.9955    2.0886 O.2       1 RES1    0.0000
      5 O5         2.7354    3.9229   11.4535 O.2       1 RES1    0.0000
      6 O6         1.2853    5.4893   11.0896 O.2       1 RES1    0.0000
      7 N1         6.6780    5.7254    4.5320 N.2       1 RES1    0.0000
      8 N2         2.2864    4.8544   10.7962 N.pl3     1 RES1    0.0000
      9 C1         4.2365    5.8223    7.1703 C.ar      1 RES1    0.0000
     10 C2         2.3787    6.0941    8.6826 C.ar      1 RES1    0.0000
     11 H1         1.5437    6.4885    8.9071 H         1 RES1    0.0000
     12 C3         4.9307    6.1143    5.9114 C.2       1 RES1    0.0000
     13 C4         4.8452    4.9466    8.0823 C.ar      1 RES1    0.0000
     14 H2         5.6898    4.5629    7.8765 H         1 RES1    0.0000
     15 C5         4.7450    6.9046    4.7964 C.2       1 RES1    0.0000
     16 C6         5.8868    6.6043    3.9856 C.2       1 RES1    0.0000
     17 C7         3.0011    6.3944    7.4798 C.ar      1 RES1    0.0000
     18 H3         2.5866    6.9898    6.8667 H         1 RES1    0.0000
     19 C8         4.2225    4.6363    9.2844 C.ar      1 RES1    0.0000
     20 H4         4.6287    4.0451    9.9077 H         1 RES1    0.0000
     21 C9         2.9942    5.2125    9.5474 C.ar      1 RES1    0.0000
     22 C10        6.2280    7.1745    2.6376 C.2       1 RES1    0.0000
     23 C11        3.6842    7.8498    4.4202 C.2       1 RES1    0.0000
     24 H5         3.7355    8.2275    3.5498 H         1 RES1    0.0000
     25 C12        7.6525    7.0359    0.7784 C.3       1 RES1    0.0000
     26 H6         7.9317    7.9850    0.7456 H         1 RES1    0.0000
     27 H7         6.8550    6.9235    0.2030 H         1 RES1    0.0000
     28 C13        8.7542    6.1612    0.3029 C.3       1 RES1    0.0000
     29 H8         8.9850    6.3992   -0.6194 H         1 RES1    0.0000
     30 H9         8.4664    5.2253    0.3370 H         1 RES1    0.0000
     31 H10        9.5390    6.2827    0.8770 H         1 RES1    0.0000
@<TRIPOS>BOND
     1    1    7 1
     2    2   22 1
     3    3   23 2
     4    4   22 2
     5    5    8 2
     6    6    8 2
     7    7   16 2
     8    8   21 1
     9    9   12 1
    10   10   11 1
    11   12    1 1
    12   13    9 ar
    13   14   13 1
    14   15   12 2
    15   16   15 1
    16   17    9 ar
    17   18   17 1
    18   19   13 ar
    19   20   19 1
    20   21   10 ar
    21   22   16 1
    22   23   15 1
    23   24   23 1
    24   25    2 1
    25   26   25 1
    26   27   25 1
    27   28   25 1
    28   29   28 1
    29   30   28 1
    30   31   28 1
    31   10   17 ar
    32   19   21 ar
@<TRIPOS>SUBSTRUCTURE
     1 RES1 1

@<TRIPOS>CRYSIN
   5.8104    8.2881   13.1190  89.3120  82.6950  85.3220   2 1

