# MOL2 file generated by ConQuest
# Please check atom types

@<TRIPOS>MOLECULE
YELRUD
    16    12     2
SMALL
NO_CHARGES
****
Generated from CSD

@<TRIPOS>ATOM
      1 O1        -3.5072    1.4914    3.4376 O.3       1 RES1    0.0000
      2 H1        -4.3852    1.6358    3.0844 Du        2 SUP2    0.0000
      3 N1        -3.1818    2.6679    3.9886 Du        2 SUP2    0.0000
      4 C1        -1.5816    3.9638    5.1490 Du        2 SUP2    0.0000
      5 C2        -4.0448    3.7417    3.9495 C.ar      1 RES1    0.0000
      6 H2        -4.8826    3.6627    3.5533 H         1 RES1    0.0000
      7 C3        -1.9643    2.7794    4.5725 C.ar      1 RES1    0.0000
      8 H3        -1.3861    2.0504    4.5826 H         1 RES1    0.0000
      9 N2        -1.5843    3.9605    5.1439 N.pl3     1 RES1    0.0000
     10 C4        -3.1860    2.6679    3.9815 C.ar      1 RES1    0.0000
     11 C5        -2.4107    5.0559    5.1184 C.ar      1 RES1    0.0000
     12 H4        -2.1464    5.8600    5.5043 H         1 RES1    0.0000
     13 O2        -0.3897    4.0686    5.7394 O.2       1 RES1    0.0000
     14 H5        -0.1109    3.3012    5.8982 Du        2 SUP2    0.0000
     15 C6        -3.6406    4.9380    4.5101 C.ar      1 RES1    0.0000
     16 H6        -4.2070    5.6742    4.4762 H         1 RES1    0.0000
@<TRIPOS>BOND
     1    1   10 1
     2    5    6 1
     3    7    8 1
     4    9    7 ar
     5   10    5 ar
     6   11    9 ar
     7   12   11 1
     8   13    9 1
     9   15    5 ar
    10   16   15 1
    11    7   10 ar
    12   11   15 ar
@<TRIPOS>SUBSTRUCTURE
     1 RES1 1
     2 SUP2 2

@<TRIPOS>CRYSIN
   6.3536    6.5014    6.9499 113.7940  99.6500 106.9300   2 1

