# MOL2 file generated by ConQuest
# Please check atom types

@<TRIPOS>MOLECULE
YEMKIK
    40    40     1
SMALL
USER_CHARGES
****
Generated from CSD

@<TRIPOS>ATOM
      1 O1         3.4542   10.5396    2.7449 O.3       1 RES1    0.0000
      2 O2         6.3096    7.1992    2.5727 O.3       1 RES1    0.0000
      3 O3         8.2371   10.2606    2.1944 O.3       1 RES1    0.0000
      4 O4         5.9122    8.6729    0.0946 O.3       1 RES1    0.0000
      5 O5         7.8853    9.4003   -1.9733 O.3       1 RES1    0.0000
      6 O6         5.6327    7.1571    4.6924 O.2       1 RES1    0.0000
      7 O7         9.3396    9.2591    3.8471 O.2       1 RES1    0.0000
      8 O8         9.1881   11.1539   -1.4297 O.2       1 RES1    0.0000
      9 N1         3.6944    8.4632    0.6342 N.2       1 RES1    0.0000
     10 N2         2.7666    9.0362    0.0966 N.1       1 RES1    1.0000
     11 N3         1.8343    9.4449   -0.3724 N.2       1 RES1   -1.0000
     12 N4         4.6089    9.9212    3.2288 N.2       1 RES1    0.0000
     13 C1         4.8772    9.2996    0.8363 C.3       1 RES1    0.0000
     14 C2         5.2548    9.3334    2.3049 C.2       1 RES1    0.0000
     15 C3         6.5078    8.6325    2.6991 C.3       1 RES1    0.0000
     16 C4         7.6644    9.0023    1.7672 C.3       1 RES1    0.0000
     17 C5         7.1682    9.3029    0.3455 C.3       1 RES1    0.0000
     18 C6         8.1624    8.8174   -0.6949 C.3       1 RES1    0.0000
     19 C7         5.8193    6.5792    3.6589 C.2       1 RES1    0.0000
     20 C8         5.5441    5.1319    3.3951 C.3       1 RES1    0.0000
     21 C9         9.1015   10.2647    3.2189 C.2       1 RES1    0.0000
     22 C10        9.6364   11.6294    3.4628 C.3       1 RES1    0.0000
     23 C11        8.4886   10.5875   -2.2272 C.2       1 RES1    0.0000
     24 C12        8.1162   11.1093   -3.5813 C.3       1 RES1    0.0000
     25 H1         4.6918   10.2771    0.5406 H         1 RES1    0.0000
     26 H2         3.0019   10.7881    3.5723 H         1 RES1    0.0000
     27 H3         6.7023    8.8752    3.7216 H         1 RES1    0.0000
     28 H4         8.3433    8.3600    1.6975 H         1 RES1    0.0000
     29 H5         7.0693   10.3324    0.3007 H         1 RES1    0.0000
     30 H6         9.1094    9.0857   -0.4450 H         1 RES1    0.0000
     31 H7         8.1100    7.8226   -0.8473 H         1 RES1    0.0000
     32 H8         5.6512    4.5342    4.1388 H         1 RES1    0.0000
     33 H9         6.2984    5.0485    2.8057 H         1 RES1    0.0000
     34 H10        4.7401    4.9107    2.9192 H         1 RES1    0.0000
     35 H11        9.8827   12.0191    4.3051 H         1 RES1    0.0000
     36 H12        9.0083   12.2024    3.0157 H         1 RES1    0.0000
     37 H13       10.4189   11.5254    2.9162 H         1 RES1    0.0000
     38 H14        8.9260   11.3669   -4.0303 H         1 RES1    0.0000
     39 H15        7.4780   11.8226   -3.6370 H         1 RES1    0.0000
     40 H16        7.7567   10.3217   -3.9984 H         1 RES1    0.0000
@<TRIPOS>BOND
     1    1   12 1
     2    2   15 1
     3    3   16 1
     4    4   13 1
     5    5   18 1
     6    6   19 2
     7    7   21 2
     8    8   23 2
     9    9   10 2
    10   10   11 2
    11   12   14 2
    12   13    9 1
    13   14   13 1
    14   15   14 1
    15   16   15 1
    16   17    4 1
    17   18   17 1
    18   19    2 1
    19   20   19 1
    20   21    3 1
    21   22   21 1
    22   23    5 1
    23   24   23 1
    24   25   13 1
    25   26    1 1
    26   27   15 1
    27   28   16 1
    28   29   17 1
    29   30   18 1
    30   31   18 1
    31   32   20 1
    32   33   20 1
    33   34   20 1
    34   35   22 1
    35   36   22 1
    36   37   22 1
    37   38   24 1
    38   39   24 1
    39   40   24 1
    40   16   17 1
@<TRIPOS>SUBSTRUCTURE
     1 RES1 1

@<TRIPOS>CRYSIN
  10.0040    8.2560   10.1190  90.0000 100.2900  90.0000   4 1

