# MOL2 file generated by ConQuest
# Please check atom types

@<TRIPOS>MOLECULE
YEMKEG
    45    45     1
SMALL
NO_CHARGES
****
Generated from CSD

@<TRIPOS>ATOM
      1 O1         1.7903   11.7101   16.7886 O.3       1 RES1    0.0000
      2 O2         0.1939   15.5753   15.5888 O.3       1 RES1    0.0000
      3 O3        -2.1904   14.2389   17.9289 O.3       1 RES1    0.0000
      4 O4        -1.2603   13.2083   14.6425 O.3       1 RES1    0.0000
      5 O5        -3.4154   14.8770   14.2389 O.3       1 RES1    0.0000
      6 O6        -0.0534   10.7280   13.1049 O.2       1 RES1    0.0000
      7 O7        -0.0345   17.2557   16.9903 O.2       1 RES1    0.0000
      8 O8        -3.9174   15.6385   17.6942 O.2       1 RES1    0.0000
      9 O9        -5.5064   14.6594   13.5569 O.2       1 RES1    0.0000
     10 N1         0.8693   12.5232   14.0903 N.am      1 RES1    0.0000
     11 N2         1.3220   12.9628   17.1452 N.2       1 RES1    0.0000
     12 C1        -0.0994   12.5761   15.1493 C.3       1 RES1    0.0000
     13 C2         0.4215   13.3553   16.3349 C.2       1 RES1    0.0000
     14 C3        -0.2333   14.6623   16.6353 C.3       1 RES1    0.0000
     15 C4        -1.7599   14.5535   16.5977 C.3       1 RES1    0.0000
     16 C5        -2.2249   13.4156   15.6748 C.3       1 RES1    0.0000
     17 C6        -3.5510   13.6655   15.0132 C.3       1 RES1    0.0000
     18 C7         0.7920   11.6072   13.1174 C.2       1 RES1    0.0000
     19 C8         1.8404   11.7219   12.0459 C.3       1 RES1    0.0000
     20 C9         0.2958   16.8573   15.9079 C.2       1 RES1    0.0000
     21 C10        0.7304   17.6865   14.7316 C.3       1 RES1    0.0000
     22 C11       -3.3176   14.8431   18.3621 C.2       1 RES1    0.0000
     23 C12       -3.6923   14.3242   19.7120 C.3       1 RES1    0.0000
     24 C13       -4.4777   15.2504   13.5382 C.2       1 RES1    0.0000
     25 C14       -4.2189   16.4795   12.7467 C.3       1 RES1    0.0000
     26 H1         1.4731   13.0627   13.9855 H         1 RES1    0.0000
     27 H2        -0.2259   11.6028   15.4684 H         1 RES1    0.0000
     28 H3         2.5905   11.7013   17.4377 H         1 RES1    0.0000
     29 H4         0.1331   15.0107   17.4940 H         1 RES1    0.0000
     30 H5        -2.2027   15.4018   16.2974 H         1 RES1    0.0000
     31 H6        -2.3120   12.6128   16.2239 H         1 RES1    0.0000
     32 H7        -3.7646   12.9231   14.4407 H         1 RES1    0.0000
     33 H8        -4.2082   13.7625   15.7609 H         1 RES1    0.0000
     34 H9         1.4247   11.4793   11.2153 H         1 RES1    0.0000
     35 H10        2.4960   11.0618   12.2821 H         1 RES1    0.0000
     36 H11        2.2652   12.5776   11.9552 H         1 RES1    0.0000
     37 H12        0.4363   18.5951   14.6440 H         1 RES1    0.0000
     38 H13        0.9539   17.3366   13.8666 H         1 RES1    0.0000
     39 H14        1.5027   17.6512   15.3010 H         1 RES1    0.0000
     40 H15       -4.6125   14.5976   19.6901 H         1 RES1    0.0000
     41 H16       -3.2634   14.7314   20.4816 H         1 RES1    0.0000
     42 H17       -3.6430   13.3656   19.7590 H         1 RES1    0.0000
     43 H18       -4.9666   16.7000   12.1851 H         1 RES1    0.0000
     44 H19       -3.4400   16.3413   12.2023 H         1 RES1    0.0000
     45 H20       -4.0579   17.1984   13.3630 H         1 RES1    0.0000
@<TRIPOS>BOND
     1    1   11 1
     2    2   14 1
     3    3   15 1
     4    4   12 1
     5    5   17 1
     6    6   18 2
     7    7   20 2
     8    8   22 2
     9    9   24 2
    10   10   12 1
    11   11   13 2
    12   12   13 1
    13   13   14 1
    14   14   15 1
    15   15   16 1
    16   16    4 1
    17   17   16 1
    18   18   10 1
    19   19   18 1
    20   20    2 1
    21   21   20 1
    22   22    3 1
    23   23   22 1
    24   24    5 1
    25   25   24 1
    26   26   10 1
    27   27   12 1
    28   28    1 1
    29   29   14 1
    30   30   15 1
    31   31   16 1
    32   32   17 1
    33   33   17 1
    34   34   19 1
    35   35   19 1
    36   36   19 1
    37   37   21 1
    38   38   21 1
    39   39   21 1
    40   40   23 1
    41   41   23 1
    42   42   23 1
    43   43   25 1
    44   44   25 1
    45   45   25 1
@<TRIPOS>SUBSTRUCTURE
     1 RES1 1

@<TRIPOS>CRYSIN
   8.2160   14.7020   15.6420  90.0000  90.0000  90.0000  19 1

