# MOL2 file generated by ConQuest
# Please check atom types

@<TRIPOS>MOLECULE
YEMZOH
    22    22     1
SMALL
NO_CHARGES
****
Generated from CSD

@<TRIPOS>ATOM
      1 O1         8.3441    1.5671    4.4151 O.2       1 RES1    0.0000
      2 O2         8.9933    1.1743    2.3979 O.2       1 RES1    0.0000
      3 N1         8.9746    1.8615    3.4087 N.pl3     1 RES1    0.0000
      4 N2         8.9462    5.3712    7.6744 N.1       1 RES1    0.0000
      5 N3        12.3056    3.1863   -0.7225 N.1       1 RES1    0.0000
      6 C1         9.7905    3.0926    3.4287 C.ar      1 RES1    0.0000
      7 C2         9.7689    3.8642    4.5735 C.ar      1 RES1    0.0000
      8 H1         9.2139    3.6353    5.3103 H         1 RES1    0.0000
      9 C3        10.5914    4.9929    4.6113 C.ar      1 RES1    0.0000
     10 C4        11.3799    5.2956    3.5104 C.ar      1 RES1    0.0000
     11 H2        11.9299    6.0692    3.5361 H         1 RES1    0.0000
     12 C5        11.3879    4.4998    2.3714 C.ar      1 RES1    0.0000
     13 C6        10.5695    3.3698    2.3254 C.ar      1 RES1    0.0000
     14 H3        10.5495    2.8093    1.5588 H         1 RES1    0.0000
     15 C7        10.7106    5.8759    5.8362 C.3       1 RES1    0.0000
     16 H4        11.6130    5.7579    6.2260 H         1 RES1    0.0000
     17 H5        10.6270    6.8216    5.5552 H         1 RES1    0.0000
     18 C8         9.7159    5.6045    6.8678 C.1       1 RES1    0.0000
     19 C9        12.3092    4.8880    1.2349 C.3       1 RES1    0.0000
     20 H6        12.0391    5.7782    0.8961 H         1 RES1    0.0000
     21 H7        13.2317    4.9674    1.5858 H         1 RES1    0.0000
     22 C10       12.3100    3.9460    0.1266 C.1       1 RES1    0.0000
@<TRIPOS>BOND
     1    1    3 2
     2    2    3 2
     3    3    6 1
     4    4   18 3
     5    5   22 3
     6    6    7 ar
     7    7    8 1
     8    9    7 ar
     9   10    9 ar
    10   11   10 1
    11   12   10 ar
    12   13    6 ar
    13   14   13 1
    14   15    9 1
    15   16   15 1
    16   17   15 1
    17   18   15 1
    18   19   12 1
    19   20   19 1
    20   21   19 1
    21   22   19 1
    22   12   13 ar
@<TRIPOS>SUBSTRUCTURE
     1 RES1 1

@<TRIPOS>CRYSIN
   8.0125    8.0705    8.8205  89.9260  71.1060  60.5930   2 1

