# MOL2 file generated by ConQuest
# Please check atom types

@<TRIPOS>MOLECULE
YEPVUL
    67    69     1
SMALL
NO_CHARGES
****
Generated from CSD

@<TRIPOS>ATOM
      1 O1         7.4446   -1.3463    5.3618 O.3       1 RES1    0.0000
      2 O2         3.5075    0.6288    4.4219 O.3       1 RES1    0.0000
      3 O3         4.3496   -6.4669   -3.6930 O.2       1 RES1    0.0000
      4 O4         3.0339   -4.7660   -4.0001 O.2       1 RES1    0.0000
      5 O5         4.0820   -1.2208    0.9226 O.2       1 RES1    0.0000
      6 O6         2.8076   -1.3009   -0.8246 O.2       1 RES1    0.0000
      7 N1         7.0523   -3.5501    1.9054 N.2       1 RES1    0.0000
      8 N2         5.9487   -2.9920    1.2824 N.3       1 RES1    0.0000
      9 N3         3.8858   -5.3753   -3.3519 N.pl3     1 RES1    0.0000
     10 N4         3.7009   -1.7682   -0.1218 N.pl3     1 RES1    0.0000
     11 C1         6.7144   -0.9088    4.2005 C.3       1 RES1    0.0000
     12 C2         5.3633   -1.6161    4.3147 C.3       1 RES1    0.0000
     13 C3         4.5794   -1.1493    5.5488 C.3       1 RES1    0.0000
     14 C4         4.3739    0.3616    5.5367 C.3       1 RES1    0.0000
     15 C5         5.7066    1.0905    5.4061 C.3       1 RES1    0.0000
     16 C6         6.4948    0.6142    4.1854 C.3       1 RES1    0.0000
     17 C7         7.4731   -1.2988    2.9006 C.3       1 RES1    0.0000
     18 C8         7.7312   -2.7734    2.6799 C.2       1 RES1    0.0000
     19 C9         8.9435   -3.3933    3.3509 C.3       1 RES1    0.0000
     20 C10       10.2355   -2.8151    2.7631 C.3       1 RES1    0.0000
     21 C11        8.9631   -4.9165    3.2453 C.3       1 RES1    0.0000
     22 C12        8.6723   -0.6833    5.6534 C.3       1 RES1    0.0000
     23 C13        2.8205    1.8609    4.4912 C.3       1 RES1    0.0000
     24 C14        1.8878    1.9712    3.3152 C.ar      1 RES1    0.0000
     25 C15        1.9907    1.1083    2.2275 C.ar      1 RES1    0.0000
     26 C16        1.1214    1.2257    1.1498 C.ar      1 RES1    0.0000
     27 C17        0.1553    2.2191    1.1371 C.ar      1 RES1    0.0000
     28 C18        0.0517    3.0891    2.2121 C.ar      1 RES1    0.0000
     29 C19        0.9065    2.9657    3.2948 C.ar      1 RES1    0.0000
     30 C20        5.4247   -3.5721    0.1871 C.ar      1 RES1    0.0000
     31 C21        5.9751   -4.7787   -0.3327 C.ar      1 RES1    0.0000
     32 C22        5.4658   -5.3677   -1.4565 C.ar      1 RES1    0.0000
     33 C23        4.3939   -4.7727   -2.1288 C.ar      1 RES1    0.0000
     34 C24        3.8288   -3.6023   -1.6829 C.ar      1 RES1    0.0000
     35 C25        4.3244   -3.0141   -0.5272 C.ar      1 RES1    0.0000
     36 H1         5.5900   -2.2577    1.5513 H         1 RES1    0.0000
     37 H2         5.4990   -2.5794    4.3643 H         1 RES1    0.0000
     38 H3         4.8280   -1.4300    3.5056 H         1 RES1    0.0000
     39 H4         3.6919   -1.5626    5.5821 H         1 RES1    0.0000
     40 H5         5.0622   -1.3902    6.3566 H         1 RES1    0.0000
     41 H6         3.9106    0.6572    6.3578 H         1 RES1    0.0000
     42 H7         6.2446    0.9202    6.2307 H         1 RES1    0.0000
     43 H8         5.5621    2.0707    5.3440 H         1 RES1    0.0000
     44 H9         7.3520    1.0934    4.1457 H         1 RES1    0.0000
     45 H10        5.9859    0.8259    3.3627 H         1 RES1    0.0000
     46 H11        8.3390   -0.8436    2.9120 H         1 RES1    0.0000
     47 H12        6.9738   -0.9163    2.1461 H         1 RES1    0.0000
     48 H13        8.9129   -3.1629    4.3057 H         1 RES1    0.0000
     49 H14       10.2639   -3.0207    1.7772 H         1 RES1    0.0000
     50 H15       11.0153   -3.1986    3.2296 H         1 RES1    0.0000
     51 H16       10.2911   -1.8713    2.8228 H         1 RES1    0.0000
     52 H17        9.7300   -5.2827    3.7304 H         1 RES1    0.0000
     53 H18        8.1580   -5.3218    3.6278 H         1 RES1    0.0000
     54 H19        9.0141   -5.2369    2.3086 H         1 RES1    0.0000
     55 H20        9.2835   -0.6454    4.8847 H         1 RES1    0.0000
     56 H21        8.5296    0.2345    5.9718 H         1 RES1    0.0000
     57 H22        9.1103   -1.2057    6.3505 H         1 RES1    0.0000
     58 H23        3.4818    2.6233    4.4999 H         1 RES1    0.0000
     59 H24        2.3103    1.8947    5.3207 H         1 RES1    0.0000
     60 H25        2.6905    0.4342    2.2133 H         1 RES1    0.0000
     61 H26        1.2084    0.6311    0.3958 H         1 RES1    0.0000
     62 H27       -0.4452    2.2844    0.3933 H         1 RES1    0.0000
     63 H28       -0.6256    3.7812    2.2231 H         1 RES1    0.0000
     64 H29        0.8217    3.5727    4.0663 H         1 RES1    0.0000
     65 H30        6.7136   -5.1737    0.1380 H         1 RES1    0.0000
     66 H31        5.8629   -6.1603   -1.8212 H         1 RES1    0.0000
     67 H32        3.1256   -3.2092   -2.1339 H         1 RES1    0.0000
@<TRIPOS>BOND
     1    1   11 1
     2    2   14 1
     3    3    9 2
     4    4    9 2
     5    5   10 2
     6    6   10 2
     7    7    8 1
     8    8   30 1
     9    9   33 1
    10   10   35 1
    11   11   12 1
    12   12   13 1
    13   13   14 1
    14   14   15 1
    15   15   16 1
    16   16   11 1
    17   17   11 1
    18   18    7 2
    19   19   18 1
    20   20   19 1
    21   21   19 1
    22   22    1 1
    23   23    2 1
    24   24   23 1
    25   25   24 ar
    26   26   25 ar
    27   27   26 ar
    28   28   27 ar
    29   29   24 ar
    30   30   31 ar
    31   31   32 ar
    32   32   33 ar
    33   33   34 ar
    34   34   35 ar
    35   35   30 ar
    36   36    8 1
    37   37   12 1
    38   38   12 1
    39   39   13 1
    40   40   13 1
    41   41   14 1
    42   42   15 1
    43   43   15 1
    44   44   16 1
    45   45   16 1
    46   46   17 1
    47   47   17 1
    48   48   19 1
    49   49   20 1
    50   50   20 1
    51   51   20 1
    52   52   21 1
    53   53   21 1
    54   54   21 1
    55   55   22 1
    56   56   22 1
    57   57   22 1
    58   58   23 1
    59   59   23 1
    60   60   25 1
    61   61   26 1
    62   62   27 1
    63   63   28 1
    64   64   29 1
    65   65   31 1
    66   66   32 1
    67   67   34 1
    68   17   18 1
    69   28   29 ar
@<TRIPOS>SUBSTRUCTURE
     1 RES1 1

@<TRIPOS>CRYSIN
   8.5415   11.5119   13.4368 113.8900  94.8260  91.9610   2 1

