# MOL2 file generated by ConQuest
# Please check atom types

@<TRIPOS>MOLECULE
YEPWEW
    90    92     2
SMALL
NO_CHARGES
****
Generated from CSD

@<TRIPOS>ATOM
      1 O1         4.2274   -1.3817    5.9383 O.3       1 RES1    0.0000
      2 O2         1.5486    0.1343    2.7156 O.3       1 RES1    0.0000
      3 O3         2.1543    1.8997    1.4236 O.2       1 RES1    0.0000
      4 O4        -2.3887    6.0373   -1.7123 O.2       1 RES1    0.0000
      5 O5        -4.1853    4.9107   -1.3037 O.2       1 RES1    0.0000
      6 O6        -1.7437   -0.7186    2.9204 O.3       2 RES2    0.0000
      7 O7         0.8949   -0.5786    6.4662 O.3       2 RES2    0.0000
      8 O8         0.3839    0.8261    8.1678 O.2       2 RES2    0.0000
      9 O9         6.8074    4.2650    9.9939 O.2       2 RES2    0.0000
     10 O10        5.0659    4.9291   11.1004 O.2       2 RES2    0.0000
     11 N1        -0.0480    1.3910    1.8603 N.am      1 RES1    0.0000
     12 H1        -0.5136    0.7464    2.2822 H         1 RES1    0.0000
     13 N2        -2.9769    5.0920   -1.1956 N.pl3     1 RES1    0.0000
     14 N3         2.5558    0.3131    7.6030 N.am      2 RES2    0.0000
     15 H2         3.1251   -0.2097    6.9715 H         2 RES2    0.0000
     16 N4         5.6151    4.1793   10.2949 N.pl3     2 RES2    0.0000
     17 C1         5.0172   -1.3352    4.7180 C.3       1 RES1    0.0000
     18 C2         4.9839    0.1374    4.3250 C.3       1 RES1    0.0000
     19 H3         5.5847    0.2749    3.5492 H         1 RES1    0.0000
     20 H4         5.3358    0.6765    5.0778 H         1 RES1    0.0000
     21 C3         3.5914    0.6457    3.9640 C.3       1 RES1    0.0000
     22 H5         3.0212    0.6469    4.7732 H         1 RES1    0.0000
     23 H6         3.6564    1.5757    3.6331 H         1 RES1    0.0000
     24 C4         2.9530   -0.2263    2.9001 C.3       1 RES1    0.0000
     25 H7         3.4455   -0.1220    2.0362 H         1 RES1    0.0000
     26 C5         2.9430   -1.6775    3.3102 C.3       1 RES1    0.0000
     27 H8         2.5590   -2.2261    2.5809 H         1 RES1    0.0000
     28 H9         2.3745   -1.7913    4.1134 H         1 RES1    0.0000
     29 C6         4.3583   -2.1562    3.6154 C.3       1 RES1    0.0000
     30 H10        4.9062   -2.0946    2.7937 H         1 RES1    0.0000
     31 H11        4.3285   -3.1063    3.8908 H         1 RES1    0.0000
     32 C7         6.4396   -1.8375    4.9899 C.3       1 RES1    0.0000
     33 H12        6.9812   -1.6977    4.1739 H         1 RES1    0.0000
     34 H13        6.3987   -2.8137    5.1559 H         1 RES1    0.0000
     35 C8         7.1649   -1.1800    6.1665 C.3       1 RES1    0.0000
     36 H14        7.3324   -0.2358    5.9602 H         1 RES1    0.0000
     37 H15        8.0167   -1.6373    6.3214 H         1 RES1    0.0000
     38 H16        6.6069   -1.2439    6.9715 H         1 RES1    0.0000
     39 C9         3.9450   -2.6810    6.4553 C.3       1 RES1    0.0000
     40 H17        3.3245   -3.1442    5.8548 H         1 RES1    0.0000
     41 H18        3.5393   -2.5981    7.3443 H         1 RES1    0.0000
     42 H19        4.7765   -3.1940    6.5224 H         1 RES1    0.0000
     43 C10        1.3047    1.2155    1.9394 C.2       1 RES1    0.0000
     44 C11       -0.7207    2.3398    1.0874 C.ar      1 RES1    0.0000
     45 C12       -2.1149    2.2000    0.9738 C.ar      1 RES1    0.0000
     46 H20       -2.5521    1.4821    1.4154 H         1 RES1    0.0000
     47 C13       -2.8568    3.0921    0.2296 C.ar      1 RES1    0.0000
     48 H21       -3.7988    2.9926    0.1503 H         1 RES1    0.0000
     49 C14       -2.2000    4.1370   -0.3992 C.ar      1 RES1    0.0000
     50 C15       -0.8327    4.2981   -0.3051 C.ar      1 RES1    0.0000
     51 H22       -0.4068    5.0208   -0.7497 H         1 RES1    0.0000
     52 C16       -0.0884    3.4072    0.4381 C.ar      1 RES1    0.0000
     53 H23        0.8521    3.5162    0.5095 H         1 RES1    0.0000
     54 C17       -2.5879   -1.0802    4.0464 C.3       2 RES2    0.0000
     55 C18       -2.5278    0.1557    4.9431 C.3       2 RES2    0.0000
     56 H24       -3.1421    0.0284    5.7103 H         2 RES2    0.0000
     57 H25       -2.8412    0.9418    4.4296 H         2 RES2    0.0000
     58 C19       -1.1162    0.4342    5.4727 C.3       2 RES2    0.0000
     59 H26       -0.5298    0.6931    4.7186 H         2 RES2    0.0000
     60 H27       -1.1496    1.1930    6.1066 H         2 RES2    0.0000
     61 C20       -0.5294   -0.7761    6.1708 C.3       2 RES2    0.0000
     62 H28       -1.0280   -0.9466    7.0203 H         2 RES2    0.0000
     63 C21       -0.5768   -2.0153    5.2953 C.3       2 RES2    0.0000
     64 H29       -0.2549   -2.7983    5.8099 H         2 RES2    0.0000
     65 H30        0.0188   -1.8932    4.5136 H         2 RES2    0.0000
     66 C22       -2.0012   -2.2690    4.8177 C.3       2 RES2    0.0000
     67 H31       -2.5758   -2.4606    5.6010 H         2 RES2    0.0000
     68 H32       -2.0087   -3.0684    4.2344 H         2 RES2    0.0000
     69 C23       -4.0074   -1.4217    3.5890 C.3       2 RES2    0.0000
     70 H33       -3.9827   -2.2948    3.1236 H         2 RES2    0.0000
     71 H34       -4.5756   -1.5295    4.3925 H         2 RES2    0.0000
     72 C24       -4.6695   -0.4087    2.6687 C.3       2 RES2    0.0000
     73 H35       -4.6695    0.4727    3.0982 H         2 RES2    0.0000
     74 H36       -5.5923   -0.6848    2.4891 H         2 RES2    0.0000
     75 H37       -4.1734   -0.3613    1.8253 H         2 RES2    0.0000
     76 C25       -1.5006   -1.7332    1.9509 C.3       2 RES2    0.0000
     77 H38       -1.0903   -2.5092    2.3856 H         2 RES2    0.0000
     78 H39       -0.8954   -1.3885    1.2611 H         2 RES2    0.0000
     79 H40       -2.3479   -2.0010    1.5384 H         2 RES2    0.0000
     80 C26        1.1992    0.2503    7.4837 C.2       2 RES2    0.0000
     81 C27        3.2739    1.2404    8.3814 C.ar      2 RES2    0.0000
     82 C28        4.6438    1.3103    8.1528 C.ar      2 RES2    0.0000
     83 H41        5.0486    0.6990    7.5493 H         2 RES2    0.0000
     84 C29        5.4247    2.2533    8.7880 C.ar      2 RES2    0.0000
     85 H42        6.3599    2.3031    8.6250 H         2 RES2    0.0000
     86 C30        4.8103    3.1288    9.6700 C.ar      2 RES2    0.0000
     87 C31        3.4684    3.0400    9.9627 C.ar      2 RES2    0.0000
     88 H43        3.0775    3.6288   10.5987 H         2 RES2    0.0000
     89 C32        2.6952    2.0898    9.3249 C.ar      2 RES2    0.0000
     90 H44        1.7710    2.0140    9.5289 H         2 RES2    0.0000
@<TRIPOS>BOND
     1    1   17 1
     2    2   24 1
     3    3   43 2
     4    4   13 2
     5    5   13 2
     6    6   54 1
     7    7   61 1
     8    8   80 2
     9    9   16 2
    10   10   16 2
    11   11   12 1
    12   13   49 1
    13   14   15 1
    14   16   86 1
    15   17   18 1
    16   18   19 1
    17   20   18 1
    18   21   18 1
    19   22   21 1
    20   23   21 1
    21   24   21 1
    22   25   24 1
    23   26   24 1
    24   27   26 1
    25   28   26 1
    26   29   17 1
    27   30   29 1
    28   31   29 1
    29   32   17 1
    30   33   32 1
    31   34   32 1
    32   35   32 1
    33   36   35 1
    34   37   35 1
    35   38   35 1
    36   39    1 1
    37   40   39 1
    38   41   39 1
    39   42   39 1
    40   43    2 1
    41   44   11 1
    42   45   44 ar
    43   46   45 1
    44   47   45 ar
    45   48   47 1
    46   49   47 ar
    47   50   49 ar
    48   51   50 1
    49   52   44 ar
    50   53   52 1
    51   54   55 1
    52   55   56 1
    53   57   55 1
    54   58   55 1
    55   59   58 1
    56   60   58 1
    57   61   58 1
    58   62   61 1
    59   63   61 1
    60   64   63 1
    61   65   63 1
    62   66   54 1
    63   67   66 1
    64   68   66 1
    65   69   54 1
    66   70   69 1
    67   71   69 1
    68   72   69 1
    69   73   72 1
    70   74   72 1
    71   75   72 1
    72   76    6 1
    73   77   76 1
    74   78   76 1
    75   79   76 1
    76   80    7 1
    77   81   14 1
    78   82   81 ar
    79   83   82 1
    80   84   82 ar
    81   85   84 1
    82   86   84 ar
    83   87   86 ar
    84   88   87 1
    85   89   81 ar
    86   90   89 1
    87   11   43 1
    88   14   80 1
    89   26   29 1
    90   50   52 ar
    91   63   66 1
    92   87   89 ar
@<TRIPOS>SUBSTRUCTURE
     1 RES1 1
     2 RES2 6

@<TRIPOS>CRYSIN
  14.1248   11.8471   19.7540  90.0000  98.7820  90.0000  14 1

