# MOL2 file generated by ConQuest
# Please check atom types

@<TRIPOS>MOLECULE
YEPWAS
    64    66     1
SMALL
NO_CHARGES
****
Generated from CSD

@<TRIPOS>ATOM
      1 O1         1.2181    2.6996    2.4725 O.3       1 RES1    0.0000
      2 O2        -2.1012    0.4926   -1.0829 O.3       1 RES1    0.0000
      3 O3        -4.2417    1.1063   -1.4726 O.2       1 RES1    0.0000
      4 O4        -7.6662   -1.0238   -7.0546 O.2       1 RES1    0.0000
      5 O5        -6.4977   -2.7615   -7.5261 O.2       1 RES1    0.0000
      6 N1        -3.2995   -0.7196   -2.5076 N.am      1 RES1    0.0000
      7 N2        -6.7421   -1.7953   -6.8245 N.pl3     1 RES1    0.0000
      8 C1         0.8717    3.6645    1.4368 C.3       1 RES1    0.0000
      9 C2         0.7963    5.0766    2.0310 C.3       1 RES1    0.0000
     10 C3         2.1118    5.5217    2.6638 C.3       1 RES1    0.0000
     11 C4         3.2832    5.4585    1.6781 C.3       1 RES1    0.0000
     12 C5         3.3568    4.0680    1.0343 C.3       1 RES1    0.0000
     13 C6         2.0326    3.5892    0.4467 C.3       1 RES1    0.0000
     14 C7        -0.4641    3.2917    0.7863 C.3       1 RES1    0.0000
     15 C8        -0.5597    1.8981    0.1561 C.3       1 RES1    0.0000
     16 C9        -2.0002    1.6675   -0.2353 C.3       1 RES1    0.0000
     17 C10       -3.3084    0.3676   -1.6689 C.2       1 RES1    0.0000
     18 C11       -4.2229   -0.9872   -3.5238 C.ar      1 RES1    0.0000
     19 C12       -3.9927   -2.1040   -4.3382 C.ar      1 RES1    0.0000
     20 C13       -4.8136   -2.3843   -5.4086 C.ar      1 RES1    0.0000
     21 C14       -5.8794   -1.5322   -5.6703 C.ar      1 RES1    0.0000
     22 C15       -6.1407   -0.4338   -4.8750 C.ar      1 RES1    0.0000
     23 C16       -5.3254   -0.1631   -3.7959 C.ar      1 RES1    0.0000
     24 C17        0.3174    2.5842    3.5672 C.3       1 RES1    0.0000
     25 C18        4.6223    5.7966    2.3411 C.3       1 RES1    0.0000
     26 C19        4.6908    7.1803    2.9852 C.3       1 RES1    0.0000
     27 C20        5.9937    7.4467    3.7041 C.ar      1 RES1    0.0000
     28 C21        6.3344    6.7235    4.8449 C.ar      1 RES1    0.0000
     29 C22        7.5061    6.9991    5.5332 C.ar      1 RES1    0.0000
     30 C23        8.3596    7.9892    5.0868 C.ar      1 RES1    0.0000
     31 C24        8.0464    8.7016    3.9543 C.ar      1 RES1    0.0000
     32 C25        6.8716    8.4324    3.2700 C.ar      1 RES1    0.0000
     33 H1        -2.5800   -1.2544   -2.4511 H         1 RES1    0.0000
     34 H2         0.0691    5.1488    2.6894 H         1 RES1    0.0000
     35 H3         0.5676    5.7087    1.2900 H         1 RES1    0.0000
     36 H4         2.3099    4.9326    3.4590 H         1 RES1    0.0000
     37 H5         1.9937    6.4230    3.0164 H         1 RES1    0.0000
     38 H6         3.1050    6.1495    0.9568 H         1 RES1    0.0000
     39 H7         3.6805    3.4028    1.7167 H         1 RES1    0.0000
     40 H8         4.0587    4.0607    0.3526 H         1 RES1    0.0000
     41 H9         1.7830    4.1690   -0.3599 H         1 RES1    0.0000
     42 H10        2.1175    2.6562    0.1337 H         1 RES1    0.0000
     43 H11       -0.6480    3.9700    0.0936 H         1 RES1    0.0000
     44 H12       -1.1906    3.3911    1.4638 H         1 RES1    0.0000
     45 H13        0.0104    1.8321   -0.6310 H         1 RES1    0.0000
     46 H14       -0.2652    1.1904    0.8036 H         1 RES1    0.0000
     47 H15       -2.5548    1.5053    0.6225 H         1 RES1    0.0000
     48 H16       -2.3177    2.4218   -0.7185 H         1 RES1    0.0000
     49 H17       -3.2299   -2.6682   -4.1738 H         1 RES1    0.0000
     50 H18       -4.6375   -3.1030   -5.9574 H         1 RES1    0.0000
     51 H19       -6.8899    0.1385   -5.0869 H         1 RES1    0.0000
     52 H20       -5.4921    0.5818   -3.2474 H         1 RES1    0.0000
     53 H21        0.2524    3.4616    4.1179 H         1 RES1    0.0000
     54 H22       -0.5985    2.3935    3.2900 H         1 RES1    0.0000
     55 H23        0.6702    1.8861    4.1690 H         1 RES1    0.0000
     56 H24        4.8071    5.0937    3.0249 H         1 RES1    0.0000
     57 H25        5.3231    5.7059    1.6887 H         1 RES1    0.0000
     58 H26        3.9708    7.2456    3.6450 H         1 RES1    0.0000
     59 H27        4.5429    7.8898    2.2906 H         1 RES1    0.0000
     60 H28        5.7352    6.0072    5.1708 H         1 RES1    0.0000
     61 H29        7.7032    6.4711    6.3088 H         1 RES1    0.0000
     62 H30        9.1701    8.2021    5.5745 H         1 RES1    0.0000
     63 H31        8.6864    9.3687    3.6158 H         1 RES1    0.0000
     64 H32        6.6582    8.9398    2.4960 H         1 RES1    0.0000
@<TRIPOS>BOND
     1    1    8 1
     2    2   16 1
     3    3   17 2
     4    4    7 2
     5    5    7 2
     6    6   17 1
     7    7   21 1
     8    8    9 1
     9    9   10 1
    10   10   11 1
    11   11   12 1
    12   12   13 1
    13   13    8 1
    14   14    8 1
    15   15   14 1
    16   16   15 1
    17   17    2 1
    18   18    6 1
    19   19   18 ar
    20   20   19 ar
    21   21   20 ar
    22   22   21 ar
    23   23   18 ar
    24   24    1 1
    25   25   11 1
    26   26   25 1
    27   27   26 1
    28   28   27 ar
    29   29   28 ar
    30   30   29 ar
    31   31   30 ar
    32   32   27 ar
    33   33    6 1
    34   34    9 1
    35   35    9 1
    36   36   10 1
    37   37   10 1
    38   38   11 1
    39   39   12 1
    40   40   12 1
    41   41   13 1
    42   42   13 1
    43   43   14 1
    44   44   14 1
    45   45   15 1
    46   46   15 1
    47   47   16 1
    48   48   16 1
    49   49   19 1
    50   50   20 1
    51   51   22 1
    52   52   23 1
    53   53   24 1
    54   54   24 1
    55   55   24 1
    56   56   25 1
    57   57   25 1
    58   58   26 1
    59   59   26 1
    60   60   28 1
    61   61   29 1
    62   62   30 1
    63   63   31 1
    64   64   32 1
    65   22   23 ar
    66   31   32 ar
@<TRIPOS>SUBSTRUCTURE
     1 RES1 1

@<TRIPOS>CRYSIN
   8.0052   11.7770   12.2370  87.0370  84.0420  86.6690   2 1

