# MOL2 file generated by ConQuest
# Please check atom types

@<TRIPOS>MOLECULE
YEPXEX
    48    49     1
SMALL
NO_CHARGES
****
Generated from CSD

@<TRIPOS>ATOM
      1 O1         1.7795    0.1765   19.5428 O.3       1 RES1    0.0000
      2 O2         3.9866   -0.0101   20.0411 O.2       1 RES1    0.0000
      3 O3        -1.3638    1.2265   22.5794 O.3       1 RES1    0.0000
      4 O4         9.0082    1.7840   15.7384 O.2       1 RES1    0.0000
      5 O5         7.8517    2.3913   14.0388 O.2       1 RES1    0.0000
      6 N1         3.2420    0.6878   17.9788 N.am      1 RES1    0.0000
      7 N2         7.9315    1.9401   15.1741 N.pl3     1 RES1    0.0000
      8 C1         1.4133   -0.1636   20.9263 C.3       1 RES1    0.0000
      9 C2         0.0291   -0.7803   20.8517 C.3       1 RES1    0.0000
     10 C3        -1.0132    0.2226   20.3596 C.3       1 RES1    0.0000
     11 C4        -1.0428    1.5087   21.1931 C.3       1 RES1    0.0000
     12 C5         0.3694    2.1015   21.2708 C.3       1 RES1    0.0000
     13 C6         1.4187    1.1013   21.7583 C.3       1 RES1    0.0000
     14 C7        -2.6043    0.5907   22.8424 C.3       1 RES1    0.0000
     15 C8        -2.0439    2.5355   20.6424 C.3       1 RES1    0.0000
     16 C9        -1.8577    2.9415   19.1971 C.3       1 RES1    0.0000
     17 C10       -2.8470    3.9704   18.7096 C.3       1 RES1    0.0000
     18 C11        3.0932    0.2592   19.2758 C.2       1 RES1    0.0000
     19 C12        4.4394    0.9391   17.3091 C.ar      1 RES1    0.0000
     20 C13        5.6965    0.7501   17.8863 C.ar      1 RES1    0.0000
     21 C14        6.8283    1.0830   17.1725 C.ar      1 RES1    0.0000
     22 C15        6.7208    1.5838   15.8941 C.ar      1 RES1    0.0000
     23 C16        5.4865    1.7601   15.2916 C.ar      1 RES1    0.0000
     24 C17        4.3528    1.4314   15.9999 C.ar      1 RES1    0.0000
     25 H1         2.5441    0.8218   17.5758 H         1 RES1    0.0000
     26 H2         2.0692   -0.7937   21.2760 H         1 RES1    0.0000
     27 H3        -0.1974   -1.0957   21.7725 H         1 RES1    0.0000
     28 H4         0.0540   -1.5873   20.2430 H         1 RES1    0.0000
     29 H5        -0.7910    0.4565   19.4506 H         1 RES1    0.0000
     30 H6        -1.9042   -0.1967   20.3356 H         1 RES1    0.0000
     31 H7         0.3284    2.8727   21.8619 H         1 RES1    0.0000
     32 H8         0.6337    2.4231   20.3325 H         1 RES1    0.0000
     33 H9         1.2243    0.8428   22.6944 H         1 RES1    0.0000
     34 H10        2.2990    1.5171   21.7385 H         1 RES1    0.0000
     35 H11       -2.6690    0.5057   23.8168 H         1 RES1    0.0000
     36 H12       -3.3413    1.0816   22.5094 H         1 RES1    0.0000
     37 H13       -2.6305   -0.3161   22.4138 H         1 RES1    0.0000
     38 H14       -2.0076    3.3432   21.2298 H         1 RES1    0.0000
     39 H15       -2.9419    2.1773   20.7333 H         1 RES1    0.0000
     40 H16       -0.9760    3.2028   19.0282 H         1 RES1    0.0000
     41 H17       -1.9120    2.1562   18.6335 H         1 RES1    0.0000
     42 H18       -2.7122    4.2282   17.7886 H         1 RES1    0.0000
     43 H19       -2.8278    4.7269   19.2656 H         1 RES1    0.0000
     44 H20       -3.7499    3.6172   18.7846 H         1 RES1    0.0000
     45 H21        5.7605    0.4074   18.7661 H         1 RES1    0.0000
     46 H22        7.7049    0.9974   17.5388 H         1 RES1    0.0000
     47 H23        5.4414    2.1071   14.3937 H         1 RES1    0.0000
     48 H24        3.5047    1.5592   15.6117 H         1 RES1    0.0000
@<TRIPOS>BOND
     1    1    8 1
     2    2   18 2
     3    3   11 1
     4    4    7 2
     5    5    7 2
     6    6   18 1
     7    7   22 1
     8    8    9 1
     9    9   10 1
    10   10   11 1
    11   11   12 1
    12   12   13 1
    13   13    8 1
    14   14    3 1
    15   15   11 1
    16   16   15 1
    17   17   16 1
    18   18    1 1
    19   19    6 1
    20   20   19 ar
    21   21   20 ar
    22   22   21 ar
    23   23   22 ar
    24   24   19 ar
    25   25    6 1
    26   26    8 1
    27   27    9 1
    28   28    9 1
    29   29   10 1
    30   30   10 1
    31   31   12 1
    32   32   12 1
    33   33   13 1
    34   34   13 1
    35   35   14 1
    36   36   14 1
    37   37   14 1
    38   38   15 1
    39   39   15 1
    40   40   16 1
    41   41   16 1
    42   42   17 1
    43   43   17 1
    44   44   17 1
    45   45   20 1
    46   46   21 1
    47   47   23 1
    48   48   24 1
    49   23   24 ar
@<TRIPOS>SUBSTRUCTURE
     1 RES1 1

@<TRIPOS>CRYSIN
  15.4190    7.0236   30.8348  90.0000  90.0000  90.0000  61 1

