# MOL2 file generated by ConQuest
# Please check atom types

@<TRIPOS>MOLECULE
YEQHAD
    66    66     2
SMALL
USER_CHARGES
****
Generated from CSD

@<TRIPOS>ATOM
      1 O1        -1.0498    3.2779    3.0684 O.2       1 RES1   -1.0000
      2 O2        -0.3966   -0.6624    5.3417 O.3       1 RES1    0.0000
      3 O3        -3.0693    1.6232    3.6264 O.3       1 RES1    0.0000
      4 O4        -1.8838    3.6680    5.5912 O.3       1 RES1    0.0000
      5 O5        -4.5237    3.3114    6.1378 O.2       1 RES1    0.0000
      6 O6        -4.1138    1.2302    6.8526 O.3       1 RES1    0.0000
      7 N1        -0.2396    2.2954    3.4015 N.pl3     1 RES1    1.0000
      8 C1         1.0178    2.2871    2.9014 C.ar      1 RES1    0.0000
      9 C2         1.8581    1.2704    3.2301 C.ar      1 RES1    0.0000
     10 C3         1.4381    0.2485    4.0222 C.ar      1 RES1    0.0000
     11 C4         0.1436    0.2687    4.5259 C.ar      1 RES1    0.0000
     12 C5        -0.7108    1.3203    4.2079 C.ar      1 RES1    0.0000
     13 C6        -2.1556    1.3887    4.6795 C.3       1 RES1    0.0000
     14 C7        -2.3223    2.3591    5.8547 C.3       1 RES1    0.0000
     15 C8        -3.7810    2.3836    6.2815 C.2       1 RES1    0.0000
     16 C9        -5.4222    1.2123    7.4961 C.3       1 RES1    0.0000
     17 C10       -5.4067    0.3278    8.6123 C.3       1 RES1    0.0000
     18 C11        0.3194   -1.9051    5.5091 C.3       1 RES1    0.0000
     19 O7        -0.1020   -4.1426    2.1638 O.2       2 RES2   -1.0000
     20 O8         0.0109   -0.0564   -0.0063 O.3       2 RES2    0.0000
     21 O9         1.2184   -3.9134    0.0017 O.3       2 RES2    0.0000
     22 O10        2.5566   -2.4364    2.3229 O.3       2 RES2    0.0000
     23 O11        4.3129   -3.5429    0.4695 O.2       2 RES2    0.0000
     24 O12        3.8396   -1.8374   -0.9132 O.3       2 RES2    0.0000
     25 N2        -0.6062   -2.9578    1.9530 N.pl3     2 RES2    1.0000
     26 C12       -1.7175   -2.6106    2.6496 C.ar      2 RES2    0.0000
     27 C13       -2.2889   -1.3995    2.4790 C.ar      2 RES2    0.0000
     28 C14       -1.7660   -0.4987    1.5878 C.ar      2 RES2    0.0000
     29 C15       -0.6313   -0.8489    0.8832 C.ar      2 RES2    0.0000
     30 C16       -0.0415   -2.1007    1.0538 C.ar      2 RES2    0.0000
     31 C17        1.1855   -2.5328    0.2715 C.3       2 RES2    0.0000
     32 C18        2.4703   -2.0610    0.9734 C.3       2 RES2    0.0000
     33 C19        3.6533   -2.5896    0.1697 C.2       2 RES2    0.0000
     34 C20        4.9085   -2.2728   -1.8102 C.3       2 RES2    0.0000
     35 C21        4.9882   -1.2856   -2.9238 C.3       2 RES2    0.0000
     36 C22       -0.5815    1.2155   -0.3135 C.3       2 RES2    0.0000
     37 H1         1.3039    2.9706    2.3388 H         1 RES1    0.0000
     38 H2         2.7306    1.2738    2.9086 H         1 RES1    0.0000
     39 H3        -2.9424    2.3715    3.3167 H         1 RES1    0.0000
     40 H4         2.0114   -0.4556    4.2249 H         1 RES1    0.0000
     41 H5        -1.9760    3.8319    4.7929 H         1 RES1    0.0000
     42 H6        -2.3686    0.4982    5.0304 H         1 RES1    0.0000
     43 H7        -1.7961    2.0124    6.6057 H         1 RES1    0.0000
     44 H8        -5.6524    2.1070    7.7917 H         1 RES1    0.0000
     45 H9        -6.0946    0.9224    6.8593 H         1 RES1    0.0000
     46 H10       -5.1885   -0.5591    8.3150 H         1 RES1    0.0000
     47 H11       -4.7483    0.6233    9.2455 H         1 RES1    0.0000
     48 H12       -6.2713    0.3224    9.0285 H         1 RES1    0.0000
     49 H13        0.4125   -2.3384    4.6580 H         1 RES1    0.0000
     50 H14        1.1892   -1.7256    5.8734 H         1 RES1    0.0000
     51 H15       -0.1666   -2.4762    6.1083 H         1 RES1    0.0000
     52 H16        0.9896   -4.3282    0.6707 H         2 RES2    0.0000
     53 H17        2.5074   -3.2530    2.3835 H         2 RES2    0.0000
     54 H18       -2.0897   -3.2137    3.2515 H         2 RES2    0.0000
     55 H19       -3.0445   -1.1740    2.9720 H         2 RES2    0.0000
     56 H20       -2.1664    0.3309    1.4610 H         2 RES2    0.0000
     57 H21        1.1483   -2.0740   -0.5939 H         2 RES2    0.0000
     58 H22        2.4926   -1.0816    0.9323 H         2 RES2    0.0000
     59 H23        5.7521   -2.3090   -1.3342 H         2 RES2    0.0000
     60 H24        4.7137   -3.1567   -2.1593 H         2 RES2    0.0000
     61 H25        5.6886   -1.5413   -3.5292 H         2 RES2    0.0000
     62 H26        4.1509   -1.2644   -3.3944 H         2 RES2    0.0000
     63 H27        5.1758   -0.4145   -2.5666 H         2 RES2    0.0000
     64 H28       -1.4561    1.0795   -0.6850 H         2 RES2    0.0000
     65 H29       -0.6530    1.7376    0.4894 H         2 RES2    0.0000
     66 H30       -0.0324    1.6800   -0.9493 H         2 RES2    0.0000
@<TRIPOS>BOND
     1    1    7 1
     2    2   11 1
     3    3   13 1
     4    4   14 1
     5    5   15 2
     6    6   15 1
     7    7    8 ar
     8    8    9 ar
     9    9   10 ar
    10   10   11 ar
    11   11   12 ar
    12   12    7 ar
    13   13   12 1
    14   14   13 1
    15   15   14 1
    16   16    6 1
    17   17   16 1
    18   18    2 1
    19   19   25 1
    20   20   29 1
    21   21   31 1
    22   22   32 1
    23   23   33 2
    24   24   33 1
    25   25   26 ar
    26   26   27 ar
    27   27   28 ar
    28   28   29 ar
    29   29   30 ar
    30   30   25 ar
    31   31   30 1
    32   32   31 1
    33   33   32 1
    34   34   24 1
    35   35   34 1
    36   36   20 1
    37   37    8 1
    38   38    9 1
    39   39    3 1
    40   40   10 1
    41   41    4 1
    42   42   13 1
    43   43   14 1
    44   44   16 1
    45   45   16 1
    46   46   17 1
    47   47   17 1
    48   48   17 1
    49   49   18 1
    50   50   18 1
    51   51   18 1
    52   52   21 1
    53   53   22 1
    54   54   26 1
    55   55   27 1
    56   56   28 1
    57   57   31 1
    58   58   32 1
    59   59   34 1
    60   60   34 1
    61   61   35 1
    62   62   35 1
    63   63   35 1
    64   64   36 1
    65   65   36 1
    66   66   36 1
@<TRIPOS>SUBSTRUCTURE
     1 RES1 1
     2 RES2 19

@<TRIPOS>CRYSIN
   8.1522    8.9851    9.0506  96.6910  93.4680 112.3520   1 1

