# MOL2 file generated by ConQuest
# Please check atom types

@<TRIPOS>MOLECULE
YEQYOL
    94    96     2
SMALL
NO_CHARGES
****
Generated from CSD

@<TRIPOS>ATOM
      1 O1        12.0484    7.4533    1.9628 O.3       1 RES1    0.0000
      2 O2        18.2841    6.5719    9.8860 O.3       1 RES1    0.0000
      3 H1        18.0429    6.5747   10.6689 H         1 RES1    0.0000
      4 N1         7.7152    5.9947    0.6363 N.3       1 RES1    0.0000
      5 N2        13.0320    6.5757    4.2417 N.2       1 RES1    0.0000
      6 N3        17.1587    6.5103    9.0489 N.2       1 RES1    0.0000
      7 C1        10.9538    6.7653    2.2069 C.ar      1 RES1    0.0000
      8 C2         9.8735    6.7899    1.3406 C.ar      1 RES1    0.0000
      9 H2         9.9029    7.3567    0.6050 H         1 RES1    0.0000
     10 C3         8.7364    5.9928    1.5303 C.ar      1 RES1    0.0000
     11 C4         8.6881    5.1626    2.6898 C.ar      1 RES1    0.0000
     12 H3         7.9489    4.6176    2.8379 H         1 RES1    0.0000
     13 C5         9.7078    5.1663    3.5702 C.ar      1 RES1    0.0000
     14 H4         9.6429    4.6271    4.3251 H         1 RES1    0.0000
     15 C6        10.8693    5.9483    3.4038 C.ar      1 RES1    0.0000
     16 C7        11.8845    5.9075    4.3424 C.2       1 RES1    0.0000
     17 H5        11.7566    5.3768    5.0960 H         1 RES1    0.0000
     18 C8        14.1058    6.5349    5.1624 C.ar      1 RES1    0.0000
     19 C9        15.2836    7.1349    4.7822 C.ar      1 RES1    0.0000
     20 H6        15.3403    7.5557    3.9554 H         1 RES1    0.0000
     21 C10       16.3867    7.1188    5.6252 C.ar      1 RES1    0.0000
     22 H7        17.1811    7.5102    5.3439 H         1 RES1    0.0000
     23 C11       16.3257    6.5293    6.8797 C.ar      1 RES1    0.0000
     24 C12       15.1304    5.9312    7.2380 C.ar      1 RES1    0.0000
     25 H8        15.0705    5.5161    8.0684 H         1 RES1    0.0000
     26 C13       14.0196    5.9265    6.4106 C.ar      1 RES1    0.0000
     27 H9        13.2283    5.5227    6.6841 H         1 RES1    0.0000
     28 C14       17.4734    6.5586    7.8140 C.2       1 RES1    0.0000
     29 C15       18.8773    6.6705    7.3122 C.3       1 RES1    0.0000
     30 H10       18.9102    6.3928    6.3942 H         1 RES1    0.0000
     31 H11       19.4501    6.1075    7.8373 H         1 RES1    0.0000
     32 H12       19.1695    7.5813    7.3836 H         1 RES1    0.0000
     33 C16        7.6938    6.9359   -0.4770 C.3       1 RES1    0.0000
     34 H13        7.0661    6.6165   -1.1448 H         1 RES1    0.0000
     35 H14        8.5736    6.9577   -0.8844 H         1 RES1    0.0000
     36 C17        7.3119    8.3234   -0.0819 C.3       1 RES1    0.0000
     37 H15        7.3575    8.8987   -0.8486 H         1 RES1    0.0000
     38 H16        7.9152    8.6419    0.5945 H         1 RES1    0.0000
     39 H17        6.4163    8.3225    0.2647 H         1 RES1    0.0000
     40 C18        6.5646    5.1010    0.7568 C.3       1 RES1    0.0000
     41 H18        6.8589    4.2593    1.1364 H         1 RES1    0.0000
     42 H19        6.2163    4.9180   -0.1302 H         1 RES1    0.0000
     43 C19        5.4684    5.6478    1.5986 C.3       1 RES1    0.0000
     44 H20        5.1713    6.4847    1.2330 H         1 RES1    0.0000
     45 H21        5.7917    5.7852    2.4913 H         1 RES1    0.0000
     46 H22        4.7374    5.0280    1.6133 H         1 RES1    0.0000
     47 H23       12.4811    7.0989    2.6257 H         1 RES1    0.0000
     48 O3        20.8586   13.1685    7.4380 O.3       2 RES2    0.0000
     49 H24       20.1525   12.9855    7.0643 H         2 RES2    0.0000
     50 O4        12.4174    9.9953    2.7201 O.3       2 RES2    0.0000
     51 H25       12.2572    9.2532    2.4115 H         2 RES2    0.0000
     52 N4        24.8009   11.1127    9.0926 N.3       2 RES2    0.0000
     53 N5        19.2050   11.7591    6.0039 N.2       2 RES2    0.0000
     54 N6        13.7432   10.0218    3.2211 N.2       2 RES2    0.0000
     55 C20       21.6266   12.0596    7.5140 C.ar      2 RES2    0.0000
     56 C21       22.7896   12.1382    8.2583 C.ar      2 RES2    0.0000
     57 H26       23.0120   12.9334    8.6860 H         2 RES2    0.0000
     58 C22       23.6352   11.0284    8.3707 C.ar      2 RES2    0.0000
     59 C23       23.2765    9.8512    7.6953 C.ar      2 RES2    0.0000
     60 H27       23.8289    9.1044    7.7386 H         2 RES2    0.0000
     61 C24       22.1123    9.7981    6.9710 C.ar      2 RES2    0.0000
     62 H28       21.8882    9.0030    6.5455 H         2 RES2    0.0000
     63 C25       21.2524   10.8871    6.8490 C.ar      2 RES2    0.0000
     64 C26       20.0196   10.7744    6.1234 C.2       2 RES2    0.0000
     65 H29       19.8046    9.9612    5.7262 H         2 RES2    0.0000
     66 C27       17.9571   11.5942    5.3393 C.ar      2 RES2    0.0000
     67 C28       16.9216   12.4121    5.7378 C.ar      2 RES2    0.0000
     68 H30       17.0664   13.0528    6.3963 H         2 RES2    0.0000
     69 C29       15.6671   12.2870    5.1626 C.ar      2 RES2    0.0000
     70 H31       14.9801   12.8453    5.4447 H         2 RES2    0.0000
     71 C30       15.4154   11.3497    4.1777 C.ar      2 RES2    0.0000
     72 C31       16.4716   10.5715    3.7460 C.ar      2 RES2    0.0000
     73 H32       16.3356    9.9574    3.0627 H         2 RES2    0.0000
     74 C32       17.7355   10.6900    4.3144 C.ar      2 RES2    0.0000
     75 H33       18.4336   10.1602    4.0058 H         2 RES2    0.0000
     76 C33       14.0588   11.1942    3.6151 C.2       2 RES2    0.0000
     77 C34       13.1257   12.3714    3.5668 C.3       2 RES2    0.0000
     78 H34       12.6038   12.3316    2.7623 H         2 RES2    0.0000
     79 H35       13.6361   13.1846    3.5773 H         2 RES2    0.0000
     80 H36       12.5444   12.3496    4.3293 H         2 RES2    0.0000
     81 C35       25.1867   12.3173    9.8350 C.3       2 RES2    0.0000
     82 H37       26.1439   12.2984    9.9841 H         2 RES2    0.0000
     83 H38       24.9895   13.0955    9.2909 H         2 RES2    0.0000
     84 C36       24.5217   12.4652   11.1122 C.3       2 RES2    0.0000
     85 H39       23.5753   12.5268   10.9735 H         2 RES2    0.0000
     86 H40       24.8359   13.2623   11.5449 H         2 RES2    0.0000
     87 H41       24.7169   11.7041   11.6625 H         2 RES2    0.0000
     88 C37       25.8015    9.9962    9.0683 C.3       2 RES2    0.0000
     89 H42       25.8173    9.5915    8.1860 H         2 RES2    0.0000
     90 H43       26.6862   10.3488    9.2531 H         2 RES2    0.0000
     91 C38       25.4648    9.0049   10.0472 C.3       2 RES2    0.0000
     92 H44       24.6087    8.6239    9.8350 H         2 RES2    0.0000
     93 H45       25.4271    9.4124   10.9147 H         2 RES2    0.0000
     94 H46       26.1321    8.3139   10.0472 H         2 RES2    0.0000
@<TRIPOS>BOND
     1    1    7 1
     2    2    3 1
     3    4   10 1
     4    5   16 2
     5    6    2 1
     6    7    8 ar
     7    8    9 1
     8   10    8 ar
     9   11   10 ar
    10   12   11 1
    11   13   11 ar
    12   14   13 1
    13   15    7 ar
    14   16   15 1
    15   17   16 1
    16   18    5 1
    17   19   18 ar
    18   20   19 1
    19   21   19 ar
    20   22   21 1
    21   23   21 ar
    22   24   23 ar
    23   25   24 1
    24   26   18 ar
    25   27   26 1
    26   28    6 2
    27   29   28 1
    28   30   29 1
    29   31   29 1
    30   32   29 1
    31   33    4 1
    32   34   33 1
    33   35   33 1
    34   36   33 1
    35   37   36 1
    36   38   36 1
    37   39   36 1
    38   40    4 1
    39   41   40 1
    40   42   40 1
    41   43   40 1
    42   44   43 1
    43   45   43 1
    44   46   43 1
    45   47    1 1
    46   48   49 1
    47   50   51 1
    48   52   58 1
    49   53   64 2
    50   54   50 1
    51   55   48 1
    52   56   55 ar
    53   57   56 1
    54   58   56 ar
    55   59   58 ar
    56   60   59 1
    57   61   59 ar
    58   62   61 1
    59   63   55 ar
    60   64   63 1
    61   65   64 1
    62   66   53 1
    63   67   66 ar
    64   68   67 1
    65   69   67 ar
    66   70   69 1
    67   71   69 ar
    68   72   71 ar
    69   73   72 1
    70   74   66 ar
    71   75   74 1
    72   76   54 2
    73   77   76 1
    74   78   77 1
    75   79   77 1
    76   80   77 1
    77   81   52 1
    78   82   81 1
    79   83   81 1
    80   84   81 1
    81   85   84 1
    82   86   84 1
    83   87   84 1
    84   88   52 1
    85   89   88 1
    86   90   88 1
    87   91   88 1
    88   92   91 1
    89   93   91 1
    90   94   91 1
    91   13   15 ar
    92   23   28 1
    93   24   26 ar
    94   61   63 ar
    95   71   76 1
    96   72   74 ar
@<TRIPOS>SUBSTRUCTURE
     1 RES1 1
     2 RES2 48

@<TRIPOS>CRYSIN
  17.8421    9.4778   22.1160  90.0000 108.2300  90.0000 231 1

