# MOL2 file generated by ConQuest
# Please check atom types

@<TRIPOS>MOLECULE
YERBEC
    53    57     1
SMALL
NO_CHARGES
****
Generated from CSD

@<TRIPOS>ATOM
      1 O1         0.0356   -2.6159   17.8729 O.2       1 RES1    0.0000
      2 O2         0.5236   -2.6954   15.7942 O.2       1 RES1    0.0000
      3 N1         4.6450    2.1619   19.8088 N.3       1 RES1    0.0000
      4 N2         7.6530    3.1941   19.1374 N.2       1 RES1    0.0000
      5 N3         6.1017    0.9975   16.7533 N.2       1 RES1    0.0000
      6 N4         5.1213    1.0740   17.7398 N.pl3     1 RES1    0.0000
      7 N5         0.7070   -2.2801   16.9236 N.pl3     1 RES1    0.0000
      8 C1         5.0228    3.1514   20.8110 C.3       1 RES1    0.0000
      9 C2         6.4619    2.8802   21.2690 C.3       1 RES1    0.0000
     10 C3         7.5221    3.4822   20.3843 C.2       1 RES1    0.0000
     11 C4         6.7857    2.3089   18.4876 C.2       1 RES1    0.0000
     12 C5         7.0841    1.7625   17.2153 C.2       1 RES1    0.0000
     13 C6         5.5012    1.8787   18.7773 C.2       1 RES1    0.0000
     14 C7         3.9526    0.3149   17.5637 C.ar      1 RES1    0.0000
     15 C8         3.3033   -0.2653   18.6441 C.ar      1 RES1    0.0000
     16 C9         2.2089   -1.0839   18.4269 C.ar      1 RES1    0.0000
     17 C10        1.8087   -1.3343   17.1389 C.ar      1 RES1    0.0000
     18 C11        2.4222   -0.7541   16.0565 C.ar      1 RES1    0.0000
     19 C12        3.4966    0.0795   16.2640 C.ar      1 RES1    0.0000
     20 C13        8.3453    1.9085   16.4284 C.3       1 RES1    0.0000
     21 C14        4.0264    3.0878   21.9443 C.ar      1 RES1    0.0000
     22 C15        3.8314    1.9483   22.6685 C.ar      1 RES1    0.0000
     23 C16        2.9157    1.8906   23.7020 C.ar      1 RES1    0.0000
     24 C17        2.1669    2.9884   23.9976 C.ar      1 RES1    0.0000
     25 C18        2.3625    4.1240   23.3145 C.ar      1 RES1    0.0000
     26 C19        3.2958    4.1886   22.2829 C.ar      1 RES1    0.0000
     27 C20        8.4720    4.4827   20.9441 C.ar      1 RES1    0.0000
     28 C21        8.1391    5.2864   22.0285 C.ar      1 RES1    0.0000
     29 C22        9.0266    6.2461   22.4983 C.ar      1 RES1    0.0000
     30 C23       10.2350    6.4031   21.9032 C.ar      1 RES1    0.0000
     31 C24       10.5990    5.6133   20.8384 C.ar      1 RES1    0.0000
     32 C25        9.7136    4.6595   20.3608 C.ar      1 RES1    0.0000
     33 H1         3.8169    2.2453   19.6131 H         1 RES1    0.0000
     34 H2         5.0288    4.0734   20.4352 H         1 RES1    0.0000
     35 H3         6.5251    3.2090   22.1577 H         1 RES1    0.0000
     36 H4         6.6260    1.8777   21.2573 H         1 RES1    0.0000
     37 H5         3.6664   -0.1192   19.4956 H         1 RES1    0.0000
     38 H6         1.7869   -1.4902   19.1433 H         1 RES1    0.0000
     39 H7         2.1069   -0.9438   15.1698 H         1 RES1    0.0000
     40 H8         3.9916    0.4669   15.5025 H         1 RES1    0.0000
     41 H9         8.3708    1.3412   15.6591 H         1 RES1    0.0000
     42 H10        9.0737    1.5598   16.9510 H         1 RES1    0.0000
     43 H11        8.5183    2.7520   16.3051 H         1 RES1    0.0000
     44 H12        4.3572    1.2518   22.4708 H         1 RES1    0.0000
     45 H13        2.8715    0.9935   24.1542 H         1 RES1    0.0000
     46 H14        1.5712    2.9706   24.7023 H         1 RES1    0.0000
     47 H15        1.8173    4.9278   23.5083 H         1 RES1    0.0000
     48 H16        3.3535    4.9576   21.8053 H         1 RES1    0.0000
     49 H17        7.2794    5.2159   22.3926 H         1 RES1    0.0000
     50 H18        8.6520    6.7955   23.2930 H         1 RES1    0.0000
     51 H19       10.8899    7.0340   22.1968 H         1 RES1    0.0000
     52 H20       11.4420    5.7126   20.3569 H         1 RES1    0.0000
     53 H21        9.9932    4.1528   19.5739 H         1 RES1    0.0000
@<TRIPOS>BOND
     1    1    7 2
     2    2    7 2
     3    3    8 1
     4    4   10 2
     5    5    6 1
     6    6   13 1
     7    7   17 1
     8    8    9 1
     9    9   10 1
    10   10   27 1
    11   11    4 1
    12   12    5 2
    13   13    3 1
    14   14    6 1
    15   15   14 ar
    16   16   15 ar
    17   17   16 ar
    18   18   17 ar
    19   19   14 ar
    20   20   12 1
    21   21    8 1
    22   22   21 ar
    23   23   22 ar
    24   24   23 ar
    25   25   24 ar
    26   26   21 ar
    27   27   28 ar
    28   28   29 ar
    29   29   30 ar
    30   30   31 ar
    31   31   32 ar
    32   32   27 ar
    33   33    3 1
    34   34    8 1
    35   35    9 1
    36   36    9 1
    37   37   15 1
    38   38   16 1
    39   39   18 1
    40   40   19 1
    41   41   20 1
    42   42   20 1
    43   43   20 1
    44   44   22 1
    45   45   23 1
    46   46   24 1
    47   47   25 1
    48   48   26 1
    49   49   28 1
    50   50   29 1
    51   51   30 1
    52   52   31 1
    53   53   32 1
    54   11   12 1
    55   11   13 2
    56   18   19 ar
    57   25   26 ar
@<TRIPOS>SUBSTRUCTURE
     1 RES1 1

@<TRIPOS>CRYSIN
  22.6690    9.9350   20.2400  90.0000 104.7400  90.0000  15 1

