# MOL2 file generated by ConQuest
# Please check atom types

@<TRIPOS>MOLECULE
YERTUL
    65    68     1
SMALL
NO_CHARGES
****
Generated from CSD

@<TRIPOS>ATOM
      1 O1         2.5874    1.9996    7.0637 O.2       1 RES1    0.0000
      2 O2         1.2081    3.6553    7.0585 O.2       1 RES1    0.0000
      3 O3         2.6028    7.5907    4.5179 O.2       1 RES1    0.0000
      4 O4         2.7891    7.1022    2.4520 O.2       1 RES1    0.0000
      5 O5         4.8777    5.3978    2.3406 O.3       1 RES1    0.0000
      6 O6         7.2628    6.7709    1.4931 O.3       1 RES1    0.0000
      7 O7         8.3678    8.6599    2.8348 O.3       1 RES1    0.0000
      8 O8        11.9294   11.4125   -3.6497 O.2       1 RES1    0.0000
      9 N1         2.1710    3.0478    6.6073 N.pl3     1 RES1    0.0000
     10 N2         2.8455    6.8056    3.6202 N.pl3     1 RES1    0.0000
     11 N3        11.1058   11.4090   -0.6155 N.2       1 RES1    0.0000
     12 N4        13.1326   13.2560   -2.9586 N.am      1 RES1    0.0000
     13 N5        13.4640   13.8285   -1.7273 N.3       1 RES1    0.0000
     14 C1         4.5342    3.4703    3.7686 C.ar      1 RES1    0.0000
     15 H1         5.2074    2.9880    3.3450 H         1 RES1    0.0000
     16 C2         3.8484    2.9063    4.8186 C.ar      1 RES1    0.0000
     17 H2         4.0488    2.0422    5.0956 H         1 RES1    0.0000
     18 C3         2.8671    3.6227    5.4562 C.ar      1 RES1    0.0000
     19 C4         2.5415    4.8904    5.0627 C.ar      1 RES1    0.0000
     20 H3         1.8814    5.3714    5.5082 H         1 RES1    0.0000
     21 C5         3.2089    5.4375    3.9978 C.ar      1 RES1    0.0000
     22 C6         4.2275    4.7595    3.3346 C.ar      1 RES1    0.0000
     23 C7         6.0530    4.7737    1.7991 C.3       1 RES1    0.0000
     24 H4         5.8186    3.9294    1.3823 H         1 RES1    0.0000
     25 H5         6.6924    4.5981    2.5070 H         1 RES1    0.0000
     26 C8         6.6527    5.6966    0.7845 C.3       1 RES1    0.0000
     27 H6         7.3139    5.2261    0.2529 H         1 RES1    0.0000
     28 H7         5.9644    6.0348    0.1911 H         1 RES1    0.0000
     29 C9         7.9938    7.6648    0.7610 C.ar      1 RES1    0.0000
     30 C10        8.1370    7.6271   -0.6047 C.ar      1 RES1    0.0000
     31 H8         7.7172    6.9597   -1.0979 H         1 RES1    0.0000
     32 C11        8.9090    8.5858   -1.2506 C.ar      1 RES1    0.0000
     33 H9         8.9947    8.5604   -2.1760 H         1 RES1    0.0000
     34 C12        9.5486    9.5763   -0.5294 C.ar      1 RES1    0.0000
     35 C13        9.3876    9.6169    0.8543 C.ar      1 RES1    0.0000
     36 H10        9.8126   10.2828    1.3462 H         1 RES1    0.0000
     37 C14        8.6112    8.6894    1.5011 C.ar      1 RES1    0.0000
     38 C15        9.0027    9.6484    3.6399 C.3       1 RES1    0.0000
     39 H11        9.9546    9.5772    3.5397 H         1 RES1    0.0000
     40 H12        8.7662    9.5104    4.5595 H         1 RES1    0.0000
     41 H13        8.7149   10.5204    3.3613 H         1 RES1    0.0000
     42 C16       10.3820   10.5500   -1.2308 C.2       1 RES1    0.0000
     43 H14       10.3874   10.5453   -2.1609 H         1 RES1    0.0000
     44 C17       11.9178   12.2667   -1.3582 C.2       1 RES1    0.0000
     45 C18       12.6535   13.2773   -0.7914 C.2       1 RES1    0.0000
     46 C19       12.6405   13.7674    0.6037 C.3       1 RES1    0.0000
     47 H15       13.5330   13.7524    0.9569 H         1 RES1    0.0000
     48 H16       12.0764   13.2010    1.1352 H         1 RES1    0.0000
     49 H17       12.3030   14.6651    0.6235 H         1 RES1    0.0000
     50 C20       12.2448   12.2064   -2.7553 C.2       1 RES1    0.0000
     51 C21       13.9669   15.1887   -1.7285 C.3       1 RES1    0.0000
     52 H18       13.2753   15.7844   -2.0245 H         1 RES1    0.0000
     53 H19       14.7192   15.2507   -2.3217 H         1 RES1    0.0000
     54 H20       14.2384   15.4296   -0.8403 H         1 RES1    0.0000
     55 C22       14.0373   13.3251   -4.0641 C.ar      1 RES1    0.0000
     56 C23       15.3621   13.0115   -3.9045 C.ar      1 RES1    0.0000
     57 H21       15.6929   12.7922   -3.0630 H         1 RES1    0.0000
     58 C24       16.1986   13.0214   -4.9977 C.ar      1 RES1    0.0000
     59 H22       17.0984   12.8088   -4.8951 H         1 RES1    0.0000
     60 C25       15.7114   13.3438   -6.2332 C.ar      1 RES1    0.0000
     61 H23       16.2787   13.3478   -6.9698 H         1 RES1    0.0000
     62 C26       14.4028   13.6552   -6.3847 C.ar      1 RES1    0.0000
     63 H24       14.0748   13.8769   -7.2262 H         1 RES1    0.0000
     64 C27       13.5492   13.6458   -5.2903 C.ar      1 RES1    0.0000
     65 H25       12.6500   13.8573   -5.3952 H         1 RES1    0.0000
@<TRIPOS>BOND
     1    1    9 2
     2    2    9 2
     3    3   10 2
     4    4   10 2
     5    5   22 1
     6    6   26 1
     7    7   37 1
     8    8   50 2
     9    9   18 1
    10   10   21 1
    11   11   42 2
    12   12   13 1
    13   13   45 1
    14   14   15 1
    15   16   14 ar
    16   17   16 1
    17   18   16 ar
    18   19   18 ar
    19   20   19 1
    20   21   19 ar
    21   22   14 ar
    22   23    5 1
    23   24   23 1
    24   25   23 1
    25   26   23 1
    26   27   26 1
    27   28   26 1
    28   29    6 1
    29   30   29 ar
    30   31   30 1
    31   32   30 ar
    32   33   32 1
    33   34   32 ar
    34   35   34 ar
    35   36   35 1
    36   37   29 ar
    37   38    7 1
    38   39   38 1
    39   40   38 1
    40   41   38 1
    41   42   34 1
    42   43   42 1
    43   44   11 1
    44   45   44 2
    45   46   45 1
    46   47   46 1
    47   48   46 1
    48   49   46 1
    49   50   12 1
    50   51   13 1
    51   52   51 1
    52   53   51 1
    53   54   51 1
    54   55   12 1
    55   56   55 ar
    56   57   56 1
    57   58   56 ar
    58   59   58 1
    59   60   58 ar
    60   61   60 1
    61   62   60 ar
    62   63   62 1
    63   64   55 ar
    64   65   64 1
    65   21   22 ar
    66   35   37 ar
    67   44   50 1
    68   62   64 ar
@<TRIPOS>SUBSTRUCTURE
     1 RES1 1

@<TRIPOS>CRYSIN
   9.0320   12.2880   13.0540  63.8830  83.8010  88.3280   2 1

