# MOL2 file generated by ConQuest
# Please check atom types

@<TRIPOS>MOLECULE
YESFEK
    53    55     1
SMALL
NO_CHARGES
****
Generated from CSD

@<TRIPOS>ATOM
      1 C1         3.6689    5.8535    5.2020 C.3       1 RES1    0.0000
      2 H1         2.8182    5.4005    5.0267 H         1 RES1    0.0000
      3 O1         3.5977    7.1696    4.7093 O.3       1 RES1    0.0000
      4 C2         3.8841    5.9456    6.7100 C.3       1 RES1    0.0000
      5 H2         4.0206    5.0448    7.0691 H         1 RES1    0.0000
      6 O2         2.7789    6.5418    7.3642 O.3       1 RES1    0.0000
      7 C3         5.1124    6.7867    6.9997 C.3       1 RES1    0.0000
      8 H3         4.8503    7.7304    7.0241 H         1 RES1    0.0000
      9 O3         5.5728    6.4053    8.2909 O.3       1 RES1    0.0000
     10 C4         6.1832    6.6016    5.9407 C.2       1 RES1    0.0000
     11 N1         7.2064    7.3538    6.0701 N.2       1 RES1    0.0000
     12 O4         8.1834    7.1163    5.0979 O.3       1 RES1    0.0000
     13 H4         8.7737    7.6833    5.1592 H         1 RES1    0.0000
     14 C5         6.0400    5.6202    4.7943 C.3       1 RES1    0.0000
     15 H5         6.2862    6.0879    3.9688 H         1 RES1    0.0000
     16 O5         4.7080    5.1115    4.6272 O.3       1 RES1    0.0000
     17 C6         6.9418    4.4014    4.9214 C.3       1 RES1    0.0000
     18 H6         6.7743    3.7967    4.1818 H         1 RES1    0.0000
     19 H7         7.8703    4.6797    4.8776 H         1 RES1    0.0000
     20 O6         6.7115    3.7287    6.1359 O.3       1 RES1    0.0000
     21 H8         6.0928    3.1993    6.0420 H         1 RES1    0.0000
     22 C7         3.2009    7.2743    3.3348 C.3       1 RES1    0.0000
     23 H9         3.8891    6.9070    2.7737 H         1 RES1    0.0000
     24 H10        3.0636    8.1970    3.1097 H         1 RES1    0.0000
     25 H11        2.3845    6.7867    3.1997 H         1 RES1    0.0000
     26 C8         1.7599    5.6098    7.7589 C.3       1 RES1    0.0000
     27 H12        1.6159    4.9778    7.0383 H         1 RES1    0.0000
     28 H13        0.9302    6.0921    7.8997 H         1 RES1    0.0000
     29 C9         2.1015    4.8450    9.0210 C.ar      1 RES1    0.0000
     30 C10        2.9522    5.3451    9.9814 C.ar      1 RES1    0.0000
     31 H14        3.3708    6.1632    9.8427 H         1 RES1    0.0000
     32 C11        3.1933    4.6420   11.1548 C.ar      1 RES1    0.0000
     33 H15        3.7844    4.9883   11.7834 H         1 RES1    0.0000
     34 C12        2.5805    3.4629   11.3929 C.ar      1 RES1    0.0000
     35 H16        2.7287    3.0089   12.1904 H         1 RES1    0.0000
     36 C13        1.7432    2.9472   10.4533 C.ar      1 RES1    0.0000
     37 H17        1.3237    2.1322   10.6095 H         1 RES1    0.0000
     38 C14        1.5046    3.6220    9.2558 C.ar      1 RES1    0.0000
     39 H18        0.9436    3.2474    8.6145 H         1 RES1    0.0000
     40 C15        6.0777    7.4584    9.0741 C.3       1 RES1    0.0000
     41 H19        5.4255    8.1750    9.1280 H         1 RES1    0.0000
     42 H20        6.8874    7.8120    8.6736 H         1 RES1    0.0000
     43 C16        6.3750    6.9248   10.4521 C.ar      1 RES1    0.0000
     44 C17        6.1087    7.0190   12.8280 C.ar      1 RES1    0.0000
     45 H21        5.7269    7.4186   13.5772 H         1 RES1    0.0000
     46 C18        6.9577    5.9623   12.9818 C.ar      1 RES1    0.0000
     47 H22        7.1578    5.6401   13.8305 H         1 RES1    0.0000
     48 C19        7.5128    5.3796   11.8693 C.ar      1 RES1    0.0000
     49 H23        8.0947    4.6598   11.9632 H         1 RES1    0.0000
     50 C20        7.2122    5.8577   10.6140 C.ar      1 RES1    0.0000
     51 H24        7.5840    5.4486    9.8664 H         1 RES1    0.0000
     52 C21        5.8081    7.5034   11.5540 C.ar      1 RES1    0.0000
     53 H25        5.2229    8.2190   11.4544 H         1 RES1    0.0000
@<TRIPOS>BOND
     1    1    2 1
     2    3    1 1
     3    4    1 1
     4    5    4 1
     5    6    4 1
     6    7    4 1
     7    8    7 1
     8    9    7 1
     9   10    7 1
    10   11   10 2
    11   12   11 1
    12   13   12 1
    13   14   10 1
    14   15   14 1
    15   16    1 1
    16   17   14 1
    17   18   17 1
    18   19   17 1
    19   20   17 1
    20   21   20 1
    21   22    3 1
    22   23   22 1
    23   24   22 1
    24   25   22 1
    25   26    6 1
    26   27   26 1
    27   28   26 1
    28   29   26 1
    29   30   29 ar
    30   31   30 1
    31   32   30 ar
    32   33   32 1
    33   34   32 ar
    34   35   34 1
    35   36   34 ar
    36   37   36 1
    37   38   29 ar
    38   39   38 1
    39   40    9 1
    40   41   40 1
    41   42   40 1
    42   43   40 1
    43   44   45 1
    44   46   44 ar
    45   47   46 1
    46   48   46 ar
    47   49   48 1
    48   50   43 ar
    49   51   50 1
    50   52   43 ar
    51   53   52 1
    52   14   16 1
    53   36   38 ar
    54   44   52 ar
    55   48   50 ar
@<TRIPOS>SUBSTRUCTURE
     1 RES1 1

@<TRIPOS>CRYSIN
   8.3727   10.4621   23.6661  90.0000  90.0000  90.0000  19 1

