# MOL2 file generated by ConQuest
# Please check atom types

@<TRIPOS>MOLECULE
YESJEM
    51    54     1
SMALL
NO_CHARGES
****
Generated from CSD

@<TRIPOS>ATOM
      1 O1         5.3254   -0.4358    1.4427 O.2       1 RES1    0.0000
      2 O2         5.6589    3.0441    1.6873 O.3       1 RES1    0.0000
      3 N1         2.6479    6.5872    2.8626 N.2       1 RES1    0.0000
      4 N2         3.8473    1.2433    1.7270 N.am      1 RES1    0.0000
      5 H1         3.7348    2.0956    1.7197 H         1 RES1    0.0000
      6 N3         3.4679    4.5919    2.2381 N.2       1 RES1    0.0000
      7 O3         4.0322    6.6813    2.5775 O.3       1 RES1    0.0000
      8 C1         2.8508    1.0438    4.3839 C.3       1 RES1    0.0000
      9 H2         2.3796    0.8491    5.1971 H         1 RES1    0.0000
     10 H3         2.8094    1.9872    4.2097 H         1 RES1    0.0000
     11 H4         3.7681    0.7748    4.4722 H         1 RES1    0.0000
     12 C2         2.6826   -0.1285   -0.5208 C.3       1 RES1    0.0000
     13 H5         2.1531   -0.6624   -1.1178 H         1 RES1    0.0000
     14 H6         3.5935   -0.4296   -0.5435 H         1 RES1    0.0000
     15 H7         2.6423    0.7909   -0.7938 H         1 RES1    0.0000
     16 C3         2.1439   -0.2589    0.8821 C.ar      1 RES1    0.0000
     17 C4         2.7064    0.4173    1.9400 C.ar      1 RES1    0.0000
     18 C5         2.2149    0.2951    3.2417 C.ar      1 RES1    0.0000
     19 C6         1.0893   -0.4938    3.4272 C.ar      1 RES1    0.0000
     20 H8         0.7211   -0.5641    4.2777 H         1 RES1    0.0000
     21 C7         0.5081   -1.1703    2.3952 C.ar      1 RES1    0.0000
     22 H9        -0.2332   -1.7102    2.5475 H         1 RES1    0.0000
     23 C8         1.0301   -1.0478    1.1211 C.ar      1 RES1    0.0000
     24 H10        0.6281   -1.5015    0.4155 H         1 RES1    0.0000
     25 C9         5.0786    0.7688    1.5399 C.2       1 RES1    0.0000
     26 C10        6.1769    1.7664    1.3908 C.3       1 RES1    0.0000
     27 H11        6.9036    1.5516    1.9967 H         1 RES1    0.0000
     28 H12        6.5200    1.7484    0.4836 H         1 RES1    0.0000
     29 C11        6.4430    4.1411    1.5366 C.ar      1 RES1    0.0000
     30 C12        7.7669    4.0989    1.1608 C.ar      1 RES1    0.0000
     31 H13        8.1787    3.2819    0.9907 H         1 RES1    0.0000
     32 C13        8.4801    5.2732    1.0376 C.ar      1 RES1    0.0000
     33 H14        9.3687    5.2451    0.7679 H         1 RES1    0.0000
     34 C14        7.8947    6.4816    1.3066 C.ar      1 RES1    0.0000
     35 H15        8.3895    7.2664    1.2450 H         1 RES1    0.0000
     36 C15        6.5865    6.5217    1.6638 C.ar      1 RES1    0.0000
     37 H16        6.1863    7.3467    1.8217 H         1 RES1    0.0000
     38 C16        5.8309    5.3695    1.8007 C.ar      1 RES1    0.0000
     39 C17        4.4297    5.4548    2.1927 C.2       1 RES1    0.0000
     40 C18        2.3836    5.3294    2.6480 C.2       1 RES1    0.0000
     41 C19        1.0450    4.8035    2.8327 C.ar      1 RES1    0.0000
     42 C20        0.7777    3.4606    2.5921 C.ar      1 RES1    0.0000
     43 H17        1.4637    2.8945    2.3215 H         1 RES1    0.0000
     44 C21       -0.4968    2.9668    2.7517 C.ar      1 RES1    0.0000
     45 H18       -0.6676    2.0675    2.5945 H         1 RES1    0.0000
     46 C22       -1.5020    3.7878    3.1372 C.ar      1 RES1    0.0000
     47 H19       -2.3631    3.4485    3.2361 H         1 RES1    0.0000
     48 C23       -1.2590    5.0965    3.3786 C.ar      1 RES1    0.0000
     49 H20       -1.9520    5.6526    3.6524 H         1 RES1    0.0000
     50 C24        0.0013    5.6024    3.2199 C.ar      1 RES1    0.0000
     51 H21        0.1541    6.5057    3.3786 H         1 RES1    0.0000
@<TRIPOS>BOND
     1    1   25 2
     2    2   26 1
     3    3    7 1
     4    4    5 1
     5    6   39 2
     6    7   39 1
     7    8    9 1
     8   10    8 1
     9   11    8 1
    10   12   13 1
    11   14   12 1
    12   15   12 1
    13   16   12 1
    14   17    4 1
    15   18    8 1
    16   19   18 ar
    17   20   19 1
    18   21   19 ar
    19   22   21 1
    20   23   16 ar
    21   24   23 1
    22   25    4 1
    23   26   25 1
    24   27   26 1
    25   28   26 1
    26   29    2 1
    27   30   29 ar
    28   31   30 1
    29   32   30 ar
    30   33   32 1
    31   34   32 ar
    32   35   34 1
    33   36   34 ar
    34   37   36 1
    35   38   29 ar
    36   39   38 1
    37   40    3 2
    38   41   40 1
    39   42   41 ar
    40   43   42 1
    41   44   42 ar
    42   45   44 1
    43   46   44 ar
    44   47   46 1
    45   48   46 ar
    46   49   48 1
    47   50   41 ar
    48   51   50 1
    49    6   40 1
    50   16   17 ar
    51   17   18 ar
    52   21   23 ar
    53   36   38 ar
    54   48   50 ar
@<TRIPOS>SUBSTRUCTURE
     1 RES1 1

@<TRIPOS>CRYSIN
  12.6850   20.0730    8.3090  90.0000 102.8700  90.0000  14 1

