# MOL2 file generated by ConQuest
# Please check atom types

@<TRIPOS>MOLECULE
YESRAP
    33    31     2
SMALL
NO_CHARGES
****
Generated from CSD

@<TRIPOS>ATOM
      1 O1        -1.5404    4.8752   -3.6260 O.2       1 RES1    0.0000
      2 O2        -3.1908    4.1244   -2.1878 O.2       1 RES1    0.0000
      3 O3         2.2501    6.8165    2.0391 O.2       1 RES1    0.0000
      4 O4         0.7532    5.6751    3.2511 O.3       1 RES1    0.0000
      5 O5        -0.6675    6.1372    5.6300 O.3       1 RES1    0.0000
      6 O6         0.2994    7.9015    6.7269 O.2       1 RES1    0.0000
      7 O7        -1.6628    9.3651    6.1172 O.3       1 RES1    0.0000
      8 N1        -1.9449    4.7478   -2.4270 N.pl3     1 RES1    0.0000
      9 N2        -0.6316    7.4986    6.0282 N.pl3     1 RES1    0.0000
     10 N3        -1.6859    8.0823    5.5994 N.2       1 RES1    0.0000
     11 C1        -1.1322    5.1359   -1.2544 C.ar      1 RES1    0.0000
     12 C2         0.1200    5.7109   -1.4440 C.ar      1 RES1    0.0000
     13 C3         0.8779    6.0353   -0.3340 C.ar      1 RES1    0.0000
     14 C4         0.3815    5.7801    0.9408 C.ar      1 RES1    0.0000
     15 C5        -0.8887    5.2177    1.0998 C.ar      1 RES1    0.0000
     16 C6        -1.6540    4.8936    0.0044 C.ar      1 RES1    0.0000
     17 C7         1.2456    6.1615    2.1062 C.2       1 RES1    0.0000
     18 C8         1.4954    6.0192    4.4632 C.3       1 RES1    0.0000
     19 C9         0.6637    5.5306    5.6009 C.3       1 RES1    0.0000
     20 C10       -2.8526   10.0634    5.6402 C.3       1 RES1    0.0000
     21 O8        -1.4918    5.2202   -3.4422 Du        2 SUP2    0.0000
     22 O9        -2.7991    4.1346   -2.2987 Du        2 SUP2    0.0000
     23 H1         0.4367    5.8642   -2.2316 H         1 RES1    0.0000
     24 H2         1.7430    6.4277   -0.4084 H         1 RES1    0.0000
     25 H3        -1.2563    5.0537    1.9399 H         1 RES1    0.0000
     26 H4        -2.4599    4.5689    0.0438 H         1 RES1    0.0000
     27 H5         2.3476    5.5374    4.4048 H         1 RES1    0.0000
     28 H6         1.5662    7.0366    4.5361 H         1 RES1    0.0000
     29 H7         0.4366    4.5396    5.4988 H         1 RES1    0.0000
     30 H8         1.0903    5.7433    6.4176 H         1 RES1    0.0000
     31 H9        -3.6646    9.5334    5.7029 H         1 RES1    0.0000
     32 H10       -2.6853   10.2123    4.7695 H         1 RES1    0.0000
     33 H11       -2.8122   10.9497    6.0530 H         1 RES1    0.0000
@<TRIPOS>BOND
     1    1    8 2
     2    2    8 2
     3    3   17 2
     4    4   17 1
     5    5    9 1
     6    6    9 1
     7    7   10 1
     8    8   11 1
     9    9   10 2
    10   11   12 ar
    11   12   13 ar
    12   13   14 ar
    13   14   15 ar
    14   15   16 ar
    15   16   11 ar
    16   17   14 1
    17   18    4 1
    18   19    5 1
    19   20    7 1
    20   23   12 1
    21   24   13 1
    22   25   15 1
    23   26   16 1
    24   27   18 1
    25   28   18 1
    26   29   19 1
    27   30   19 1
    28   31   20 1
    29   32   20 1
    30   33   20 1
    31   18   19 1
@<TRIPOS>SUBSTRUCTURE
     1 RES1 1
     2 SUP2 21

@<TRIPOS>CRYSIN
   6.1770    7.3080   14.7330  94.0300  96.7500  93.7400   2 1

