# MOL2 file generated by ConQuest
# Please check atom types

@<TRIPOS>MOLECULE
YESVEY
    74    80     2
SMALL
NO_CHARGES
****
Generated from CSD

@<TRIPOS>ATOM
      1 O1         3.9343   11.4622    4.8372 O.3       1 RES1    0.0000
      2 N1         3.9264   10.0530    4.9929 N.2       1 RES1    0.0000
      3 C1         5.2858   11.9832    4.9167 C.3       1 RES1    0.0000
      4 O2         5.4985   12.1622    7.1508 O.3       1 RES1    0.0000
      5 N2         5.4770   12.9777    5.9322 N.3       1 RES1    0.0000
      6 C2         6.1155   10.7721    5.3669 C.3       1 RES1    0.0000
      7 H1         6.8985   10.6204    4.7965 H         1 RES1    0.0000
      8 C3         5.1121    9.6598    5.2688 C.2       1 RES1    0.0000
      9 C4         6.5019   11.1899    6.8039 C.3       1 RES1    0.0000
     10 H2         6.4743   10.4295    7.4064 H         1 RES1    0.0000
     11 H3         7.3892   11.5776    6.8275 H         1 RES1    0.0000
     12 C5         4.3585   13.9283    6.0710 C.3       1 RES1    0.0000
     13 H4         4.5599   14.5583    6.7649 H         1 RES1    0.0000
     14 H5         3.5581   13.4466    6.2961 H         1 RES1    0.0000
     15 H6         4.2293   14.3948    5.2417 H         1 RES1    0.0000
     16 C6         5.6327   12.5785    3.5543 C.ar      1 RES1    0.0000
     17 C7         6.8449   13.2346    3.3782 C.ar      1 RES1    0.0000
     18 H7         7.4332   13.3255    4.0908 H         1 RES1    0.0000
     19 C8         7.1732   13.7526    2.1376 C.ar      1 RES1    0.0000
     20 H8         7.9769   14.2069    2.0361 H         1 RES1    0.0000
     21 C9         6.3615   13.6132    1.0798 C.ar      1 RES1    0.0000
     22 H9         6.6046   13.9646    0.2539 H         1 RES1    0.0000
     23 C10        5.1910   12.9589    1.2186 C.ar      1 RES1    0.0000
     24 H10        4.6422   12.8468    0.4773 H         1 RES1    0.0000
     25 C11        4.7832   12.4440    2.4558 C.ar      1 RES1    0.0000
     26 H11        3.9603   12.0199    2.5438 H         1 RES1    0.0000
     27 C12        5.4093    8.2364    5.4346 C.ar      1 RES1    0.0000
     28 C13        4.5046    7.2671    4.9793 C.ar      1 RES1    0.0000
     29 H12        3.7093    7.5185    4.5681 H         1 RES1    0.0000
     30 C14        4.8148    5.9281    5.1520 C.ar      1 RES1    0.0000
     31 H13        4.2214    5.2799    4.8473 H         1 RES1    0.0000
     32 C15        5.9689    5.5374    5.7579 C.ar      1 RES1    0.0000
     33 H14        6.1449    4.6347    5.8899 H         1 RES1    0.0000
     34 C16        6.8759    6.4855    6.1725 C.ar      1 RES1    0.0000
     35 H15        7.6723    6.2129    6.5652 H         1 RES1    0.0000
     36 C17        6.6271    7.8396    6.0168 C.ar      1 RES1    0.0000
     37 H16        7.2504    8.4727    6.2927 H         1 RES1    0.0000
     38 O3         4.2524    3.7238    0.6093 O.3       2 RES2    0.0000
     39 N3         4.2818    5.1318    0.7955 N.2       2 RES2    0.0000
     40 C18        5.5735    3.1713    0.6059 C.3       2 RES2    0.0000
     41 N4         5.7534    2.1647    1.6434 N.3       2 RES2    0.0000
     42 O4         5.7912    2.9719    2.8773 O.3       2 RES2    0.0000
     43 C19        6.4641    4.3587    1.0934 C.3       2 RES2    0.0000
     44 H17        7.2504    4.5014    0.5264 H         2 RES2    0.0000
     45 C20        5.4815    5.4907    1.0206 C.2       2 RES2    0.0000
     46 C21        6.8319    3.9319    2.5269 C.3       2 RES2    0.0000
     47 H18        7.7096    3.5230    2.5540 H         2 RES2    0.0000
     48 H19        6.8206    4.6922    3.1294 H         2 RES2    0.0000
     49 C22        4.5796    1.2359    1.8042 C.3       2 RES2    0.0000
     50 H20        4.7646    0.6028    2.5015 H         2 RES2    0.0000
     51 H21        4.4267    0.7694    0.9800 H         2 RES2    0.0000
     52 H22        3.7984    1.7448    2.0327 H         2 RES2    0.0000
     53 C23        5.9108    2.5939   -0.7396 C.ar      2 RES2    0.0000
     54 C24        5.0579    2.7808   -1.8347 C.ar      2 RES2    0.0000
     55 H23        4.2603    3.2473   -1.7264 H         2 RES2    0.0000
     56 C25        5.3947    2.2749   -3.0702 C.ar      2 RES2    0.0000
     57 H24        4.8284    2.4143   -3.7946 H         2 RES2    0.0000
     58 C26        6.5250    1.5903   -3.2378 C.ar      2 RES2    0.0000
     59 H25        6.7445    1.2601   -4.0772 H         2 RES2    0.0000
     60 C27        7.3683    1.3722   -2.1766 C.ar      2 RES2    0.0000
     61 H26        8.1422    0.8754   -2.3052 H         2 RES2    0.0000
     62 C28        7.0868    1.8902   -0.9004 C.ar      2 RES2    0.0000
     63 H27        7.6718    1.7600   -0.1896 H         2 RES2    0.0000
     64 C29        5.8408    6.9017    1.2000 C.ar      2 RES2    0.0000
     65 C30        7.0429    7.2761    1.8161 C.ar      2 RES2    0.0000
     66 H28        7.6453    6.6279    2.1004 H         2 RES2    0.0000
     67 C31        7.3277    8.6241    1.9988 C.ar      2 RES2    0.0000
     68 H29        8.1010    8.8756    2.4490 H         2 RES2    0.0000
     69 C32        6.4782    9.5814    1.5182 C.ar      2 RES2    0.0000
     70 H30        6.6976   10.4780    1.6163 H         2 RES2    0.0000
     71 C33        5.3084    9.2360    0.8953 C.ar      2 RES2    0.0000
     72 H31        4.7421    9.9025    0.5805 H         2 RES2    0.0000
     73 C34        4.9570    7.9032    0.7278 C.ar      2 RES2    0.0000
     74 H32        4.1571    7.6730    0.3148 H         2 RES2    0.0000
@<TRIPOS>BOND
     1    1    2 1
     2    2    8 2
     3    3    1 1
     4    4    5 1
     5    5    3 1
     6    6    3 1
     7    7    6 1
     8    8    6 1
     9    9    4 1
    10   10    9 1
    11   11    9 1
    12   12    5 1
    13   13   12 1
    14   14   12 1
    15   15   12 1
    16   16    3 1
    17   17   16 ar
    18   18   17 1
    19   19   17 ar
    20   20   19 1
    21   21   19 ar
    22   22   21 1
    23   23   21 ar
    24   24   23 1
    25   25   16 ar
    26   26   25 1
    27   27    8 1
    28   28   27 ar
    29   29   28 1
    30   30   28 ar
    31   31   30 1
    32   32   30 ar
    33   33   32 1
    34   34   32 ar
    35   35   34 1
    36   36   27 ar
    37   37   36 1
    38   38   39 1
    39   39   45 2
    40   40   38 1
    41   41   40 1
    42   42   41 1
    43   43   40 1
    44   44   43 1
    45   45   43 1
    46   46   42 1
    47   47   46 1
    48   48   46 1
    49   49   41 1
    50   50   49 1
    51   51   49 1
    52   52   49 1
    53   53   40 1
    54   54   53 ar
    55   55   54 1
    56   56   54 ar
    57   57   56 1
    58   58   56 ar
    59   59   58 1
    60   60   58 ar
    61   61   60 1
    62   62   53 ar
    63   63   62 1
    64   64   45 1
    65   65   64 ar
    66   66   65 1
    67   67   65 ar
    68   68   67 1
    69   69   67 ar
    70   70   69 1
    71   71   69 ar
    72   72   71 1
    73   73   64 ar
    74   74   73 1
    75    6    9 1
    76   23   25 ar
    77   34   36 ar
    78   43   46 1
    79   60   62 ar
    80   71   73 ar
@<TRIPOS>SUBSTRUCTURE
     1 RES1 1
     2 RES2 38

@<TRIPOS>CRYSIN
   5.6406   30.2920   16.9250  90.0000  90.0000  90.0000  29 1

