# MOL2 file generated by ConQuest
# Please check atom types

@<TRIPOS>MOLECULE
YETTUP
    44    46     1
SMALL
NO_CHARGES
****
Generated from CSD

@<TRIPOS>ATOM
      1 C1         1.4648    0.9917    3.7876 C.2       1 RES1    0.0000
      2 C2         2.7849    0.8706    3.4805 C.2       1 RES1    0.0000
      3 C3         2.8213    0.0917    2.2965 C.2       1 RES1    0.0000
      4 C4         0.7331    1.6854    4.8814 C.3       1 RES1    0.0000
      5 H1        -0.2112    1.5526    4.7687 H         1 RES1    0.0000
      6 H2         0.9291    2.6242    4.8520 H         1 RES1    0.0000
      7 H3         1.0076    1.3266    5.7290 H         1 RES1    0.0000
      8 C5         4.0241   -0.3482    1.5356 C.3       1 RES1    0.0000
      9 H4         3.7500   -0.8625    0.7725 H         1 RES1    0.0000
     10 H5         4.5805   -0.8885    2.1026 H         1 RES1    0.0000
     11 H6         4.5166    0.4213    1.2432 H         1 RES1    0.0000
     12 C6         4.4125    2.6216    3.9690 C.2       1 RES1    0.0000
     13 C7         3.8279    3.4152    2.8078 C.2       1 RES1    0.0000
     14 C8         3.2732    4.7605    3.0873 C.ar      1 RES1    0.0000
     15 C9         2.8436    5.1332    4.3648 C.ar      1 RES1    0.0000
     16 H7         2.9185    4.5355    5.0727 H         1 RES1    0.0000
     17 C10        2.3052    6.3923    4.5761 C.ar      1 RES1    0.0000
     18 H8         2.0044    6.6331    5.4226 H         1 RES1    0.0000
     19 C11        2.2161    7.2927    3.5254 C.ar      1 RES1    0.0000
     20 H9         1.8661    8.1414    3.6722 H         1 RES1    0.0000
     21 C12        2.6457    6.9343    2.2528 C.ar      1 RES1    0.0000
     22 H10        2.5895    7.5429    1.5520 H         1 RES1    0.0000
     23 C13        3.1574    5.6699    2.0321 C.ar      1 RES1    0.0000
     24 H11        3.4267    5.4225    1.1775 H         1 RES1    0.0000
     25 C14        5.4723    3.1689    4.6313 C.2       1 RES1    0.0000
     26 C15        6.2359    2.4900    5.6456 C.2       1 RES1    0.0000
     27 C16        7.4506    3.1595    6.2234 C.ar      1 RES1    0.0000
     28 C17        8.0722    2.5787    7.3276 C.ar      1 RES1    0.0000
     29 H12        7.7056    1.8136    7.7083 H         1 RES1    0.0000
     30 C18        9.2308    3.1243    7.8703 C.ar      1 RES1    0.0000
     31 H13        9.6396    2.7204    8.6017 H         1 RES1    0.0000
     32 C19        9.7737    4.2728    7.3162 C.ar      1 RES1    0.0000
     33 H14       10.5500    4.6378    7.6731 H         1 RES1    0.0000
     34 C20        9.1598    4.8783    6.2302 C.ar      1 RES1    0.0000
     35 H15        9.5184    5.6561    5.8687 H         1 RES1    0.0000
     36 C21        8.0082    4.3229    5.6808 C.ar      1 RES1    0.0000
     37 H16        7.6054    4.7279    4.9471 H         1 RES1    0.0000
     38 N1         1.6185   -0.2322    1.9100 N.2       1 RES1    0.0000
     39 N2         3.8936    1.3900    4.1954 N.pl3     1 RES1    0.0000
     40 O1         0.7308    0.3459    2.8680 O.3       1 RES1    0.0000
     41 O2         3.8819    2.9512    1.6839 O.2       1 RES1    0.0000
     42 O3         5.9082    1.3532    6.0512 O.2       1 RES1    0.0000
     43 H17        4.2944    0.8854    4.8367 H         1 RES1    0.0000
     44 H18        5.7212    4.1035    4.3906 H         1 RES1    0.0000
@<TRIPOS>BOND
     1    1    2 2
     2    2    3 1
     3    3    8 1
     4    4    1 1
     5    5    4 1
     6    6    4 1
     7    7    4 1
     8    8    9 1
     9   10    8 1
    10   11    8 1
    11   12   13 1
    12   13   14 1
    13   14   15 ar
    14   15   16 1
    15   17   15 ar
    16   18   17 1
    17   19   17 ar
    18   20   19 1
    19   21   19 ar
    20   22   21 1
    21   23   14 ar
    22   24   23 1
    23   25   12 2
    24   26   25 1
    25   27   26 1
    26   28   27 ar
    27   29   28 1
    28   30   28 ar
    29   31   30 1
    30   32   30 ar
    31   33   32 1
    32   34   32 ar
    33   35   34 1
    34   36   27 ar
    35   37   36 1
    36   38    3 2
    37   39    2 1
    38   40    1 1
    39   41   13 2
    40   42   26 2
    41   43   39 1
    42   44   25 1
    43   12   39 1
    44   21   23 ar
    45   34   36 ar
    46   38   40 1
@<TRIPOS>SUBSTRUCTURE
     1 RES1 1

@<TRIPOS>CRYSIN
   9.8860   15.2660   11.7400  90.0000  90.4230  90.0000  14 1

