# MOL2 file generated by ConQuest
# Please check atom types

@<TRIPOS>MOLECULE
YETVAX
    41    43     1
SMALL
NO_CHARGES
****
Generated from CSD

@<TRIPOS>ATOM
      1 O1         7.4755    1.3209    9.8089 O.3       1 RES1    0.0000
      2 O2         4.2193    0.8052    7.0039 O.2       1 RES1    0.0000
      3 O3         1.4864    2.2919   10.9143 O.2       1 RES1    0.0000
      4 N1         6.1514    1.0501    9.3544 N.2       1 RES1    0.0000
      5 N2         3.9780    1.4498   10.2042 N.pl3     1 RES1    0.0000
      6 H1         3.5119    1.7765   10.8760 H         1 RES1    0.0000
      7 C1         7.3963    1.9450   11.0085 C.2       1 RES1    0.0000
      8 C2         6.1068    2.0940   11.3695 C.2       1 RES1    0.0000
      9 H2         5.7684    2.4938   12.1621 H         1 RES1    0.0000
     10 C3         5.3686    1.5215   10.3030 C.2       1 RES1    0.0000
     11 C4         8.6845    2.3241   11.6473 C.3       1 RES1    0.0000
     12 H3         9.2425    1.5257   11.7551 H         1 RES1    0.0000
     13 H4         8.5085    2.7212   12.5257 H         1 RES1    0.0000
     14 H5         9.1499    2.9745   11.0811 H         1 RES1    0.0000
     15 C5         3.2717    0.9183    9.1591 C.2       1 RES1    0.0000
     16 C6         1.9169    0.9664    9.0307 C.2       1 RES1    0.0000
     17 H6         1.5269    0.5434    8.2756 H         1 RES1    0.0000
     18 C7         1.0279    1.6261    9.9790 C.2       1 RES1    0.0000
     19 C8        -0.4611    1.5031    9.8122 C.ar      1 RES1    0.0000
     20 C9        -1.2769    2.3513   10.5589 C.ar      1 RES1    0.0000
     21 H7        -0.8824    2.9929   11.1387 H         1 RES1    0.0000
     22 C10       -2.6643    2.2689   10.4650 C.ar      1 RES1    0.0000
     23 H8        -3.2100    2.8666   10.9628 H         1 RES1    0.0000
     24 C11       -3.2470    1.3200    9.6498 C.ar      1 RES1    0.0000
     25 H9        -4.1926    1.2548    9.5953 H         1 RES1    0.0000
     26 C12       -2.4504    0.4648    8.9124 C.ar      1 RES1    0.0000
     27 H10       -2.8517   -0.1914    8.3559 H         1 RES1    0.0000
     28 C13       -1.0582    0.5614    8.9816 C.ar      1 RES1    0.0000
     29 H11       -0.5182   -0.0192    8.4590 H         1 RES1    0.0000
     30 C14        4.0173    0.2050    8.0448 C.2       1 RES1    0.0000
     31 C15        4.3586   -1.2333    8.2010 C.ar      1 RES1    0.0000
     32 C16        3.7921   -2.0248    9.2010 C.ar      1 RES1    0.0000
     33 H12        3.2268   -1.6310    9.8558 H         1 RES1    0.0000
     34 C17        4.0552   -3.3930    9.2386 C.ar      1 RES1    0.0000
     35 H13        3.6554   -3.9351    9.9090 H         1 RES1    0.0000
     36 C18        4.8991   -3.9635    8.2971 C.ar      1 RES1    0.0000
     37 H14        5.0688   -4.8981    8.3190 H         1 RES1    0.0000
     38 C19        5.4956   -3.1760    7.3230 C.ar      1 RES1    0.0000
     39 H15        6.0908   -3.5672    6.6943 H         1 RES1    0.0000
     40 C20        5.2229   -1.8141    7.2674 C.ar      1 RES1    0.0000
     41 H16        5.6243   -1.2774    6.5944 H         1 RES1    0.0000
@<TRIPOS>BOND
     1    1    4 1
     2    2   30 2
     3    3   18 2
     4    4   10 2
     5    5    6 1
     6    7    1 1
     7    8    7 2
     8    9    8 1
     9   10    5 1
    10   11    7 1
    11   12   11 1
    12   13   11 1
    13   14   11 1
    14   15    5 1
    15   16   15 2
    16   17   16 1
    17   18   16 1
    18   19   18 1
    19   20   19 ar
    20   21   20 1
    21   22   20 ar
    22   23   22 1
    23   24   22 ar
    24   25   24 1
    25   26   24 ar
    26   27   26 1
    27   28   19 ar
    28   29   28 1
    29   30   15 1
    30   31   30 1
    31   32   31 ar
    32   33   32 1
    33   34   32 ar
    34   35   34 1
    35   36   34 ar
    36   37   36 1
    37   38   36 ar
    38   39   38 1
    39   40   31 ar
    40   41   40 1
    41    8   10 1
    42   26   28 ar
    43   38   40 ar
@<TRIPOS>SUBSTRUCTURE
     1 RES1 1

@<TRIPOS>CRYSIN
  18.6360    8.3600   10.9140  90.0000  96.0500  90.0000  14 1

