# MOL2 file generated by ConQuest
# Please check atom types

@<TRIPOS>MOLECULE
YETVEB
    44    46     1
SMALL
NO_CHARGES
****
Generated from CSD

@<TRIPOS>ATOM
      1 O1         6.7697    5.1722    1.8059 O.3       1 RES1    0.0000
      2 O2         9.6921    5.6645   -2.0880 O.2       1 RES1    0.0000
      3 O3         6.9941    8.4159    1.1119 O.2       1 RES1    0.0000
      4 N1         8.2603    5.5220    0.0372 N.pl3     1 RES1    0.0000
      5 H1         8.6667    5.1453   -0.6465 H         1 RES1    0.0000
      6 N2         6.1175    4.0605    2.4396 N.2       1 RES1    0.0000
      7 C1         7.5181    4.6621    0.8086 C.2       1 RES1    0.0000
      8 C2         7.4119    3.3206    0.7219 C.2       1 RES1    0.0000
      9 C3         6.5199    3.0020    1.7808 C.2       1 RES1    0.0000
     10 C4         8.0534    2.4024   -0.2672 C.3       1 RES1    0.0000
     11 H2         7.5039    2.3600   -1.0778 H         1 RES1    0.0000
     12 H3         8.1312    1.5066    0.1215 H         1 RES1    0.0000
     13 H4         8.9451    2.7388   -0.4941 H         1 RES1    0.0000
     14 C5         6.0781    1.6513    2.1980 C.3       1 RES1    0.0000
     15 H5         6.8483    1.1420    2.5262 H         1 RES1    0.0000
     16 H6         5.6813    1.1863    1.4319 H         1 RES1    0.0000
     17 H7         5.4109    1.7316    2.9122 H         1 RES1    0.0000
     18 C6         8.4696    6.8523    0.1546 C.2       1 RES1    0.0000
     19 C7         9.2008    7.5451   -0.7676 C.2       1 RES1    0.0000
     20 H8         9.3041    8.4838   -0.6640 H         1 RES1    0.0000
     21 C8         9.8240    6.8882   -1.9002 C.2       1 RES1    0.0000
     22 C9        10.6518    7.6758   -2.8578 C.ar      1 RES1    0.0000
     23 C10       10.7246    9.0635   -2.8433 C.ar      1 RES1    0.0000
     24 H9        10.2527    9.5553   -2.1813 H         1 RES1    0.0000
     25 C11       11.4863    9.7345   -3.7933 C.ar      1 RES1    0.0000
     26 H10       11.5329   10.6830   -3.7800 H         1 RES1    0.0000
     27 C12       12.1772    9.0196   -4.7611 C.ar      1 RES1    0.0000
     28 H11       12.6883    9.4776   -5.4178 H         1 RES1    0.0000
     29 C13       12.1194    7.6409   -4.7665 C.ar      1 RES1    0.0000
     30 H12       12.6037    7.1538   -5.4230 H         1 RES1    0.0000
     31 C14       11.3674    6.9628   -3.8278 C.ar      1 RES1    0.0000
     32 H13       11.3348    6.0133   -3.8397 H         1 RES1    0.0000
     33 C15        7.9079    7.6458    1.3304 C.2       1 RES1    0.0000
     34 C16        8.5839    7.5310    2.6386 C.ar      1 RES1    0.0000
     35 C17        9.6405    6.6490    2.8365 C.ar      1 RES1    0.0000
     36 H14        9.9348    6.0950    2.1227 H         1 RES1    0.0000
     37 C18       10.2642    6.5753    4.0685 C.ar      1 RES1    0.0000
     38 H15       10.9793    5.9656    4.2062 H         1 RES1    0.0000
     39 C19        9.8393    7.3967    5.1031 C.ar      1 RES1    0.0000
     40 H16       10.2704    7.3522    5.9480 H         1 RES1    0.0000
     41 C20        8.7886    8.2818    4.9114 C.ar      1 RES1    0.0000
     42 H17        8.5073    8.8441    5.6237 H         1 RES1    0.0000
     43 C21        8.1536    8.3481    3.6952 C.ar      1 RES1    0.0000
     44 H18        7.4257    8.9455    3.5700 H         1 RES1    0.0000
@<TRIPOS>BOND
     1    1    6 1
     2    2   21 2
     3    3   33 2
     4    4    5 1
     5    6    9 2
     6    7    1 1
     7    8    7 2
     8    9    8 1
     9   10    8 1
    10   11   10 1
    11   12   10 1
    12   13   10 1
    13   14    9 1
    14   15   14 1
    15   16   14 1
    16   17   14 1
    17   18    4 1
    18   19   18 2
    19   20   19 1
    20   21   19 1
    21   22   21 1
    22   23   22 ar
    23   24   23 1
    24   25   23 ar
    25   26   25 1
    26   27   25 ar
    27   28   27 1
    28   29   27 ar
    29   30   29 1
    30   31   22 ar
    31   32   31 1
    32   33   18 1
    33   34   33 1
    34   35   34 ar
    35   36   35 1
    36   37   35 ar
    37   38   37 1
    38   39   37 ar
    39   40   39 1
    40   41   39 ar
    41   42   41 1
    42   43   34 ar
    43   44   43 1
    44    4    7 1
    45   29   31 ar
    46   41   43 ar
@<TRIPOS>SUBSTRUCTURE
     1 RES1 1

@<TRIPOS>CRYSIN
   8.7077   10.2137   11.6317  64.6850  71.6710  70.8100   2 1

