# MOL2 file generated by ConQuest
# Please check atom types

@<TRIPOS>MOLECULE
YEVJAK
    52    54     2
SMALL
NO_CHARGES
****
Generated from CSD

@<TRIPOS>ATOM
      1 C1         4.4313   10.2630   25.2768 C.3       1 RES1    0.0000
      2 C2         3.1798   10.1500   26.0994 C.3       1 RES1    0.0000
      3 O1         2.4992   11.4056   26.0798 O.3       1 RES1    0.0000
      4 C3         2.1906    9.0953   25.6418 C.3       1 RES1    0.0000
      5 C4         1.0095    9.8784   25.1533 C.3       1 RES1    0.0000
      6 C5         1.1466   11.1968   25.8889 C.3       1 RES1    0.0000
      7 O2         4.0648   10.4074   23.8955 O.3       1 RES1    0.0000
      8 O3         6.1747   10.9473   23.4407 O.2       1 RES1    0.0000
      9 C6         5.0728   10.7118   23.0700 C.2       1 RES1    0.0000
     10 C7         4.6177   10.7872   21.6410 C.3       1 RES1    0.0000
     11 O4         1.7927    8.2760   26.7536 O.3       1 RES1    0.0000
     12 C8         2.5352    7.2056   27.0203 C.2       1 RES1    0.0000
     13 O5         3.4986    6.9215   26.4111 O.2       1 RES1    0.0000
     14 C9         1.9705    6.4287   28.1574 C.3       1 RES1    0.0000
     15 N1         0.5897   12.3394   25.1308 N.am      1 RES1    0.0000
     16 C10       -0.6328   12.8526   25.4958 C.2       1 RES1    0.0000
     17 O6        -1.2461   12.5591   26.4644 O.2       1 RES1    0.0000
     18 N2        -1.0722   13.7865   24.5525 N.am      1 RES1    0.0000
     19 N3        -2.4264   14.3138   24.8108 N.pl3     1 RES1    0.0000
     20 O7        -3.3098   13.6044   24.4626 O.2       1 RES1    0.0000
     21 O8        -2.4655   15.3780   25.2768 O.2       1 RES1    0.0000
     22 C11       -0.5373   14.1773   23.3199 C.2       1 RES1    0.0000
     23 O9        -1.1521   14.8946   22.5871 O.2       1 RES1    0.0000
     24 C12        0.7895   13.5950   23.1150 C.2       1 RES1    0.0000
     25 C13        1.4904   14.0109   21.8544 C.3       1 RES1    0.0000
     26 C14        1.2500   12.7302   24.0078 C.2       1 RES1    0.0000
     27 C15        0.3775    2.1220   24.2914 C.3       2 RES2    0.0000
     28 C16        1.6784    1.5962   24.8136 C.3       2 RES2    0.0000
     29 O10        2.7796    2.2977   24.2212 O.3       2 RES2    0.0000
     30 C17        1.8209    1.8081   26.3437 C.3       2 RES2    0.0000
     31 C18        2.6566    3.0527   26.4083 C.3       2 RES2    0.0000
     32 C19        3.5518    2.8863   25.1982 C.3       2 RES2    0.0000
     33 O11        0.3658    1.9242   22.8876 O.3       2 RES2    0.0000
     34 O12       -1.6291    2.8942   22.7893 O.2       2 RES2    0.0000
     35 C20       -0.7213    2.3370   22.2446 C.2       2 RES2    0.0000
     36 C21       -0.6892    1.9948   20.8015 C.3       2 RES2    0.0000
     37 O13        2.5477    0.7392   26.9502 O.3       2 RES2    0.0000
     38 C22        1.8671   -0.4065   27.1411 C.2       2 RES2    0.0000
     39 O14        0.7527   -0.5509   26.8098 O.2       2 RES2    0.0000
     40 C23        2.7318   -1.4424   27.7615 C.3       2 RES2    0.0000
     41 N4         4.0844    4.1607   24.6676 N.am      2 RES2    0.0000
     42 C24        5.2976    4.5876   25.1421 C.2       2 RES2    0.0000
     43 O15        5.9241    4.0477   26.0012 O.2       2 RES2    0.0000
     44 N5         5.7260    5.7428   24.5047 N.am      2 RES2    0.0000
     45 N6         6.9799    6.2592   25.0382 N.pl3     2 RES2    0.0000
     46 O16        6.8577    7.0015   25.9703 O.2       2 RES2    0.0000
     47 O17        7.9597    5.8856   24.4991 O.2       2 RES2    0.0000
     48 C25        5.0579    6.5841   23.6063 C.2       2 RES2    0.0000
     49 O18        5.5537    7.6199   23.2694 O.2       2 RES2    0.0000
     50 C26        3.7774    6.0316   23.2273 C.2       2 RES2    0.0000
     51 C27        2.9401    6.8462   22.2530 C.3       2 RES2    0.0000
     52 C28        3.3795    4.8843   23.7523 C.2       2 RES2    0.0000
@<TRIPOS>BOND
     1    1    2 1
     2    2    3 1
     3    3    6 1
     4    4    2 1
     5    5    4 1
     6    6    5 1
     7    7    1 1
     8    8    9 2
     9    9    7 1
    10   10    9 1
    11   11    4 1
    12   12   11 1
    13   13   12 2
    14   14   12 1
    15   15    6 1
    16   16   15 1
    17   17   16 2
    18   18   16 1
    19   19   18 1
    20   20   19 2
    21   21   19 2
    22   22   18 1
    23   23   22 2
    24   24   22 1
    25   25   24 1
    26   26   15 1
    27   27   28 1
    28   28   29 1
    29   29   32 1
    30   30   28 1
    31   31   30 1
    32   32   31 1
    33   33   27 1
    34   34   35 2
    35   35   33 1
    36   36   35 1
    37   37   30 1
    38   38   37 1
    39   39   38 2
    40   40   38 1
    41   41   32 1
    42   42   41 1
    43   43   42 2
    44   44   42 1
    45   45   44 1
    46   46   45 2
    47   47   45 2
    48   48   44 1
    49   49   48 2
    50   50   48 1
    51   51   50 1
    52   52   41 1
    53   24   26 2
    54   50   52 2
@<TRIPOS>SUBSTRUCTURE
     1 RES1 1
     2 RES2 27

@<TRIPOS>CRYSIN
   7.8320   15.6950   28.0760  90.0000  90.0000  90.0000  19 1

