# MOL2 file generated by ConQuest
# Please check atom types

@<TRIPOS>MOLECULE
YEWBOS
    34    36     1
SMALL
NO_CHARGES
****
Generated from CSD

@<TRIPOS>ATOM
      1 C1         5.1767    5.4717   -0.7049 C.ar      1 RES1    0.0000
      2 H1         4.5372    5.0818   -1.2564 H         1 RES1    0.0000
      3 C2         6.4468    5.7581   -1.2151 C.ar      1 RES1    0.0000
      4 C3         7.3661    6.3341   -0.3671 C.ar      1 RES1    0.0000
      5 C4         7.0831    6.6589    0.9692 C.ar      1 RES1    0.0000
      6 C5         8.0791    7.3130    1.7732 C.ar      1 RES1    0.0000
      7 H2         8.9178    7.4915    1.4131 H         1 RES1    0.0000
      8 C6         7.8105    7.6690    3.0388 C.ar      1 RES1    0.0000
      9 H3         8.4628    8.1126    3.5327 H         1 RES1    0.0000
     10 C7         6.5539    7.3865    3.6484 C.ar      1 RES1    0.0000
     11 C8         6.3430    7.7488    4.9960 C.ar      1 RES1    0.0000
     12 H4         7.0357    8.1406    5.4774 H         1 RES1    0.0000
     13 C9         5.1376    7.5350    5.6088 C.ar      1 RES1    0.0000
     14 H5         5.0119    7.7668    6.5005 H         1 RES1    0.0000
     15 C10        4.0991    6.9620    4.8695 C.ar      1 RES1    0.0000
     16 H6         3.2725    6.8287    5.2741 H         1 RES1    0.0000
     17 C11        4.2742    6.5907    3.5567 C.ar      1 RES1    0.0000
     18 H7         3.5617    6.2144    3.0928 H         1 RES1    0.0000
     19 C12        5.5119    6.7675    2.8935 C.ar      1 RES1    0.0000
     20 C13        5.7931    6.3860    1.5036 C.ar      1 RES1    0.0000
     21 C14        4.8603    5.7621    0.6107 C.ar      1 RES1    0.0000
     22 C15        2.6377    4.9106    0.2623 C.3       1 RES1    0.0000
     23 H8         2.4601    5.5305   -0.4483 H         1 RES1    0.0000
     24 H9         1.8337    4.7618    0.7649 H         1 RES1    0.0000
     25 H10        2.9427    4.0786   -0.1066 H         1 RES1    0.0000
     26 C16        5.9582    4.7902   -3.3442 C.3       1 RES1    0.0000
     27 H11        5.6918    3.9508   -2.9628 H         1 RES1    0.0000
     28 H12        6.3858    4.6362   -4.1893 H         1 RES1    0.0000
     29 H13        5.1841    5.3428   -3.4727 H         1 RES1    0.0000
     30 N1         8.7182    6.5606   -0.8893 N.pl3     1 RES1    0.0000
     31 O1         3.6478    5.4495    1.1240 O.3       1 RES1    0.0000
     32 O2         6.8739    5.4494   -2.4586 O.3       1 RES1    0.0000
     33 O3         8.8786    7.4175   -1.7440 O.2       1 RES1    0.0000
     34 O4         9.6270    5.8681   -0.4373 O.2       1 RES1    0.0000
@<TRIPOS>BOND
     1    1    2 1
     2    3    1 ar
     3    4    3 ar
     4    5    4 ar
     5    6    5 ar
     6    7    6 1
     7    8    6 ar
     8    9    8 1
     9   10    8 ar
    10   11   10 ar
    11   12   11 1
    12   13   11 ar
    13   14   13 1
    14   15   13 ar
    15   16   15 1
    16   17   15 ar
    17   18   17 1
    18   19   10 ar
    19   20    5 ar
    20   21    1 ar
    21   22   23 1
    22   24   22 1
    23   25   22 1
    24   26   27 1
    25   28   26 1
    26   29   26 1
    27   30    4 1
    28   31   21 1
    29   32    3 1
    30   33   30 2
    31   34   30 2
    32   17   19 ar
    33   19   20 ar
    34   20   21 ar
    35   22   31 1
    36   26   32 1
@<TRIPOS>SUBSTRUCTURE
     1 RES1 1

@<TRIPOS>CRYSIN
  10.2113    7.5656   16.7368  90.0000  95.3560  90.0000 231 1

