# MOL2 file generated by ConQuest
# Please check atom types

@<TRIPOS>MOLECULE
YEWBIM
    32    34     1
SMALL
NO_CHARGES
****
Generated from CSD

@<TRIPOS>ATOM
      1 N1         5.0833    9.4026    5.4486 N.pl3     1 RES1    0.0000
      2 O1         4.0328    9.9675    5.7198 O.2       1 RES1    0.0000
      3 O2         6.1678    9.7019    5.9372 O.2       1 RES1    0.0000
      4 C1         5.0273    8.3370    4.4283 C.ar      1 RES1    0.0000
      5 C2         5.4662    8.7323    3.1778 C.ar      1 RES1    0.0000
      6 C3         5.2603    7.8331    2.1228 C.ar      1 RES1    0.0000
      7 H1         5.5693    8.0599    1.2756 H         1 RES1    0.0000
      8 C4         4.6203    6.6302    2.2926 C.ar      1 RES1    0.0000
      9 C5         4.2291    6.2264    3.6018 C.ar      1 RES1    0.0000
     10 C6         3.5707    4.9676    3.7940 C.ar      1 RES1    0.0000
     11 H2         3.3819    4.4367    3.0540 H         1 RES1    0.0000
     12 C7         3.2186    4.5346    5.0197 C.ar      1 RES1    0.0000
     13 H3         2.7700    3.7251    5.1077 H         1 RES1    0.0000
     14 C8         3.5234    5.2986    6.1847 C.ar      1 RES1    0.0000
     15 C9         3.2421    4.7612    7.4608 C.ar      1 RES1    0.0000
     16 H4         2.8468    3.9217    7.5248 H         1 RES1    0.0000
     17 C10        3.5390    5.4509    8.6056 C.ar      1 RES1    0.0000
     18 H5         3.3409    5.0899    9.4390 H         1 RES1    0.0000
     19 C11        4.1453    6.7067    8.5020 C.ar      1 RES1    0.0000
     20 H6         4.3505    7.1822    9.2746 H         1 RES1    0.0000
     21 C12        4.4418    7.2482    7.2731 C.ar      1 RES1    0.0000
     22 H7         4.8549    8.0799    7.2340 H         1 RES1    0.0000
     23 C13        4.1365    6.5766    6.0684 C.ar      1 RES1    0.0000
     24 C14        4.4601    7.0724    4.7251 C.ar      1 RES1    0.0000
     25 C15        6.1093   10.0708    2.9253 C.3       1 RES1    0.0000
     26 H8         5.5075   10.7701    3.1908 H         1 RES1    0.0000
     27 H9         6.3087   10.1589    1.9904 H         1 RES1    0.0000
     28 H10        6.9213   10.1366    3.4331 H         1 RES1    0.0000
     29 C16        4.3385    5.7605    1.0952 C.3       1 RES1    0.0000
     30 H11        4.7061    6.1698    0.3090 H         1 RES1    0.0000
     31 H12        3.3897    5.6589    0.9892 H         1 RES1    0.0000
     32 H13        4.7400    4.8983    1.2246 H         1 RES1    0.0000
@<TRIPOS>BOND
     1    1    2 2
     2    3    1 2
     3    4    1 1
     4    5    4 ar
     5    6    5 ar
     6    7    6 1
     7    8    6 ar
     8    9    8 ar
     9   10    9 ar
    10   11   10 1
    11   12   10 ar
    12   13   12 1
    13   14   12 ar
    14   15   14 ar
    15   16   15 1
    16   17   15 ar
    17   18   17 1
    18   19   17 ar
    19   20   19 1
    20   21   19 ar
    21   22   21 1
    22   23   14 ar
    23   24    4 ar
    24   25    5 1
    25   26   25 1
    26   27   25 1
    27   28   25 1
    28   29    8 1
    29   30   29 1
    30   31   29 1
    31   32   29 1
    32    9   24 ar
    33   21   23 ar
    34   23   24 ar
@<TRIPOS>SUBSTRUCTURE
     1 RES1 1

@<TRIPOS>CRYSIN
   7.7881    9.2769    9.7062  63.7060  77.7810  74.0960   2 1

