# MOL2 file generated by ConQuest
# Please check atom types

@<TRIPOS>MOLECULE
YEWZUW
    59    48     2
SMALL
NO_CHARGES
****
Generated from CSD

@<TRIPOS>ATOM
      1 C1         4.3227   -3.6443    7.8870 C.2       1 RES1    0.0000
      2 C2         4.7311   -4.8501    8.7188 C.3       1 RES1    0.0000
      3 H1         4.3274   -4.7935    9.5983 H         1 RES1    0.0000
      4 H2         4.4201   -5.6636    8.2920 H         1 RES1    0.0000
      5 C3         6.6639   -5.5834    9.9078 C.ar      1 RES1    0.0000
      6 C4         6.2321   -6.8402   10.3019 C.ar      1 RES1    0.0000
      7 H3         5.5506   -7.2695    9.8369 H         1 RES1    0.0000
      8 C5         6.8178   -7.4406   11.3791 C.ar      1 RES1    0.0000
      9 H4         6.5170   -8.2833   11.6314 H         1 RES1    0.0000
     10 C6         7.8321   -6.8631   12.1127 C.ar      1 RES1    0.0000
     11 C7         8.2654   -5.6241   11.6641 C.ar      1 RES1    0.0000
     12 H5         8.9630   -5.2038   12.1127 H         1 RES1    0.0000
     13 C8         7.7032   -4.9951   10.5828 C.ar      1 RES1    0.0000
     14 H6         8.0266   -4.1683   10.3073 H         1 RES1    0.0000
     15 C9         8.4593   -7.5073   13.3358 C.3       1 RES1    0.0000
     16 C10        8.6927   -6.5572   14.4526 C.3       1 RES1    0.0000
     17 H7         9.0844   -7.0195   15.1930 H         1 RES1    0.0000
     18 H8         7.8490   -6.1762   14.7253 H         1 RES1    0.0000
     19 H9         9.2753   -5.8544   14.1608 H         1 RES1    0.0000
     20 C11        9.7446   -8.1853   12.9431 C.3       1 RES1    0.0000
     21 H10       10.1380   -8.5968   13.7163 H         1 RES1    0.0000
     22 H11       10.3522   -7.5379   12.5804 H         1 RES1    0.0000
     23 H12        9.5620   -8.8582   12.2818 H         1 RES1    0.0000
     24 C12        7.5595   -8.7068   13.8717 C.3       1 RES1    0.0000
     25 H13        7.9810   -9.1069   14.6367 H         1 RES1    0.0000
     26 H14        7.4593   -9.3664   13.1818 H         1 RES1    0.0000
     27 H15        6.6952   -8.3723   14.1213 H         1 RES1    0.0000
     28 C13        6.0626   -0.9769    6.5138 C.2       1 RES1    0.0000
     29 C14        5.9419    0.2137    5.6439 C.ar      1 RES1    0.0000
     30 C15        4.8652    0.4121    4.8080 C.ar      1 RES1    0.0000
     31 H16        4.1878   -0.2232    4.7685 H         1 RES1    0.0000
     32 C16        4.7873    1.5537    4.0267 C.ar      1 RES1    0.0000
     33 H17        4.0577    1.7026    3.4703 H         1 RES1    0.0000
     34 C17        5.8191    2.4607    4.0989 C.ar      1 RES1    0.0000
     35 C18        6.9188    2.2832    4.8884 C.ar      1 RES1    0.0000
     36 H18        7.6113    2.9033    4.8925 H         1 RES1    0.0000
     37 C19        6.9673    1.1518    5.6821 C.ar      1 RES1    0.0000
     38 H19        7.6938    1.0176    6.2479 H         1 RES1    0.0000
     39 N1         5.3212   -2.8149    7.5488 N.am      1 RES1    0.0000
     40 N2         5.0464   -1.7223    6.7361 N.2       1 RES1    0.0000
     41 N3         5.7366    3.6983    3.2999 N.pl3     1 RES1    0.0000
     42 O1         3.1338   -3.4776    7.6156 O.2       1 RES1    0.0000
     43 O2         6.1354   -4.8826    8.8387 O.3       1 RES1    0.0000
     44 O3         4.6888    3.9139    2.7285 O.2       1 RES1    0.0000
     45 O4         6.6852    4.4278    3.2440 O.2       1 RES1    0.0000
     46 C20        9.3331   -8.5733   12.9268 Du        2 SUP2    0.0000
     47 H20        9.9400   -8.2502   12.2600 Du        2 SUP2    0.0000
     48 H21        8.8141   -9.2951   12.5763 Du        2 SUP2    0.0000
     49 H22        9.8330   -8.8798   13.6931 Du        2 SUP2    0.0000
     50 C21        7.4068   -7.7592   14.3313 Du        2 SUP2    0.0000
     51 H23        6.9183   -6.9286   14.4935 Du        2 SUP2    0.0000
     52 H24        7.7987   -8.0422   15.1590 Du        2 SUP2    0.0000
     53 H25        6.7962   -8.4156   14.0122 Du        2 SUP2    0.0000
     54 C22        9.3822   -6.2837   14.0313 Du        2 SUP2    0.0000
     55 H26        8.8093   -5.5364   14.2440 Du        2 SUP2    0.0000
     56 H27       10.0581   -6.0007   13.4190 Du        2 SUP2    0.0000
     57 H28        9.7872   -6.6074   14.8385 Du        2 SUP2    0.0000
     58 H29        6.2367   -3.0083    7.7724 H         1 RES1    0.0000
     59 H30        6.9059   -1.1639    7.0361 H         1 RES1    0.0000
@<TRIPOS>BOND
     1    1    2 1
     2    2    3 1
     3    4    2 1
     4    5    6 ar
     5    6    7 1
     6    8    6 ar
     7    9    8 1
     8   10    8 ar
     9   11   10 ar
    10   12   11 1
    11   13    5 ar
    12   14   13 1
    13   15   10 1
    14   16   15 1
    15   17   16 1
    16   18   16 1
    17   19   16 1
    18   20   15 1
    19   21   20 1
    20   22   20 1
    21   23   20 1
    22   24   15 1
    23   25   24 1
    24   26   24 1
    25   27   24 1
    26   28   29 1
    27   29   30 ar
    28   30   31 1
    29   32   30 ar
    30   33   32 1
    31   34   32 ar
    32   35   34 ar
    33   36   35 1
    34   37   29 ar
    35   38   37 1
    36   39    1 1
    37   40   28 2
    38   41   34 1
    39   42    1 2
    40   43    2 1
    41   44   41 2
    42   45   41 2
    43   58   39 1
    44   59   28 1
    45    5   43 1
    46   11   13 ar
    47   35   37 ar
    48   39   40 1
@<TRIPOS>SUBSTRUCTURE
     1 RES1 1
     2 SUP2 46

@<TRIPOS>CRYSIN
  10.5296    6.3600   14.3890  90.0000 108.6200  90.0000   7 2

