# MOL2 file generated by ConQuest
# Please check atom types

@<TRIPOS>MOLECULE
YEYFEO
    68    70     2
SMALL
NO_CHARGES
****
Generated from CSD

@<TRIPOS>ATOM
      1 C1        -1.1157   10.3187   11.3471 C.ar      1 RES1    0.0000
      2 C2        -2.4152    9.9592   11.5996 C.ar      1 RES1    0.0000
      3 H1        -2.6695    9.0657   11.6519 H         1 RES1    0.0000
      4 C3        -3.3315   10.9776   11.7735 C.ar      1 RES1    0.0000
      5 H2        -4.2229   10.7662   11.9344 H         1 RES1    0.0000
      6 C4        -2.9489   12.3047   11.7147 C.ar      1 RES1    0.0000
      7 H3        -3.5778   12.9759   11.8507 H         1 RES1    0.0000
      8 C5        -1.6165   12.6395   11.4492 C.ar      1 RES1    0.0000
      9 C6        -0.7008   11.6211   11.2765 C.ar      1 RES1    0.0000
     10 H4         0.1929   11.8186   11.1130 H         1 RES1    0.0000
     11 C7        -1.1293   14.0623   11.3798 C.2       1 RES1    0.0000
     12 C8        -2.0944   15.1532   11.4021 C.2       1 RES1    0.0000
     13 H5        -2.9976   14.9650   11.5237 H         1 RES1    0.0000
     14 C9        -1.6968   16.4217   11.2504 C.2       1 RES1    0.0000
     15 H6        -0.7865   16.5528   11.1170 H         1 RES1    0.0000
     16 C10       -2.5213   17.6207   11.2687 C.ar      1 RES1    0.0000
     17 C11       -3.9096   17.5759   11.4047 C.ar      1 RES1    0.0000
     18 H7        -4.3434   16.7550   11.4622 H         1 RES1    0.0000
     19 C12       -4.6421   18.7440   11.4531 C.ar      1 RES1    0.0000
     20 H8        -5.5676   18.7039   11.5355 H         1 RES1    0.0000
     21 C13       -4.0134   19.9723   11.3812 C.ar      1 RES1    0.0000
     22 C14       -2.6403   20.0356   11.2255 C.ar      1 RES1    0.0000
     23 H9        -2.2067   20.8565   11.1614 H         1 RES1    0.0000
     24 C15       -1.9290   18.8629   11.1667 C.ar      1 RES1    0.0000
     25 H10       -1.0076   18.9076   11.0529 H         1 RES1    0.0000
     26 C16       -4.2105   22.3533   11.4753 C.3       1 RES1    0.0000
     27 H11       -3.6190   22.3950   12.2313 H         1 RES1    0.0000
     28 H12       -4.8866   23.0292   11.5603 H         1 RES1    0.0000
     29 H13       -3.7099   22.4999   10.6697 H         1 RES1    0.0000
     30 C17        5.5195   13.7012   11.4178 C.ar      2 RES2    0.0000
     31 C18        4.1918   14.0592   11.4949 C.ar      2 RES2    0.0000
     32 H14        3.9384   14.9542   11.5028 H         2 RES2    0.0000
     33 C19        3.2520   13.0593   11.5590 C.ar      2 RES2    0.0000
     34 H15        2.3480   13.2722   11.5983 H         2 RES2    0.0000
     35 C20        3.6554   11.7276   11.5682 C.ar      2 RES2    0.0000
     36 H16        3.0150   11.0548   11.6113 H         2 RES2    0.0000
     37 C21        4.9964   11.3912   11.5119 C.ar      2 RES2    0.0000
     38 C22        5.9405   12.4065   11.4295 C.ar      2 RES2    0.0000
     39 H17        6.8461   12.2044   11.3825 H         2 RES2    0.0000
     40 C23        5.4802    9.9823   11.5224 C.2       2 RES2    0.0000
     41 C24        4.5412    8.8744   11.5983 C.2       2 RES2    0.0000
     42 H18        3.6484    9.0673   11.7735 H         2 RES2    0.0000
     43 C25        4.8833    7.6106   11.4322 C.2       2 RES2    0.0000
     44 H19        5.7877    7.4640   11.2687 H         2 RES2    0.0000
     45 C26        4.0627    6.4193   11.4649 C.ar      2 RES2    0.0000
     46 C27        2.6587    6.4486   11.6283 C.ar      2 RES2    0.0000
     47 H20        2.2262    7.2680   11.7107 H         2 RES2    0.0000
     48 C28        1.9235    5.2975   11.6663 C.ar      2 RES2    0.0000
     49 H21        1.0040    5.3391   11.7997 H         2 RES2    0.0000
     50 C29        2.5436    4.0614   11.5080 C.ar      2 RES2    0.0000
     51 C30        3.9007    3.9966   11.3354 C.ar      2 RES2    0.0000
     52 H22        4.3220    3.1742   11.2334 H         2 RES2    0.0000
     53 C31        4.6290    5.1555   11.3158 C.ar      2 RES2    0.0000
     54 H23        5.5489    5.0969   11.1954 H         2 RES2    0.0000
     55 C32        2.2950    1.7051   11.4962 C.3       2 RES2    0.0000
     56 H24        2.8153    1.6187   10.6945 H         2 RES2    0.0000
     57 H25        1.6082    1.0339   11.5041 H         2 RES2    0.0000
     58 H26        2.8632    1.5909   12.2614 H         2 RES2    0.0000
     59 N1        -0.1306    9.2247   11.1523 N.pl3     1 RES1    0.0000
     60 N2         6.5158   14.7814   11.3798 N.pl3     2 RES2    0.0000
     61 O1         1.0283    9.5379   10.8933 O.2       1 RES1    0.0000
     62 O2        -0.5153    8.0766   11.2661 O.2       1 RES1    0.0000
     63 O3         0.0732   14.2490   11.2974 O.2       1 RES1    0.0000
     64 O4        -4.8301   21.0602   11.4243 O.3       1 RES1    0.0000
     65 O5         7.6917   14.4650   11.2412 O.2       2 RES2    0.0000
     66 O6         6.1373   15.9387   11.4806 O.2       2 RES2    0.0000
     67 O7         6.6851    9.7539   11.4688 O.2       2 RES2    0.0000
     68 O8         1.6979    2.9936   11.5368 O.3       2 RES2    0.0000
@<TRIPOS>BOND
     1    1    2 ar
     2    2    3 1
     3    4    2 ar
     4    5    4 1
     5    6    4 ar
     6    7    6 1
     7    8    6 ar
     8    9    1 ar
     9   10    9 1
    10   11    8 1
    11   12   11 1
    12   13   12 1
    13   14   12 2
    14   15   14 1
    15   16   14 1
    16   17   16 ar
    17   18   17 1
    18   19   17 ar
    19   20   19 1
    20   21   19 ar
    21   22   21 ar
    22   23   22 1
    23   24   16 ar
    24   25   24 1
    25   26   27 1
    26   28   26 1
    27   29   26 1
    28   30   31 ar
    29   31   32 1
    30   33   31 ar
    31   34   33 1
    32   35   33 ar
    33   36   35 1
    34   37   35 ar
    35   38   30 ar
    36   39   38 1
    37   40   37 1
    38   41   40 1
    39   42   41 1
    40   43   41 2
    41   44   43 1
    42   45   43 1
    43   46   45 ar
    44   47   46 1
    45   48   46 ar
    46   49   48 1
    47   50   48 ar
    48   51   50 ar
    49   52   51 1
    50   53   45 ar
    51   54   53 1
    52   55   56 1
    53   57   55 1
    54   58   55 1
    55   59    1 1
    56   60   30 1
    57   61   59 2
    58   62   59 2
    59   63   11 2
    60   64   21 1
    61   65   60 2
    62   66   60 2
    63   67   40 2
    64   68   50 1
    65    8    9 ar
    66   22   24 ar
    67   26   64 1
    68   37   38 ar
    69   51   53 ar
    70   55   68 1
@<TRIPOS>SUBSTRUCTURE
     1 RES1 1
     2 RES2 30

@<TRIPOS>CRYSIN
  13.2520   15.4310   13.9740  90.0000 110.6200  90.0000  14 1

