# MOL2 file generated by ConQuest
# Please check atom types

@<TRIPOS>MOLECULE
YEYMAR
    20    20     1
SMALL
NO_CHARGES
****
Generated from CSD

@<TRIPOS>ATOM
      1 O1        10.2152    5.2216   14.8893 O.2       1 RES1    0.0000
      2 O2         8.1029    5.1975   14.7295 O.2       1 RES1    0.0000
      3 O3        10.5118    0.5490    8.0819 O.3       1 RES1    0.0000
      4 H1        11.0981   -0.0241    8.0623 H         1 RES1    0.0000
      5 N1         9.2167    4.9082   14.3158 N.pl3     1 RES1    0.0000
      6 N2         8.7549    2.3631    8.3895 N.pl3     1 RES1    0.0000
      7 H2         8.7809    1.8857    7.6750 H         1 RES1    0.0000
      8 H3         8.1583    2.9759    8.4759 H         1 RES1    0.0000
      9 N3        10.5740    1.2519    9.3239 N.2       1 RES1    0.0000
     10 C1        10.6680    3.3375   11.2981 C.ar      1 RES1    0.0000
     11 H4        11.5034    3.1726   10.9240 H         1 RES1    0.0000
     12 C2        10.5899    3.9922   12.4977 C.ar      1 RES1    0.0000
     13 H5        11.3540    4.2791   12.9433 H         1 RES1    0.0000
     14 C3         9.3277    4.2091   13.0166 C.ar      1 RES1    0.0000
     15 C4         8.1696    3.8095   12.3792 C.ar      1 RES1    0.0000
     16 H6         7.3342    3.9798   12.7515 H         1 RES1    0.0000
     17 C5         8.2896    3.1547   11.1815 C.ar      1 RES1    0.0000
     18 H7         7.5244    2.8701   10.7359 H         1 RES1    0.0000
     19 C6         9.5280    2.9137   10.6307 C.ar      1 RES1    0.0000
     20 C7         9.6458    2.1508    9.3690 C.2       1 RES1    0.0000
@<TRIPOS>BOND
     1    1    5 2
     2    2    5 2
     3    3    4 1
     4    5   14 1
     5    6    7 1
     6    8    6 1
     7    9    3 1
     8   10   11 1
     9   12   10 ar
    10   13   12 1
    11   14   12 ar
    12   15   14 ar
    13   16   15 1
    14   17   15 ar
    15   18   17 1
    16   19   10 ar
    17   20    6 1
    18    9   20 2
    19   17   19 ar
    20   19   20 1
@<TRIPOS>SUBSTRUCTURE
     1 RES1 1

@<TRIPOS>CRYSIN
  11.3200    7.7760   18.8020  90.0000  90.0000  90.0000  61 1

