# MOL2 file generated by ConQuest
# Please check atom types

@<TRIPOS>MOLECULE
YEYVON
    54    60     2
SMALL
NO_CHARGES
****
Generated from CSD

@<TRIPOS>ATOM
      1 C1        15.5802   17.3976    0.0959 C.3       1 RES1    0.0000
      2 C2        16.2421   18.2060    1.2084 C.3       1 RES1    0.0000
      3 C3        17.2254   17.2649    1.8580 C.2       1 RES1    0.0000
      4 C4        16.9934   15.8485    1.3762 C.3       1 RES1    0.0000
      5 C5        15.7663   15.9149    0.4592 C.3       1 RES1    0.0000
      6 C6        15.9117   15.1733   -0.8683 C.3       1 RES1    0.0000
      7 N1        16.2761   16.2224   -1.8275 N.am      1 RES1    0.0000
      8 C7        16.3436   17.5618   -1.2418 C.3       1 RES1    0.0000
      9 C8        17.8028   17.9906   -1.0790 C.3       1 RES1    0.0000
     10 C9        17.9909   19.3055   -0.2863 C.3       1 RES1    0.0000
     11 C10       16.8568   19.5228    0.7259 C.3       1 RES1    0.0000
     12 C11       14.1015   17.7445   -0.1032 C.3       1 RES1    0.0000
     13 O1        18.0891   17.5917    2.6413 O.2       1 RES1    0.0000
     14 C12       16.4203   16.0713   -3.1477 C.2       1 RES1    0.0000
     15 O2        16.5853   17.0072   -3.9194 O.2       1 RES1    0.0000
     16 C13       16.3761   14.6640   -3.7021 C.ar      1 RES1    0.0000
     17 C14       17.3201   13.7104   -3.3316 C.ar      1 RES1    0.0000
     18 C15       17.3184   12.4637   -3.9572 C.ar      1 RES1    0.0000
     19 C16       16.3846   12.2106   -4.9265 C.ar      1 RES1    0.0000
     20 C17       15.4374   13.1261   -5.2862 C.ar      1 RES1    0.0000
     21 C18       15.4375   14.3674   -4.6780 C.ar      1 RES1    0.0000
     22 N2        16.4092   10.9054   -5.5986 N.pl3     1 RES1    0.0000
     23 O3        17.2728   10.1081   -5.3000 O.2       1 RES1    0.0000
     24 O4        15.5476   10.6741   -6.4306 O.2       1 RES1    0.0000
     25 C19       18.2121   20.5453   -1.1699 C.3       1 RES1    0.0000
     26 C20       17.1424   20.7540   -2.2126 C.3       1 RES1    0.0000
     27 C21       19.6072   20.5205   -1.7998 C.3       1 RES1    0.0000
     28 C22        8.9565   14.7826    5.7207 C.3       2 RES2    0.0000
     29 C23        7.6146   14.1390    5.3138 C.3       2 RES2    0.0000
     30 C24        6.5808   14.8200    6.1916 C.2       2 RES2    0.0000
     31 C25        7.1681   16.0733    6.8157 C.3       2 RES2    0.0000
     32 C26        8.5796   16.2089    6.2199 C.3       2 RES2    0.0000
     33 C27        8.6633   17.1021    4.9919 C.3       2 RES2    0.0000
     34 N3         9.5736   16.3934    4.0669 N.am      2 RES2    0.0000
     35 C28        9.8702   15.0061    4.5181 C.3       2 RES2    0.0000
     36 C29        9.6954   13.9140    3.4776 C.3       2 RES2    0.0000
     37 C30        8.2844   13.7954    2.8709 C.3       2 RES2    0.0000
     38 C31        7.2286   14.3539    3.8402 C.3       2 RES2    0.0000
     39 C32        9.6285   13.9582    6.8041 C.3       2 RES2    0.0000
     40 O5         5.4529   14.4327    6.3681 O.2       2 RES2    0.0000
     41 C33       10.3994   16.9572    3.1724 C.2       2 RES2    0.0000
     42 O6        11.2917   16.3275    2.6209 O.2       2 RES2    0.0000
     43 C34       10.2298   18.4042    2.8164 C.ar      2 RES2    0.0000
     44 C35        9.0156   19.0009    2.5621 C.ar      2 RES2    0.0000
     45 C36        8.9380   20.3152    2.1188 C.ar      2 RES2    0.0000
     46 C37       10.1228   20.9985    1.9510 C.ar      2 RES2    0.0000
     47 C38       11.3404   20.4586    2.2104 C.ar      2 RES2    0.0000
     48 C39       11.4053   19.1394    2.6282 C.ar      2 RES2    0.0000
     49 N4        10.0291   22.3972    1.4591 N.pl3     2 RES2    0.0000
     50 O7         8.9536   22.8455    1.1895 O.2       2 RES2    0.0000
     51 O8        11.0879   23.0038    1.3217 O.2       2 RES2    0.0000
     52 C40        7.9917   12.3295    2.4720 C.3       2 RES2    0.0000
     53 C41        9.1557   11.7138    1.6727 C.3       2 RES2    0.0000
     54 C42        6.7056   12.2204    1.6531 C.3       2 RES2    0.0000
@<TRIPOS>BOND
     1    1    2 1
     2    2    3 1
     3    3    4 1
     4    4    5 1
     5    5    1 1
     6    6    5 1
     7    7    6 1
     8    8    1 1
     9    9    8 1
    10   10    9 1
    11   11    2 1
    12   12    1 1
    13   13    3 2
    14   14    7 1
    15   15   14 2
    16   16   14 1
    17   17   16 ar
    18   18   17 ar
    19   19   18 ar
    20   20   19 ar
    21   21   16 ar
    22   22   19 1
    23   23   22 2
    24   24   22 2
    25   25   10 1
    26   26   25 1
    27   27   25 1
    28   28   29 1
    29   29   30 1
    30   30   31 1
    31   31   32 1
    32   32   28 1
    33   33   32 1
    34   34   33 1
    35   35   28 1
    36   36   35 1
    37   37   36 1
    38   38   29 1
    39   39   28 1
    40   40   30 2
    41   41   34 1
    42   42   41 2
    43   43   41 1
    44   44   43 ar
    45   45   44 ar
    46   46   45 ar
    47   47   46 ar
    48   48   43 ar
    49   49   46 1
    50   50   49 2
    51   51   49 2
    52   52   37 1
    53   53   52 1
    54   54   52 1
    55    7    8 1
    56   10   11 1
    57   20   21 ar
    58   34   35 1
    59   37   38 1
    60   47   48 ar
@<TRIPOS>SUBSTRUCTURE
     1 RES1 1
     2 RES2 28

@<TRIPOS>CRYSIN
  12.0850   22.5570    7.5500  96.9500 105.3200  76.9200   2 1

