# MOL2 file generated by ConQuest
# Please check atom types

@<TRIPOS>MOLECULE
YEYVOP
    49    50     1
SMALL
NO_CHARGES
****
Generated from CSD

@<TRIPOS>ATOM
      1 C1        10.0030    4.7030    2.6168 C.3       1 RES1    0.0000
      2 C2         9.5593    4.4408    4.0728 C.3       1 RES1    0.0000
      3 H1        10.1619    4.9314    4.6862 H         1 RES1    0.0000
      4 H2         8.6451    4.7941    4.2004 H         1 RES1    0.0000
      5 C3         9.5773    2.9682    4.4339 C.3       1 RES1    0.0000
      6 H3         9.1996    2.8494    5.3418 H         1 RES1    0.0000
      7 H4        10.5126    2.6450    4.4475 H         1 RES1    0.0000
      8 C4         8.7650    2.1375    3.4315 C.3       1 RES1    0.0000
      9 H5         7.8117    2.3997    3.4766 H         1 RES1    0.0000
     10 H6         8.8339    1.1771    3.6628 H         1 RES1    0.0000
     11 C5         9.3046    2.3689    1.9958 C.3       1 RES1    0.0000
     12 H7        10.2458    2.0657    1.9395 H         1 RES1    0.0000
     13 H8         8.7710    1.8420    1.3501 H         1 RES1    0.0000
     14 C6         9.2236    3.8191    1.6527 C.3       1 RES1    0.0000
     15 H9         8.2734    4.0975    1.6564 H         1 RES1    0.0000
     16 H10        9.5743    3.9533    0.7366 H         1 RES1    0.0000
     17 C7         9.8231    6.1864    2.3480 C.3       1 RES1    0.0000
     18 H11        8.8729    6.4255    2.4862 H         1 RES1    0.0000
     19 H12       10.3627    6.6993    3.0005 H         1 RES1    0.0000
     20 C8         9.2356    6.8629    0.1502 C.2       1 RES1    0.0000
     21 C9         9.7992    7.4345   -1.1601 C.3       1 RES1    0.0000
     22 H13        9.1097    7.3920   -1.8569 H         1 RES1    0.0000
     23 H14       10.5785    6.9092   -1.4379 H         1 RES1    0.0000
     24 H15       10.0659    8.3671   -1.0212 H         1 RES1    0.0000
     25 C10       13.4832    4.7894    2.9592 C.2       1 RES1    0.0000
     26 H16       13.6541    4.0775    2.3540 H         1 RES1    0.0000
     27 C11       14.6073    5.4420    3.5434 C.ar      1 RES1    0.0000
     28 C12       15.8513    4.8465    3.5517 C.ar      1 RES1    0.0000
     29 C13       17.0174    5.4544    3.9857 C.ar      1 RES1    0.0000
     30 H17       17.8417    4.9831    4.0120 H         1 RES1    0.0000
     31 C14       16.9304    6.8127    4.3896 C.ar      1 RES1    0.0000
     32 H18       17.7128    7.2779    4.6682 H         1 RES1    0.0000
     33 C15       15.7134    7.4545    4.3776 C.ar      1 RES1    0.0000
     34 H19       15.6685    8.3532    4.6817 H         1 RES1    0.0000
     35 C16       14.5713    6.8583    3.9496 C.ar      1 RES1    0.0000
     36 C17       17.1073    2.8903    2.9217 C.3       1 RES1    0.0000
     37 H20       17.6259    3.4303    2.2894 H         1 RES1    0.0000
     38 H21       16.9724    1.9940    2.5500 H         1 RES1    0.0000
     39 H22       17.5959    2.8217    3.7694 H         1 RES1    0.0000
     40 C18       13.3123    8.8661    4.0983 C.3       1 RES1    0.0000
     41 H23       13.5402    9.0705    5.0294 H         1 RES1    0.0000
     42 H24       12.4071    9.1932    3.9031 H         1 RES1    0.0000
     43 H25       13.9538    9.3035    3.5014 H         1 RES1    0.0000
     44 N1        12.2722    5.0903    3.1890 N.2       1 RES1    0.0000
     45 O1        10.2248    6.5782    0.9761 O.3       1 RES1    0.0000
     46 O2         8.0695    6.7796    0.3777 O.2       1 RES1    0.0000
     47 O3        11.3819    4.3035    2.4118 O.3       1 RES1    0.0000
     48 O4        15.8303    3.5144    3.1514 O.3       1 RES1    0.0000
     49 O5        13.3603    7.4283    3.8926 O.3       1 RES1    0.0000
@<TRIPOS>BOND
     1    1    2 1
     2    2    3 1
     3    4    2 1
     4    5    2 1
     5    6    5 1
     6    7    5 1
     7    8    5 1
     8    9    8 1
     9   10    8 1
    10   11    8 1
    11   12   11 1
    12   13   11 1
    13   14    1 1
    14   15   14 1
    15   16   14 1
    16   17    1 1
    17   18   17 1
    18   19   17 1
    19   20   21 1
    20   21   22 1
    21   23   21 1
    22   24   21 1
    23   25   26 1
    24   27   25 1
    25   28   27 ar
    26   29   28 ar
    27   30   29 1
    28   31   29 ar
    29   32   31 1
    30   33   31 ar
    31   34   33 1
    32   35   27 ar
    33   36   37 1
    34   38   36 1
    35   39   36 1
    36   40   41 1
    37   42   40 1
    38   43   40 1
    39   44   25 2
    40   45   17 1
    41   46   20 2
    42   47    1 1
    43   48   28 1
    44   49   35 1
    45   11   14 1
    46   20   45 1
    47   33   35 ar
    48   36   48 1
    49   40   49 1
    50   44   47 1
@<TRIPOS>SUBSTRUCTURE
     1 RES1 1

@<TRIPOS>CRYSIN
  29.9760    7.7137    7.5088  90.0000  90.0000  90.0000  29 1

