# MOL2 file generated by ConQuest
# Please check atom types

@<TRIPOS>MOLECULE
YEYVIJ
   104   106     2
SMALL
NO_CHARGES
****
Generated from CSD

@<TRIPOS>ATOM
      1 O1         1.0398   11.8779    5.1242 O.3       1 RES1    0.0000
      2 O2         0.3911   12.6201    0.7436 O.3       1 RES1    0.0000
      3 O3         3.9713   14.1490    3.3522 O.3       1 RES1    0.0000
      4 N1         1.8768   12.7516    4.3723 N.2       1 RES1    0.0000
      5 C1         1.3325   12.0302    6.5269 C.3       1 RES1    0.0000
      6 H1         2.3226   12.0830    6.6531 H         1 RES1    0.0000
      7 C2         0.8040   10.7593    7.2113 C.3       1 RES1    0.0000
      8 H2         1.1057   10.7960    8.1632 H         1 RES1    0.0000
      9 C3        -0.7285   10.7481    7.2312 C.3       1 RES1    0.0000
     10 H3        -1.0634   10.6186    6.3093 H         1 RES1    0.0000
     11 H4        -1.0389    9.9823    7.7778 H         1 RES1    0.0000
     12 C4        -1.3175   12.0350    7.7977 C.3       1 RES1    0.0000
     13 H5        -2.3056   11.9902    7.7495 H         1 RES1    0.0000
     14 H6        -1.0624   12.1181    8.7512 H         1 RES1    0.0000
     15 C5        -0.8350   13.2628    7.0402 C.3       1 RES1    0.0000
     16 H7        -1.1184   13.1685    6.0867 H         1 RES1    0.0000
     17 C6         0.6932   13.2916    7.0801 C.3       1 RES1    0.0000
     18 H8         1.0132   14.0686    6.5568 H         1 RES1    0.0000
     19 H9         0.9883   13.4179    8.0170 H         1 RES1    0.0000
     20 C7         1.3877    9.4723    6.6116 C.3       1 RES1    0.0000
     21 H10        1.0629    9.4036    5.6680 H         1 RES1    0.0000
     22 C8         2.9178    9.4867    6.5734 C.3       1 RES1    0.0000
     23 H11        3.2655    9.6402    7.4771 H         1 RES1    0.0000
     24 H12        3.2229   10.2045    5.9804 H         1 RES1    0.0000
     25 H13        3.2448    8.6250    6.2395 H         1 RES1    0.0000
     26 C9         0.9011    8.2301    7.3592 C.3       1 RES1    0.0000
     27 H14       -0.0643    8.1262    7.2263 H         1 RES1    0.0000
     28 H15        1.0910    8.3292    8.3143 H         1 RES1    0.0000
     29 H16        1.3649    7.4388    7.0136 H         1 RES1    0.0000
     30 C10       -1.4491   14.5418    7.5917 C.3       1 RES1    0.0000
     31 H17       -1.0869   15.3123    7.1067 H         1 RES1    0.0000
     32 H18       -1.2330   14.6233    8.5436 H         1 RES1    0.0000
     33 H19       -2.4218   14.5114    7.4771 H         1 RES1    0.0000
     34 C11        1.5468   12.6745    3.1330 C.2       1 RES1    0.0000
     35 H20        0.8003   12.1261    2.9204 H         1 RES1    0.0000
     36 C12        2.2098   13.3475    2.0267 C.ar      1 RES1    0.0000
     37 C13        1.6077   13.2500    0.7608 C.ar      1 RES1    0.0000
     38 C14        2.2090   13.7744   -0.3738 C.ar      1 RES1    0.0000
     39 H21        1.8022   13.6721   -1.2260 H         1 RES1    0.0000
     40 C15        3.4115   14.4506   -0.2475 C.ar      1 RES1    0.0000
     41 H22        3.8269   14.8136   -1.0200 H         1 RES1    0.0000
     42 C16        4.0097   14.6041    0.9751 C.ar      1 RES1    0.0000
     43 H23        4.8243   15.0885    1.0449 H         1 RES1    0.0000
     44 C17        3.4332   14.0590    2.1097 C.ar      1 RES1    0.0000
     45 C18       -0.2663   12.4842   -0.5249 C.3       1 RES1    0.0000
     46 H24        0.2963   11.9567   -1.1296 H         1 RES1    0.0000
     47 H25       -0.4180   13.3715   -0.9103 H         1 RES1    0.0000
     48 H26       -1.1260   12.0302   -0.4004 H         1 RES1    0.0000
     49 C19        5.2163   14.8567    3.4537 C.3       1 RES1    0.0000
     50 H27        5.1065   15.7632    3.0982 H         1 RES1    0.0000
     51 H28        5.9030   14.3835    2.9403 H         1 RES1    0.0000
     52 H29        5.4880   14.9047    4.3939 H         1 RES1    0.0000
     53 O4         3.7400   10.9557   -2.7350 O.3       2 RES2    0.0000
     54 O5         0.5013    9.2624   -0.8987 O.3       2 RES2    0.0000
     55 O6         4.1843   10.5215    1.7057 O.3       2 RES2    0.0000
     56 N2         2.7783   10.2649   -1.9343 N.2       2 RES2    0.0000
     57 C20        3.2860   10.9751   -4.1015 C.3       2 RES2    0.0000
     58 H30        2.8459   10.1038   -4.3158 H         2 RES2    0.0000
     59 C21        4.5348   11.1461   -4.9853 C.3       2 RES2    0.0000
     60 H31        4.2280   11.0966   -5.9355 H         2 RES2    0.0000
     61 C22        5.1314   12.5434   -4.7810 C.3       2 RES2    0.0000
     62 H32        5.5063   12.6026   -3.8656 H         2 RES2    0.0000
     63 H33        5.8741   12.6745   -5.4222 H         2 RES2    0.0000
     64 C23        4.1036   13.6593   -4.9737 C.3       2 RES2    0.0000
     65 H34        3.8129   13.6737   -5.9189 H         2 RES2    0.0000
     66 H35        4.5285   14.5306   -4.7727 H         2 RES2    0.0000
     67 C24        2.8788   13.4786   -4.0733 C.3       2 RES2    0.0000
     68 H36        3.1901   13.5266   -3.1247 H         2 RES2    0.0000
     69 C25        2.2815   12.1054   -4.2909 C.3       2 RES2    0.0000
     70 H37        1.9132   12.0558   -5.2079 H         2 RES2    0.0000
     71 H38        1.5317   11.9775   -3.6580 H         2 RES2    0.0000
     72 C26        5.5923   10.0254   -4.7893 C.3       2 RES2    0.0000
     73 H39        6.0843   10.2237   -3.9420 H         2 RES2    0.0000
     74 C27        6.6148   10.0159   -5.9172 C.3       2 RES2    0.0000
     75 H40        6.1770    9.7521   -6.7528 H         2 RES2    0.0000
     76 H41        7.3279    9.3780   -5.7063 H         2 RES2    0.0000
     77 H42        6.9988   10.9127   -6.0186 H         2 RES2    0.0000
     78 C28        4.9731    8.6394   -4.6447 C.3       2 RES2    0.0000
     79 H43        5.6846    7.9695   -4.5733 H         2 RES2    0.0000
     80 H44        4.4206    8.4459   -5.4305 H         2 RES2    0.0000
     81 H45        4.4163    8.6138   -3.8391 H         2 RES2    0.0000
     82 C29        1.8386   14.5769   -4.2760 C.3       2 RES2    0.0000
     83 H46        1.1159   14.4682   -3.6248 H         2 RES2    0.0000
     84 H47        1.4723   14.5162   -5.1830 H         2 RES2    0.0000
     85 H48        2.2607   15.4530   -4.1530 H         2 RES2    0.0000
     86 C30        3.0392   10.4843   -0.7077 C.2       2 RES2    0.0000
     87 H49        3.7382   11.0966   -0.5117 H         2 RES2    0.0000
     88 C31        2.3392    9.8608    0.4303 C.ar      2 RES2    0.0000
     89 C32        1.0666    9.2405    0.3356 C.ar      2 RES2    0.0000
     90 C33        0.4836    8.6586    1.4519 C.ar      2 RES2    0.0000
     91 H50       -0.3582    8.2269    1.3738 H         2 RES2    0.0000
     92 C34        1.1180    8.7081    2.6662 C.ar      2 RES2    0.0000
     93 H51        0.7055    8.3132    3.4254 H         2 RES2    0.0000
     94 C35        2.3598    9.3252    2.8025 C.ar      2 RES2    0.0000
     95 H52        2.7931    9.3540    3.6464 H         2 RES2    0.0000
     96 C36        2.9559    9.8976    1.6861 C.ar      2 RES2    0.0000
     97 C37       -0.8427    8.8104   -0.9984 C.3       2 RES2    0.0000
     98 H53       -1.3811    9.2293   -0.2957 H         2 RES2    0.0000
     99 H54       -0.8682    7.8368   -0.8937 H         2 RES2    0.0000
    100 H55       -1.2039    9.0550   -1.8772 H         2 RES2    0.0000
    101 C38        4.7709   10.7784    2.9702 C.3       2 RES2    0.0000
    102 H56        4.9596    9.9295    3.4221 H         2 RES2    0.0000
    103 H57        4.1520   11.3076    3.5151 H         2 RES2    0.0000
    104 H58        5.6062   11.2772    2.8473 H         2 RES2    0.0000
@<TRIPOS>BOND
     1    1    4 1
     2    2   37 1
     3    3   44 1
     4    4   34 2
     5    5    1 1
     6    6    5 1
     7    7    5 1
     8    8    7 1
     9    9    7 1
    10   10    9 1
    11   11    9 1
    12   12    9 1
    13   13   12 1
    14   14   12 1
    15   15   12 1
    16   16   15 1
    17   17    5 1
    18   18   17 1
    19   19   17 1
    20   20    7 1
    21   21   20 1
    22   22   20 1
    23   23   22 1
    24   24   22 1
    25   25   22 1
    26   26   20 1
    27   27   26 1
    28   28   26 1
    29   29   26 1
    30   30   15 1
    31   31   30 1
    32   32   30 1
    33   33   30 1
    34   34   35 1
    35   36   34 1
    36   37   36 ar
    37   38   37 ar
    38   39   38 1
    39   40   38 ar
    40   41   40 1
    41   42   40 ar
    42   43   42 1
    43   44   36 ar
    44   45    2 1
    45   46   45 1
    46   47   45 1
    47   48   45 1
    48   49    3 1
    49   50   49 1
    50   51   49 1
    51   52   49 1
    52   53   56 1
    53   54   89 1
    54   55   96 1
    55   56   86 2
    56   57   53 1
    57   58   57 1
    58   59   57 1
    59   60   59 1
    60   61   59 1
    61   62   61 1
    62   63   61 1
    63   64   61 1
    64   65   64 1
    65   66   64 1
    66   67   64 1
    67   68   67 1
    68   69   57 1
    69   70   69 1
    70   71   69 1
    71   72   59 1
    72   73   72 1
    73   74   72 1
    74   75   74 1
    75   76   74 1
    76   77   74 1
    77   78   72 1
    78   79   78 1
    79   80   78 1
    80   81   78 1
    81   82   67 1
    82   83   82 1
    83   84   82 1
    84   85   82 1
    85   86   87 1
    86   88   86 1
    87   89   88 ar
    88   90   89 ar
    89   91   90 1
    90   92   90 ar
    91   93   92 1
    92   94   92 ar
    93   95   94 1
    94   96   88 ar
    95   97   54 1
    96   98   97 1
    97   99   97 1
    98  100   97 1
    99  101   55 1
   100  102  101 1
   101  103  101 1
   102  104  101 1
   103   15   17 1
   104   42   44 ar
   105   67   69 1
   106   94   96 ar
@<TRIPOS>SUBSTRUCTURE
     1 RES1 1
     2 RES2 53

@<TRIPOS>CRYSIN
   6.8937   15.9870   16.9780  90.0000 101.9170  90.0000   4 1

