# MOL2 file generated by ConQuest
# Please check atom types

@<TRIPOS>MOLECULE
YIBGIZ
    29    30     1
SMALL
NO_CHARGES
****
Generated from CSD

@<TRIPOS>ATOM
      1 O1         2.4063    0.5844    1.1247 O.3       1 RES1    0.0000
      2 O2         0.1109   -1.3582    0.7659 O.2       1 RES1    0.0000
      3 O3        -2.9525    1.0041    2.1620 O.3       1 RES1    0.0000
      4 N1        -1.9643    0.2112    1.5873 N.2       1 RES1    0.0000
      5 C1         1.5958    0.7572    3.3480 C.3       1 RES1    0.0000
      6 C2         1.7075   -0.1735    2.1375 C.3       1 RES1    0.0000
      7 C3         0.2846   -0.5046    1.6059 C.2       1 RES1    0.0000
      8 C4        -0.8467    0.2964    2.2050 C.2       1 RES1    0.0000
      9 C5        -0.5013    1.1476    3.3880 C.3       1 RES1    0.0000
     10 C6         0.4551    0.3622    4.3497 C.3       1 RES1    0.0000
     11 C7         0.7372    1.9863    2.9518 C.3       1 RES1    0.0000
     12 C8         0.1281   -1.0981    4.6470 C.3       1 RES1    0.0000
     13 C9         0.6295    1.1089    5.6798 C.3       1 RES1    0.0000
     14 C10        2.4818   -1.4585    2.3944 C.3       1 RES1    0.0000
     15 H1         2.4977    0.9181    3.7014 H         1 RES1    0.0000
     16 H2         2.1565    0.3050    0.3506 H         1 RES1    0.0000
     17 H3        -3.7213    0.7888    1.6707 H         1 RES1    0.0000
     18 H4        -1.2739    1.6013    3.7943 H         1 RES1    0.0000
     19 H5         0.8677    2.7565    3.5667 H         1 RES1    0.0000
     20 H6         0.7743    2.2748    1.9889 H         1 RES1    0.0000
     21 H7        -0.6599   -1.1466    5.2583 H         1 RES1    0.0000
     22 H8        -0.0450   -1.6563    3.8036 H         1 RES1    0.0000
     23 H9         0.8950   -1.5410    5.1283 H         1 RES1    0.0000
     24 H10        1.4160    0.8211    6.1465 H         1 RES1    0.0000
     25 H11       -0.1205    1.0162    6.2696 H         1 RES1    0.0000
     26 H12        0.7628    2.0776    5.5254 H         1 RES1    0.0000
     27 H13        3.3894   -1.2576    2.6820 H         1 RES1    0.0000
     28 H14        2.5365   -1.9752    1.5198 H         1 RES1    0.0000
     29 H15        2.0537   -2.0000    3.0489 H         1 RES1    0.0000
@<TRIPOS>BOND
     1    1    6 1
     2    2    7 2
     3    3    4 1
     4    4    8 2
     5    5    6 1
     6    6    7 1
     7    7    8 1
     8    8    9 1
     9    9   10 1
    10   10    5 1
    11   11    5 1
    12   12   10 1
    13   13   10 1
    14   14    6 1
    15   15    5 1
    16   16    1 1
    17   17    3 1
    18   18    9 1
    19   19   11 1
    20   20   11 1
    21   21   12 1
    22   22   12 1
    23   23   12 1
    24   24   13 1
    25   25   13 1
    26   26   13 1
    27   27   14 1
    28   28   14 1
    29   29   14 1
    30    9   11 1
@<TRIPOS>SUBSTRUCTURE
     1 RES1 1

@<TRIPOS>CRYSIN
   7.8380   10.7760   12.0250  90.0000 105.0900  90.0000  14 1

