# MOL2 file generated by ConQuest
# Please check atom types

@<TRIPOS>MOLECULE
YIBWUE
   169   184     2
SMALL
NO_CHARGES
****
Generated from CSD

@<TRIPOS>ATOM
      1 O1         8.5361   14.4504    2.7777 O.3       1 RES1    0.0000
      2 O2         2.3534    9.6293   -0.3272 O.2       1 RES1    0.0000
      3 O3         6.9337   12.2178    1.7424 O.3       1 RES1    0.0000
      4 O4         4.4577   12.3304    0.5857 O.3       1 RES1    0.0000
      5 O5         6.8531   12.5889   10.0166 O.3       1 RES1    0.0000
      6 O6         6.7615    7.3171    5.5537 O.2       1 RES1    0.0000
      7 O7         2.9015   15.3300    1.6370 O.3       1 RES1    0.0000
      8 O8         0.7450   13.2070    7.7096 O.3       1 RES1    0.0000
      9 O9         1.7325    8.3259    3.4697 O.2       1 RES1    0.0000
     10 O10        4.8096   10.4416    9.6105 O.3       1 RES1    0.0000
     11 O11        2.2679   10.9441    9.0600 O.3       1 RES1    0.0000
     12 O12        1.9920   11.0412    1.2742 O.2       1 RES1    0.0000
     13 N1         5.2015   16.8341    4.3210 N.2       1 RES1    0.0000
     14 N2         4.3193   15.5567    8.0790 N.2       1 RES1    0.0000
     15 N3         2.7142   10.2474    0.6775 N.pl3     1 RES1    0.0000
     16 N4         6.7591   15.8928    6.5912 N.pl3     1 RES1    0.0000
     17 N5         3.3425    6.8459    2.7194 N.am      1 RES1    0.0000
     18 N6         5.5440    6.7365    3.6775 N.am      1 RES1    0.0000
     19 N7         2.7455   16.5120    5.8165 N.pl3     1 RES1    0.0000
     20 N8         2.7064    6.7550    4.8391 N.am      1 RES1    0.0000
     21 N9         4.8643    5.9866    5.6440 N.am      1 RES1    0.0000
     22 C1         8.8851   16.6300    3.5478 C.ar      1 RES1    0.0000
     23 C2         6.3555   17.4834    2.4563 C.2       1 RES1    0.0000
     24 H1         7.0790   17.6756    1.8708 H         1 RES1    0.0000
     25 C3         6.5727    9.8661    2.2923 C.ar      1 RES1    0.0000
     26 H2         7.4191    9.8022    2.7196 H         1 RES1    0.0000
     27 C4         6.1663   11.0910    1.7746 C.ar      1 RES1    0.0000
     28 C5         7.4340   13.5957   10.7395 C.ar      1 RES1    0.0000
     29 C6         4.8906   11.1861    1.2145 C.ar      1 RES1    0.0000
     30 C7         9.0181   15.6547    6.3169 C.2       1 RES1    0.0000
     31 H3         9.8751   15.6413    5.9069 H         1 RES1    0.0000
     32 C8         0.8585   18.7754    0.6217 C.ar      1 RES1    0.0000
     33 H4         0.3789   19.5698    0.4157 H         1 RES1    0.0000
     34 C9         4.3062   17.2595    3.3702 C.2       1 RES1    0.0000
     35 C10        2.1906   16.9039    4.6174 C.2       1 RES1    0.0000
     36 C11        0.7556   16.8539    4.7367 C.2       1 RES1    0.0000
     37 H5         0.1277   17.0775    4.0592 H         1 RES1    0.0000
     38 C12       10.4252   15.7262    1.9170 C.ar      1 RES1    0.0000
     39 H6        10.6970   15.0147    1.3492 H         1 RES1    0.0000
     40 C13        4.3431    6.0091    3.3278 C.3       1 RES1    0.0000
     41 C14        2.2323   16.4476    1.2299 C.ar      1 RES1    0.0000
     42 C15        2.7430    7.8720    7.0502 C.ar      1 RES1    0.0000
     43 C16        4.0311    7.5294    7.4602 C.ar      1 RES1    0.0000
     44 C17        4.6675    4.7742    2.5040 C.ar      1 RES1    0.0000
     45 C18       10.7667   17.9506    2.7543 C.ar      1 RES1    0.0000
     46 H7        11.2732   18.7532    2.7774 H         1 RES1    0.0000
     47 C19        2.1502    9.0175    7.5680 C.ar      1 RES1    0.0000
     48 H8         1.2622    9.2361    7.3120 H         1 RES1    0.0000
     49 C20        5.8115    6.7560    5.0100 C.2       1 RES1    0.0000
     50 C21        3.6264    7.5800    1.4820 C.3       1 RES1    0.0000
     51 H9         2.7671    7.8562    1.0778 H         1 RES1    0.0000
     52 H10        4.0686    6.9620    0.8469 H         1 RES1    0.0000
     53 C22        7.9608   15.9309   10.8881 C.ar      1 RES1    0.0000
     54 H11        7.9388   16.8028   10.5128 H         1 RES1    0.0000
     55 C23        4.7402    8.3888    8.2897 C.ar      1 RES1    0.0000
     56 C24       -1.0652   13.6921    9.2771 C.ar      1 RES1    0.0000
     57 H12       -1.4255   12.8173    9.1924 H         1 RES1    0.0000
     58 C25        8.0558   13.3959   11.9717 C.ar      1 RES1    0.0000
     59 H13        8.0963   12.5242   12.3451 H         1 RES1    0.0000
     60 C26        0.4658   16.4320    5.9897 C.2       1 RES1    0.0000
     61 H14       -0.4011   16.3107    6.3573 H         1 RES1    0.0000
     62 C27        9.3040   15.5834    2.7304 C.ar      1 RES1    0.0000
     63 C28        9.0279   13.3301    2.0229 C.3       1 RES1    0.0000
     64 H15        9.9795   13.1722    2.2461 H         1 RES1    0.0000
     65 H16        8.9674   13.5293    1.0567 H         1 RES1    0.0000
     66 C29        3.7870    4.3188    1.5282 C.ar      1 RES1    0.0000
     67 H17        2.9787    4.7892    1.3627 H         1 RES1    0.0000
     68 C30        5.8385    4.0641    2.7639 C.ar      1 RES1    0.0000
     69 H18        6.4426    4.3666    3.4318 H         1 RES1    0.0000
     70 C31       -0.0323   16.2500    9.5235 C.ar      1 RES1    0.0000
     71 H19        0.3093   17.1330    9.6024 H         1 RES1    0.0000
     72 C32        8.2315   12.1071    2.3347 C.3       1 RES1    0.0000
     73 H20        8.6932   11.3062    1.9825 H         1 RES1    0.0000
     74 H21        8.1432   12.0070    3.3163 H         1 RES1    0.0000
     75 C33        1.9737    7.0146    6.0686 C.3       1 RES1    0.0000
     76 H22        1.7515    6.1519    6.4997 H         1 RES1    0.0000
     77 H23        1.1214    7.4685    5.8453 H         1 RES1    0.0000
     78 C34        8.6173   14.4755   12.6569 C.ar      1 RES1    0.0000
     79 H24        9.0294   14.3340   13.5018 H         1 RES1    0.0000
     80 C35        3.1825   14.3071    0.7121 C.3       1 RES1    0.0000
     81 H25        3.5624   14.6758   -0.1232 H         1 RES1    0.0000
     82 H26        2.3648   13.7914    0.4947 H         1 RES1    0.0000
     83 C36        3.1410    4.3405    4.9561 C.ar      1 RES1    0.0000
     84 C37        4.4877   14.8201   10.2529 C.2       1 RES1    0.0000
     85 H27        4.8579   14.5333   11.0786 H         1 RES1    0.0000
     86 C38        6.1172    2.9030    2.0306 C.ar      1 RES1    0.0000
     87 H28        6.9070    2.4080    2.2115 H         1 RES1    0.0000
     88 C39        4.6512    6.1848    7.0829 C.3       1 RES1    0.0000
     89 H29        5.5221    6.0994    7.5449 H         1 RES1    0.0000
     90 H30        4.0645    5.4611    7.4159 H         1 RES1    0.0000
     91 C40        5.2479    2.4790    1.0451 C.ar      1 RES1    0.0000
     92 H31        5.4533    1.7029    0.5389 H         1 RES1    0.0000
     93 C41       -1.1639   15.8858   10.2433 C.ar      1 RES1    0.0000
     94 H32       -1.5805   16.5111   10.8246 H         1 RES1    0.0000
     95 C42        4.0881    3.1730    0.7930 C.ar      1 RES1    0.0000
     96 H33        3.4928    2.8718    0.1155 H         1 RES1    0.0000
     97 C43        1.8287    4.0844    4.4980 C.ar      1 RES1    0.0000
     98 H34        1.3236    4.7879    4.1073 H         1 RES1    0.0000
     99 C44        4.1997   13.4358    1.4397 C.3       1 RES1    0.0000
    100 H35        5.0324   13.9449    1.6091 H         1 RES1    0.0000
    101 H36        3.8355   13.1266    2.3058 H         1 RES1    0.0000
    102 C45        0.4006   11.8180    7.7258 C.3       1 RES1    0.0000
    103 H37        0.8006   11.3808    6.9328 H         1 RES1    0.0000
    104 H38       -0.5833   11.7303    7.6546 H         1 RES1    0.0000
    105 C46        3.8820    3.3073    5.4835 C.ar      1 RES1    0.0000
    106 H39        4.7724    3.4607    5.7741 H         1 RES1    0.0000
    107 C47        6.7577   11.3017   10.6879 C.3       1 RES1    0.0000
    108 H40        6.1717   11.3901   11.4828 H         1 RES1    0.0000
    109 H41        7.6552   11.0268   10.9997 H         1 RES1    0.0000
    110 C48        6.2028   10.2493    9.7756 C.3       1 RES1    0.0000
    111 H42        6.6535   10.3021    8.8941 H         1 RES1    0.0000
    112 H43        6.3735    9.3523   10.1567 H         1 RES1    0.0000
    113 C49        3.3018    1.9978    5.5913 C.ar      1 RES1    0.0000
    114 H44        3.8072    1.2825    5.9589 H         1 RES1    0.0000
    115 C50        0.8660   11.1013    8.9691 C.3       1 RES1    0.0000
    116 H45        0.5510   11.6041    9.7621 H         1 RES1    0.0000
    117 H46        0.4438   10.2057    8.9961 H         1 RES1    0.0000
    118 C51        5.2104   15.1948    9.0713 C.2       1 RES1    0.0000
    119 C52        6.4483   16.9171    3.7784 C.2       1 RES1    0.0000
    120 C53        7.6426   16.5154    4.3853 C.2       1 RES1    0.0000
    121 C54        7.7771   16.0376    5.6798 C.2       1 RES1    0.0000
    122 C55        0.9613   17.7754   -0.3041 C.ar      1 RES1    0.0000
    123 H47        0.5649   17.8885   -1.1606 H         1 RES1    0.0000
    124 C56        4.4988    8.8075    1.6460 C.ar      1 RES1    0.0000
    125 C57        1.6331   16.6003   -0.0135 C.ar      1 RES1    0.0000
    126 H48        1.6854   15.9052   -0.6602 H         1 RES1    0.0000
    127 C58        0.6070   15.3387    8.6893 C.ar      1 RES1    0.0000
    128 C59        1.8537   15.6880    7.9552 C.2       1 RES1    0.0000
    129 C60        1.4661   18.6227    1.8785 C.ar      1 RES1    0.0000
    130 H49        1.3949   19.3162    2.5233 H         1 RES1    0.0000
    131 C61        7.3737   14.8843   10.1946 C.ar      1 RES1    0.0000
    132 C62        0.0717   14.0528    8.5688 C.ar      1 RES1    0.0000
    133 C63        6.6062   15.1534    8.9493 C.2       1 RES1    0.0000
    134 C64        9.6281   17.8125    3.5472 C.ar      1 RES1    0.0000
    135 H50        9.3519   18.5378    4.0958 H         1 RES1    0.0000
    136 C65        4.0766   10.0500    1.1914 C.ar      1 RES1    0.0000
    137 C66        2.9029   17.2571    3.4697 C.2       1 RES1    0.0000
    138 C67        7.3084   15.4584    7.7706 C.2       1 RES1    0.0000
    139 C68        1.7236   16.2037    6.6608 C.2       1 RES1    0.0000
    140 C69        5.7767    8.7338    2.1999 C.ar      1 RES1    0.0000
    141 C70       11.1462   16.9148    1.9401 C.ar      1 RES1    0.0000
    142 H51       11.9113   17.0112    1.3839 H         1 RES1    0.0000
    143 C71        8.7421   15.3254    7.5911 C.2       1 RES1    0.0000
    144 H52        9.3700   15.0539    8.2493 H         1 RES1    0.0000
    145 C72        3.0637   15.4294    8.6154 C.2       1 RES1    0.0000
    146 C73        2.1654   17.4748    2.1897 C.ar      1 RES1    0.0000
    147 C74        2.5192    7.4184    3.6704 C.2       1 RES1    0.0000
    148 C75        6.3539    7.4175    2.6734 C.3       1 RES1    0.0000
    149 H53        6.4606    6.8195    1.8920 H         1 RES1    0.0000
    150 H54        7.2548    7.5837    3.0487 H         1 RES1    0.0000
    151 C76        3.7311    5.7282    4.7694 C.3       1 RES1    0.0000
    152 C77       -1.6745   14.6275   10.1124 C.ar      1 RES1    0.0000
    153 H55       -2.4544   14.3853   10.5974 H         1 RES1    0.0000
    154 C78        4.1599    9.5667    8.7767 C.ar      1 RES1    0.0000
    155 C79        3.1656   14.9593    9.9604 C.2       1 RES1    0.0000
    156 H56        2.4414   14.7765   10.5455 H         1 RES1    0.0000
    157 C80        5.0368   17.6862    2.2057 C.2       1 RES1    0.0000
    158 H57        4.6648   18.0459    1.4089 H         1 RES1    0.0000
    159 C81        2.8275    9.8519    8.4572 C.ar      1 RES1    0.0000
    160 C82        8.5797   15.7407   12.1180 C.ar      1 RES1    0.0000
    161 H58        8.9702   16.4741   12.5799 H         1 RES1    0.0000
    162 C83        1.2660    2.8156    4.6097 C.ar      1 RES1    0.0000
    163 H59        0.3773    2.6633    4.3113 H         1 RES1    0.0000
    164 C84        2.0012    1.7798    5.1563 C.ar      1 RES1    0.0000
    165 H60        1.6152    0.9164    5.2352 H         1 RES1    0.0000
    166 H61        5.0057   16.5581    5.1332 Du        2 SUP2    0.0000
    167 H62        4.5201   15.8182    7.2619 Du        2 SUP2    0.0000
    168 H63        5.9055   16.0515    6.4439 Du        2 SUP2    0.0000
    169 H64        3.6044   16.4679    6.0012 Du        2 SUP2    0.0000
@<TRIPOS>BOND
     1    1   62 1
     2    2   15 2
     3    3   27 1
     4    4   29 1
     5    5   28 1
     6    6   49 2
     7    7   41 1
     8    8  102 1
     9    9  147 2
    10   10  110 1
    11   11  115 1
    12   12   15 2
    13   13   34 1
    14   14  118 2
    15   15  136 1
    16   16  121 1
    17   17   40 1
    18   18   40 1
    19   19   35 1
    20   20   75 1
    21   21   49 1
    22   22   62 ar
    23   23   24 1
    24   25   26 1
    25   27   25 ar
    26   28   58 ar
    27   29   27 ar
    28   30   31 1
    29   32   33 1
    30   34  137 2
    31   35   36 2
    32   36   37 1
    33   38   39 1
    34   40   44 1
    35   41  125 ar
    36   42   43 ar
    37   43   55 ar
    38   44   66 ar
    39   45   46 1
    40   47   42 ar
    41   48   47 1
    42   49   18 1
    43   50   17 1
    44   51   50 1
    45   52   50 1
    46   53   54 1
    47   55  154 ar
    48   56   57 1
    49   58   59 1
    50   60   36 1
    51   61   60 1
    52   62   38 ar
    53   63    1 1
    54   64   63 1
    55   65   63 1
    56   66   67 1
    57   68   44 ar
    58   69   68 1
    59   70   71 1
    60   72    3 1
    61   73   72 1
    62   74   72 1
    63   75   42 1
    64   76   75 1
    65   77   75 1
    66   78   58 ar
    67   79   78 1
    68   80    7 1
    69   81   80 1
    70   82   80 1
    71   83   97 ar
    72   84   85 1
    73   86   68 ar
    74   87   86 1
    75   88   21 1
    76   89   88 1
    77   90   88 1
    78   91   86 ar
    79   92   91 1
    80   93   70 ar
    81   94   93 1
    82   95   66 ar
    83   96   95 1
    84   97   98 1
    85   99    4 1
    86  100   99 1
    87  101   99 1
    88  102  103 1
    89  104  102 1
    90  105   83 ar
    91  106  105 1
    92  107    5 1
    93  108  107 1
    94  109  107 1
    95  110  107 1
    96  111  110 1
    97  112  110 1
    98  113  105 ar
    99  114  113 1
   100  115  102 1
   101  116  115 1
   102  117  115 1
   103  118   84 1
   104  119   13 2
   105  120   22 1
   106  121   30 1
   107  122   32 ar
   108  123  122 1
   109  124   50 1
   110  125  122 ar
   111  126  125 1
   112  127   70 ar
   113  128  127 1
   114  129   32 ar
   115  130  129 1
   116  131   28 ar
   117  132    8 1
   118  133  118 1
   119  134   22 ar
   120  135  134 1
   121  136   29 ar
   122  137   35 1
   123  138   16 1
   124  139   19 1
   125  140   25 ar
   126  141   38 ar
   127  142  141 1
   128  143   30 2
   129  144  143 1
   130  145   14 1
   131  146   41 ar
   132  147   17 1
   133  148   18 1
   134  149  148 1
   135  150  148 1
   136  151   20 1
   137  152   56 ar
   138  153  152 1
   139  154   10 1
   140  155   84 2
   141  156  155 1
   142  157   23 2
   143  158  157 1
   144  159   11 1
   145  160   53 ar
   146  161  160 1
   147  162   97 ar
   148  163  162 1
   149  164  113 ar
   150  165  164 1
   151   20  147 1
   152   21  151 1
   153   23  119 1
   154   34  157 1
   155   40  151 1
   156   43   88 1
   157   45  134 ar
   158   45  141 ar
   159   47  159 ar
   160   53  131 ar
   161   56  132 ar
   162   60  139 2
   163   63   72 1
   164   78  160 ar
   165   80   99 1
   166   83  151 1
   167   91   95 ar
   168   93  152 ar
   169  119  120 1
   170  120  121 2
   171  124  136 ar
   172  124  140 ar
   173  127  132 ar
   174  128  139 1
   175  128  145 2
   176  129  146 ar
   177  131  133 1
   178  133  138 2
   179  137  146 1
   180  138  143 1
   181  140  148 1
   182  145  155 1
   183  154  159 ar
   184  162  164 ar
@<TRIPOS>SUBSTRUCTURE
     1 RES1 1
     2 SUP2 166

@<TRIPOS>CRYSIN
  12.9727   18.8129   19.9387  96.3750 103.0320  95.1030   2 1

