# MOL2 file generated by ConQuest
# Please check atom types

@<TRIPOS>MOLECULE
YIBYUD
    23    26     1
SMALL
NO_CHARGES
****
Generated from CSD

@<TRIPOS>ATOM
      1 C1        -2.6925   15.3445    4.2327 C.ar      1 RES1    0.0000
      2 C2        -3.1743   16.4397    4.9329 C.ar      1 RES1    0.0000
      3 C3        -2.6692   16.7448    6.1652 C.ar      1 RES1    0.0000
      4 C4        -1.6917   15.9667    6.7245 C.ar      1 RES1    0.0000
      5 C5        -1.1965   14.8698    6.0393 C.ar      1 RES1    0.0000
      6 C6        -1.6938   14.5510    4.7948 C.ar      1 RES1    0.0000
      7 C7        -1.1933   13.3890    4.0193 C.2       1 RES1    0.0000
      8 O1        -1.5583   13.1542    2.8782 O.2       1 RES1    0.0000
      9 C8        -0.1711   12.5183    4.6688 C.3       1 RES1    0.0000
     10 C9         0.4736   11.3991    3.9206 C.3       1 RES1    0.0000
     11 C10        1.2906   12.5989    4.2308 C.3       1 RES1    0.0000
     12 C11        1.7047   13.4164    3.0746 C.ar      1 RES1    0.0000
     13 C12        2.4633   14.5870    3.2184 C.ar      1 RES1    0.0000
     14 C13        2.8540   15.3086    2.1140 C.ar      1 RES1    0.0000
     15 C14        2.4985   14.8835    0.8431 C.ar      1 RES1    0.0000
     16 C15        1.7479   13.7369    0.6740 C.ar      1 RES1    0.0000
     17 C16        1.3707   13.0188    1.7991 C.ar      1 RES1    0.0000
     18 O2         0.6384   11.8653    1.5312 O.3       1 RES1    0.0000
     19 C17        0.1324   11.0718    2.5003 C.2       1 RES1    0.0000
     20 O3        -0.5021   10.1137    2.1845 O.2       1 RES1    0.0000
     21 N1         0.7446   10.1566    4.6923 N.pl3     1 RES1    0.0000
     22 O4         1.7950    9.6458    4.5654 O.2       1 RES1    0.0000
     23 O5        -0.0860    9.6784    5.3493 O.2       1 RES1    0.0000
@<TRIPOS>BOND
     1    1    2 ar
     2    2    3 ar
     3    3    4 ar
     4    4    5 ar
     5    5    6 ar
     6    6    1 ar
     7    7    6 1
     8    8    7 2
     9    9    7 1
    10   10    9 1
    11   11    9 1
    12   12   11 1
    13   13   12 ar
    14   14   13 ar
    15   15   14 ar
    16   16   15 ar
    17   17   12 ar
    18   18   17 1
    19   19   10 1
    20   20   19 2
    21   21   10 1
    22   22   21 2
    23   23   21 2
    24   10   11 1
    25   16   17 ar
    26   18   19 1
@<TRIPOS>SUBSTRUCTURE
     1 RES1 1

@<TRIPOS>CRYSIN
   8.7838   17.1390    9.7686  90.0000 105.7970  90.0000 231 1

