# MOL2 file generated by ConQuest
# Please check atom types

@<TRIPOS>MOLECULE
YIBZUF
    62    64     2
SMALL
NO_CHARGES
****
Generated from CSD

@<TRIPOS>ATOM
      1 C1         5.9239    3.2217    9.0308 C.3       1 RES1    0.0000
      2 H1         6.6665    2.7083    9.3589 H         1 RES1    0.0000
      3 H2         5.6395    3.8439    9.7044 H         1 RES1    0.0000
      4 H3         6.1922    3.7027    8.2454 H         1 RES1    0.0000
      5 C2         4.7891    2.3018    8.6922 C.ar      1 RES1    0.0000
      6 C3         5.0208    1.0605    8.1147 C.ar      1 RES1    0.0000
      7 H4         5.8954    0.8143    7.9199 H         1 RES1    0.0000
      8 C4         4.0077    0.1832    7.8194 C.ar      1 RES1    0.0000
      9 H5         4.2052   -0.6335    7.4203 H         1 RES1    0.0000
     10 C5         2.6939    0.5062    8.1107 C.ar      1 RES1    0.0000
     11 C6         2.4176    1.7565    8.6831 C.ar      1 RES1    0.0000
     12 C7         3.4771    2.6248    8.9595 C.ar      1 RES1    0.0000
     13 H6         3.2896    3.4529    9.3389 H         1 RES1    0.0000
     14 C8         1.0652    2.1492    8.9914 C.2       1 RES1    0.0000
     15 H7         0.9107    3.0007    9.3332 H         1 RES1    0.0000
     16 C9        -1.2446    1.7919    9.0520 C.ar      1 RES1    0.0000
     17 C10       -1.7138    3.0260    8.6423 C.ar      1 RES1    0.0000
     18 H8        -1.1292    3.6385    8.2568 H         1 RES1    0.0000
     19 C11       -3.0357    3.3532    8.7999 C.ar      1 RES1    0.0000
     20 H9        -3.3525    4.1814    8.5224 H         1 RES1    0.0000
     21 C12       -3.8821    2.4393    9.3752 C.ar      1 RES1    0.0000
     22 C13       -3.4389    1.2112    9.8117 C.ar      1 RES1    0.0000
     23 H10       -4.0237    0.6107   10.2154 H         1 RES1    0.0000
     24 C14       -2.1201    0.8960    9.6381 C.ar      1 RES1    0.0000
     25 H11       -1.8077    0.0667    9.9185 H         1 RES1    0.0000
     26 C15       12.7876    0.9104   12.5320 C.3       2 RES2    0.0000
     27 H12       13.1504    0.6305   13.3760 H         2 RES2    0.0000
     28 H13       13.4509    1.4082   12.0484 H         2 RES2    0.0000
     29 H14       12.5307    0.1387   12.0227 H         2 RES2    0.0000
     30 C16       11.5842    1.7775   12.7695 C.ar      2 RES2    0.0000
     31 C17       11.6925    3.0620   13.2909 C.ar      2 RES2    0.0000
     32 H15       12.5375    3.3953   13.4873 H         2 RES2    0.0000
     33 C18       10.6057    3.8511   13.5241 C.ar      2 RES2    0.0000
     34 H16       10.7223    4.7020   13.8785 H         2 RES2    0.0000
     35 C19        9.3242    3.3977   13.2369 C.ar      2 RES2    0.0000
     36 C20        9.1668    2.1072   12.7164 C.ar      2 RES2    0.0000
     37 C21       10.3069    1.3343   12.4926 C.ar      2 RES2    0.0000
     38 H17       10.2015    0.4798   12.1397 H         2 RES2    0.0000
     39 C22        7.8621    1.5547   12.4489 C.2       2 RES2    0.0000
     40 H18        7.8022    0.6786   12.1426 H         2 RES2    0.0000
     41 C23        5.5235    1.6592   12.3576 C.ar      2 RES2    0.0000
     42 C24        4.4231    2.4128   12.7159 C.ar      2 RES2    0.0000
     43 H19        4.5518    3.2464   13.1076 H         2 RES2    0.0000
     44 C25        3.1435    1.9601   12.5072 C.ar      2 RES2    0.0000
     45 H20        2.4083    2.4777   12.7479 H         2 RES2    0.0000
     46 C26        2.9761    0.7242   11.9364 C.ar      2 RES2    0.0000
     47 C27        4.0430   -0.0390   11.5544 C.ar      2 RES2    0.0000
     48 H21        3.9046   -0.8701   11.1604 H         2 RES2    0.0000
     49 C28        5.3149    0.4246   11.7534 C.ar      2 RES2    0.0000
     50 H22        6.0439   -0.0883   11.4831 H         2 RES2    0.0000
     51 N1         0.0749    1.3692    8.8133 N.2       1 RES1    0.0000
     52 N2        -5.2924    2.7768    9.5259 N.pl3     1 RES1    0.0000
     53 N3         6.7907    2.2219   12.6157 N.2       2 RES2    0.0000
     54 N4         1.6200    0.2138   11.7272 N.pl3     2 RES2    0.0000
     55 O1         1.7235   -0.3867    7.8377 O.3       1 RES1    0.0000
     56 H23        0.9968   -0.0757    8.0570 H         1 RES1    0.0000
     57 O2        -5.6840    3.8361    9.0771 O.2       1 RES1    0.0000
     58 O3        -6.0182    2.0057   10.1221 O.2       1 RES1    0.0000
     59 O4         8.2748    4.1970   13.4779 O.3       2 RES2    0.0000
     60 H24        7.5818    3.8126   13.2618 H         2 RES2    0.0000
     61 O5         1.4953   -0.8978   11.2335 O.2       2 RES2    0.0000
     62 O6         0.6829    0.9188   12.0401 O.2       2 RES2    0.0000
@<TRIPOS>BOND
     1    1    2 1
     2    3    1 1
     3    4    1 1
     4    5    1 1
     5    6    5 ar
     6    7    6 1
     7    8    6 ar
     8    9    8 1
     9   10    8 ar
    10   11   10 ar
    11   12    5 ar
    12   13   12 1
    13   14   11 1
    14   15   14 1
    15   16   17 ar
    16   17   18 1
    17   19   17 ar
    18   20   19 1
    19   21   19 ar
    20   22   21 ar
    21   23   22 1
    22   24   16 ar
    23   25   24 1
    24   26   27 1
    25   28   26 1
    26   29   26 1
    27   30   26 1
    28   31   30 ar
    29   32   31 1
    30   33   31 ar
    31   34   33 1
    32   35   33 ar
    33   36   35 ar
    34   37   30 ar
    35   38   37 1
    36   39   36 1
    37   40   39 1
    38   41   42 ar
    39   42   43 1
    40   44   42 ar
    41   45   44 1
    42   46   44 ar
    43   47   46 ar
    44   48   47 1
    45   49   41 ar
    46   50   49 1
    47   51   14 2
    48   52   21 1
    49   53   39 2
    50   54   46 1
    51   55   10 1
    52   56   55 1
    53   57   52 2
    54   58   52 2
    55   59   35 1
    56   60   59 1
    57   61   54 2
    58   62   54 2
    59   11   12 ar
    60   16   51 1
    61   22   24 ar
    62   36   37 ar
    63   41   53 1
    64   47   49 ar
@<TRIPOS>SUBSTRUCTURE
     1 RES1 1
     2 RES2 26

@<TRIPOS>CRYSIN
  28.6980    6.0051   28.5740  90.0000  92.3180  90.0000  15 1

