# MOL2 file generated by ConQuest
# Please check atom types

@<TRIPOS>MOLECULE
YIBZEO
    29    30     1
SMALL
NO_CHARGES
****
Generated from CSD

@<TRIPOS>ATOM
      1 O1         3.3346    5.9073    5.8363 O.3       1 RES1    0.0000
      2 O2         2.2502    4.9199    8.0569 O.2       1 RES1    0.0000
      3 O3         3.2168    2.2749    3.8097 O.2       1 RES1    0.0000
      4 N1         3.8982    6.7082    4.7736 N.2       1 RES1    0.0000
      5 N2         2.6940    3.7016    6.1927 N.am      1 RES1    0.0000
      6 N3         3.7342    3.5366    1.9366 N.2       1 RES1    0.0000
      7 N4         3.5384    2.4806    1.2842 N.1       1 RES1    0.0000
      8 N5         3.3649    1.6067    0.6130 N.2       1 RES1    0.0000
      9 C1         3.2014    4.6682    5.3779 C.2       1 RES1    0.0000
     10 C2         3.6119    4.5713    4.0838 C.2       1 RES1    0.0000
     11 C3         4.0385    5.8983    3.7680 C.2       1 RES1    0.0000
     12 C4         4.6280    6.4382    2.5091 C.3       1 RES1    0.0000
     13 C5         2.2095    3.8588    7.4812 C.2       1 RES1    0.0000
     14 C6         1.6476    2.6243    8.0997 C.ar      1 RES1    0.0000
     15 C7         1.2999    1.4914    7.3902 C.ar      1 RES1    0.0000
     16 C8         0.7813    0.3881    8.0492 C.ar      1 RES1    0.0000
     17 C9         0.6206    0.4227    9.4167 C.ar      1 RES1    0.0000
     18 C10        0.9487    1.5480   10.1295 C.ar      1 RES1    0.0000
     19 C11        1.4610    2.6498    9.4727 C.ar      1 RES1    0.0000
     20 C12        3.5066    3.3584    3.3239 C.2       1 RES1    0.0000
     21 H1         2.6790    2.9576    5.7902 H         1 RES1    0.0000
     22 H2         1.4113    1.4254    6.4811 H         1 RES1    0.0000
     23 H3         0.5188   -0.4270    7.4900 H         1 RES1    0.0000
     24 H4         0.3118   -0.3674    9.8477 H         1 RES1    0.0000
     25 H5         0.8563    1.5694   11.1088 H         1 RES1    0.0000
     26 H6         1.7096    3.4205    9.9354 H         1 RES1    0.0000
     27 H7         4.0459    6.2514    1.7327 H         1 RES1    0.0000
     28 H8         4.8632    7.3108    2.6319 H         1 RES1    0.0000
     29 H9         5.4471    5.9673    2.2262 H         1 RES1    0.0000
@<TRIPOS>BOND
     1    1    4 1
     2    2   13 2
     3    3   20 2
     4    4   11 2
     5    5    9 1
     6    6    7 2
     7    7    8 2
     8    9    1 1
     9   10    9 2
    10   11   10 1
    11   12   11 1
    12   13    5 1
    13   14   13 1
    14   15   14 ar
    15   16   15 ar
    16   17   16 ar
    17   18   17 ar
    18   19   14 ar
    19   20    6 1
    20   21    5 1
    21   22   15 1
    22   23   16 1
    23   24   17 1
    24   25   18 1
    25   26   19 1
    26   27   12 1
    27   28   12 1
    28   29   12 1
    29   10   20 1
    30   18   19 ar
@<TRIPOS>SUBSTRUCTURE
     1 RES1 1

@<TRIPOS>CRYSIN
   7.1790    8.1350   11.6100  70.8800  85.7800  73.0300   2 1

