# MOL2 file generated by ConQuest
# Please check atom types

@<TRIPOS>MOLECULE
YIBZAK
    17    17     1
SMALL
NO_CHARGES
****
Generated from CSD

@<TRIPOS>ATOM
      1 O1         0.4325    5.2980    1.6575 O.3       1 RES1    0.0000
      2 O2        -0.3940    1.2602    2.3006 O.2       1 RES1    0.0000
      3 N1         1.0477    5.1485    0.3506 N.2       1 RES1    0.0000
      4 N2        -0.5271    3.9868    3.2545 N.3       1 RES1    0.0000
      5 N3         0.6309    0.9193    0.2536 N.2       1 RES1    0.0000
      6 N4         0.4898   -0.2910    0.4840 N.1       1 RES1    0.0000
      7 N5         0.4329   -1.4016    0.6058 N.2       1 RES1    0.0000
      8 C1         0.0651    4.0831    2.0711 C.2       1 RES1    0.0000
      9 C2         0.4147    3.1197    1.1379 C.2       1 RES1    0.0000
     10 C3         1.0010    3.8779    0.0804 C.2       1 RES1    0.0000
     11 C4         1.5344    3.4014   -1.2373 C.3       1 RES1    0.0000
     12 C5         0.1589    1.7378    1.3252 C.2       1 RES1    0.0000
     13 H1        -0.8412    3.1417    3.4891 H         1 RES1    0.0000
     14 H2        -0.9294    4.8111    3.7874 H         1 RES1    0.0000
     15 H3         1.8615    4.1735   -1.8647 H         1 RES1    0.0000
     16 H4         0.8941    2.8403   -1.7818 H         1 RES1    0.0000
     17 H5         2.0977    2.5273   -1.0608 H         1 RES1    0.0000
@<TRIPOS>BOND
     1    1    3 1
     2    2   12 2
     3    3   10 2
     4    4    8 1
     5    5    6 2
     6    6    7 2
     7    8    1 1
     8    9    8 2
     9   10    9 1
    10   11   10 1
    11   12    5 1
    12   13    4 1
    13   14    4 1
    14   15   11 1
    15   16   11 1
    16   17   11 1
    17    9   12 1
@<TRIPOS>SUBSTRUCTURE
     1 RES1 1

