# MOL2 file generated by ConQuest
# Please check atom types

@<TRIPOS>MOLECULE
YICNUT
    43    43     2
SMALL
NO_CHARGES
****
Generated from CSD

@<TRIPOS>ATOM
      1 O1         1.2490    4.3960   16.1608 O.3       1 RES1    0.0000
      2 O2         0.3333    2.6250   19.3651 O.2       1 RES1    0.0000
      3 O3         1.5860    2.0909   17.7203 O.2       1 RES1    0.0000
      4 N1         2.3874    9.2396   10.1139 N.3       1 RES1    0.0000
      5 N2         0.5403    5.8090   14.1604 N.2       1 RES1    0.0000
      6 N3         0.5667    2.5736   18.1715 N.pl3     1 RES1    0.0000
      7 C1         1.9357    8.3812   11.0884 C.ar      1 RES1    0.0000
      8 C2         0.5974    7.9806   11.1413 C.ar      1 RES1    0.0000
      9 C3         0.1149    7.1663   12.1335 C.ar      1 RES1    0.0000
     10 C4         0.9525    6.6777   13.1227 C.ar      1 RES1    0.0000
     11 C5         2.2818    7.0460   13.0771 C.ar      1 RES1    0.0000
     12 C6         2.7768    7.8706   12.0908 C.ar      1 RES1    0.0000
     13 C7         3.7528    9.7091   10.0801 C.3       1 RES1    0.0000
     14 C8         4.6718    8.8625    9.2585 C.3       1 RES1    0.0000
     15 C9         1.5240    9.6358    9.0115 C.3       1 RES1    0.0000
     16 C10        1.3175    8.5720    7.9709 C.3       1 RES1    0.0000
     17 C11       -0.6627    5.3953   14.3162 C.2       1 RES1    0.0000
     18 C12       -1.0113    4.4665   15.3715 C.ar      1 RES1    0.0000
     19 C13       -0.0142    3.9896   16.2475 C.ar      1 RES1    0.0000
     20 C14       -0.4256    3.1048   17.2485 C.ar      1 RES1    0.0000
     21 C15       -1.7343    2.7174   17.4058 C.ar      1 RES1    0.0000
     22 C16       -2.6948    3.1664   16.5268 C.ar      1 RES1    0.0000
     23 C17       -2.3236    4.0336   15.5229 C.ar      1 RES1    0.0000
     24 H1         1.2311    4.9404   15.4332 H         1 RES1    0.0000
     25 H2         1.0757    5.4554   14.4646 Du        2 SUP2    0.0000
     26 H3        -0.0029    8.2902   10.4814 H         1 RES1    0.0000
     27 H4        -0.7782    6.9315   12.1305 H         1 RES1    0.0000
     28 H5         2.8556    6.7261   13.7870 H         1 RES1    0.0000
     29 H6         3.6672    8.0511   12.0820 H         1 RES1    0.0000
     30 H7        -1.3690    5.6491   13.7709 H         1 RES1    0.0000
     31 H8        -1.9055    2.1452   18.0775 H         1 RES1    0.0000
     32 H9        -3.5907    2.9331   16.6459 H         1 RES1    0.0000
     33 H10       -3.0127    4.3388   14.9100 H         1 RES1    0.0000
     34 H11        3.7216   10.6379    9.7112 H         1 RES1    0.0000
     35 H12        4.0438    9.8265   11.0032 H         1 RES1    0.0000
     36 H13        4.6880    7.9542    9.6318 H         1 RES1    0.0000
     37 H14        5.5458    9.2601    9.2173 H         1 RES1    0.0000
     38 H15        4.3188    8.8331    8.3148 H         1 RES1    0.0000
     39 H16        0.6265    9.9292    9.3746 H         1 RES1    0.0000
     40 H17        1.9358   10.4545    8.5912 H         1 RES1    0.0000
     41 H18        0.8586    7.7517    8.3398 H         1 RES1    0.0000
     42 H19        0.7123    8.8537    7.3301 H         1 RES1    0.0000
     43 H20        2.1605    8.4150    7.5520 H         1 RES1    0.0000
@<TRIPOS>BOND
     1    1   19 1
     2    2    6 2
     3    3    6 2
     4    4    7 1
     5    5   10 1
     6    6   20 1
     7    7    8 ar
     8    8    9 ar
     9    9   10 ar
    10   10   11 ar
    11   11   12 ar
    12   12    7 ar
    13   13    4 1
    14   14   13 1
    15   15    4 1
    16   16   15 1
    17   17    5 2
    18   18   17 1
    19   19   18 ar
    20   20   19 ar
    21   21   20 ar
    22   22   21 ar
    23   23   18 ar
    24   24    1 1
    25   26    8 1
    26   27    9 1
    27   28   11 1
    28   29   12 1
    29   30   17 1
    30   31   21 1
    31   32   22 1
    32   33   23 1
    33   34   13 1
    34   35   13 1
    35   36   14 1
    36   37   14 1
    37   38   14 1
    38   39   15 1
    39   40   15 1
    40   41   16 1
    41   42   16 1
    42   43   16 1
    43   22   23 ar
@<TRIPOS>SUBSTRUCTURE
     1 RES1 1
     2 SUP2 25

@<TRIPOS>CRYSIN
   7.4370   14.6730   14.7020  90.0000  91.2800  90.0000 231 1

