# MOL2 file generated by ConQuest
# Please check atom types

@<TRIPOS>MOLECULE
YICPOP
    18    20     1
SMALL
NO_CHARGES
****
Generated from CSD

@<TRIPOS>ATOM
      1 O1         4.9459    0.1440    3.7344 O.2       1 RES1    0.0000
      2 O2         6.2775    1.3956    2.6348 O.2       1 RES1    0.0000
      3 O3         1.2189    4.9247    6.8870 O.2       1 RES1    0.0000
      4 N1         5.3613    1.2417    3.4267 N.pl3     1 RES1    0.0000
      5 N2         2.7450    5.8085    5.3948 N.am      1 RES1    0.0000
      6 N3        -0.1447    7.3521    5.6268 N.2       1 RES1    0.0000
      7 N4        -0.1406    8.1918    4.7130 N.2       1 RES1    0.0000
      8 C1         4.7383    2.4194    4.0194 C.ar      1 RES1    0.0000
      9 C2         3.7279    2.2614    4.9400 C.ar      1 RES1    0.0000
     10 C3         3.0685    3.3771    5.4385 C.ar      1 RES1    0.0000
     11 C4         3.4342    4.6468    4.9828 C.ar      1 RES1    0.0000
     12 C5         4.4790    4.7767    4.0782 C.ar      1 RES1    0.0000
     13 C6         5.1402    3.6630    3.5957 C.ar      1 RES1    0.0000
     14 C7         1.6921    5.8565    6.2657 C.2       1 RES1    0.0000
     15 C8         1.1879    7.2781    6.3103 C.3       1 RES1    0.0000
     16 C9         2.1213    8.1139    5.4780 C.3       1 RES1    0.0000
     17 C10        3.0423    7.1101    4.7735 C.3       1 RES1    0.0000
     18 C11        1.1676    8.8757    4.5751 C.3       1 RES1    0.0000
@<TRIPOS>BOND
     1    1    4 2
     2    2    4 2
     3    3   14 2
     4    4    8 1
     5    5   11 1
     6    6    7 2
     7    7   18 1
     8    8    9 ar
     9    9   10 ar
    10   10   11 ar
    11   11   12 ar
    12   12   13 ar
    13   13    8 ar
    14   14    5 1
    15   15    6 1
    16   16   15 1
    17   17    5 1
    18   18   16 1
    19   14   15 1
    20   16   17 1
@<TRIPOS>SUBSTRUCTURE
     1 RES1 1

@<TRIPOS>CRYSIN
  12.9570   21.4960    8.4070  90.0000  90.0000 111.5400  13 4

