# MOL2 file generated by ConQuest
# Please check atom types

@<TRIPOS>MOLECULE
YICRIN
    44    47     1
SMALL
NO_CHARGES
****
Generated from CSD

@<TRIPOS>ATOM
      1 O1         3.7839    5.9879   16.2206 O.3       1 RES1    0.0000
      2 O2         5.6785    3.2981   16.5738 O.2       1 RES1    0.0000
      3 O3         5.3737    3.5681   14.4846 O.2       1 RES1    0.0000
      4 O4         0.6591    1.5791   13.6299 O.2       1 RES1    0.0000
      5 O5        -0.7668    1.4457   15.2988 O.3       1 RES1    0.0000
      6 N1         4.9642    3.4667   15.6290 N.pl3     1 RES1    0.0000
      7 N2        -0.5332    4.4232   15.8303 N.pl3     1 RES1    0.0000
      8 H1        -1.2327    3.8943   15.8957 H         1 RES1    0.0000
      9 C1         3.0903    5.0105   15.6555 C.3       1 RES1    0.0000
     10 H2         3.2740    5.1328   14.6807 H         1 RES1    0.0000
     11 C2         3.4951    3.5956   15.9027 C.3       1 RES1    0.0000
     12 H3         3.4041    3.4700   16.8917 H         1 RES1    0.0000
     13 C3         2.7131    2.5146   15.3111 C.3       1 RES1    0.0000
     14 H4         2.7174    2.6909   14.3275 H         1 RES1    0.0000
     15 C4         1.2287    2.5774   15.7332 C.3       1 RES1    0.0000
     16 H5         1.1330    2.1807   16.6462 H         1 RES1    0.0000
     17 C5         0.7910    4.0188   15.7773 C.2       1 RES1    0.0000
     18 C6         1.6055    5.1020   15.7367 C.2       1 RES1    0.0000
     19 C7         3.2726    1.1108   15.4736 C.ar      1 RES1    0.0000
     20 C8         3.4128    0.4738   16.6762 C.ar      1 RES1    0.0000
     21 H6         3.1835    0.9300   17.4780 H         1 RES1    0.0000
     22 C9         3.8831   -0.8243   16.7398 C.ar      1 RES1    0.0000
     23 H7         3.9838   -1.2540   17.5804 H         1 RES1    0.0000
     24 C10        4.2024   -1.4865   15.5955 C.ar      1 RES1    0.0000
     25 H8         4.4977   -2.3879   15.6325 H         1 RES1    0.0000
     26 C11        4.0955   -0.8518   14.4016 C.ar      1 RES1    0.0000
     27 H9         4.3440   -1.3036   13.6034 H         1 RES1    0.0000
     28 C12        3.6359    0.4298   14.3345 C.ar      1 RES1    0.0000
     29 H10        3.5647    0.8584   13.4904 H         1 RES1    0.0000
     30 C13        0.3816    1.8050   14.7813 C.2       1 RES1    0.0000
     31 C14       -1.7359    0.7934   14.4529 C.3       1 RES1    0.0000
     32 H11       -1.9680    1.3829   13.7058 H         1 RES1    0.0000
     33 H12       -2.5417    0.5928   14.9738 H         1 RES1    0.0000
     34 H13       -1.3566   -0.0408   14.1050 H         1 RES1    0.0000
     35 C15       -0.5614    5.8039   15.7597 C.ar      1 RES1    0.0000
     36 C16       -1.6534    6.6700   15.6873 C.ar      1 RES1    0.0000
     37 H14       -2.5476    6.3494   15.7120 H         1 RES1    0.0000
     38 C17       -1.3699    8.0155   15.5760 C.ar      1 RES1    0.0000
     39 H15       -2.0868    8.6348   15.5072 H         1 RES1    0.0000
     40 C18       -0.0637    8.4871   15.5637 C.ar      1 RES1    0.0000
     41 H16        0.0894    9.4227   15.5054 H         1 RES1    0.0000
     42 C19        1.0115    7.6386   15.6343 C.ar      1 RES1    0.0000
     43 H17        1.8994    7.9769   15.6184 H         1 RES1    0.0000
     44 C20        0.7703    6.2634   15.7279 C.ar      1 RES1    0.0000
@<TRIPOS>BOND
     1    1    9 1
     2    2    6 2
     3    3    6 2
     4    4   30 2
     5    5   30 1
     6    6   11 1
     7    7    8 1
     8    9   10 1
     9   11    9 1
    10   12   11 1
    11   13   11 1
    12   14   13 1
    13   15   13 1
    14   16   15 1
    15   17    7 1
    16   18    9 1
    17   19   13 1
    18   20   19 ar
    19   21   20 1
    20   22   20 ar
    21   23   22 1
    22   24   22 ar
    23   25   24 1
    24   26   24 ar
    25   27   26 1
    26   28   19 ar
    27   29   28 1
    28   30   15 1
    29   31    5 1
    30   32   31 1
    31   33   31 1
    32   34   31 1
    33   35    7 1
    34   36   35 ar
    35   37   36 1
    36   38   36 ar
    37   39   38 1
    38   40   38 ar
    39   41   40 1
    40   42   40 ar
    41   43   42 1
    42   44   18 1
    43   15   17 1
    44   17   18 2
    45   26   28 ar
    46   35   44 ar
    47   42   44 ar
@<TRIPOS>SUBSTRUCTURE
     1 RES1 1

@<TRIPOS>CRYSIN
   9.0098   11.0194   18.0080  90.0000 101.2840  90.0000  14 1

