# MOL2 file generated by ConQuest
# Please check atom types

@<TRIPOS>MOLECULE
YICREJ
    45    48     1
SMALL
NO_CHARGES
****
Generated from CSD

@<TRIPOS>ATOM
      1 O1        -4.4212   -1.9460   13.6113 O.2       1 RES1    0.0000
      2 O2        -2.8616   -1.4887   15.1488 O.3       1 RES1    0.0000
      3 O3        -7.2675   -6.1233   14.9748 O.3       1 RES1    0.0000
      4 H1        -6.7179   -6.6787   14.6659 H         1 RES1    0.0000
      5 O4        -9.0259   -3.7046   14.1458 O.2       1 RES1    0.0000
      6 O5        -8.9477   -3.4358   16.2646 O.2       1 RES1    0.0000
      7 N1        -2.9655   -4.5822   15.7727 N.pl3     1 RES1    0.0000
      8 H2        -2.2634   -4.0603   15.8649 H         1 RES1    0.0000
      9 N2        -8.4117   -3.5797   15.1877 N.pl3     1 RES1    0.0000
     10 C1        -6.5891   -5.1230   15.6258 C.3       1 RES1    0.0000
     11 H3        -6.8895   -5.1532   16.5805 H         1 RES1    0.0000
     12 C2        -5.1010   -5.2424   15.6450 C.2       1 RES1    0.0000
     13 C3        -4.2764   -4.1707   15.7832 C.2       1 RES1    0.0000
     14 C4        -4.6954   -2.7232   15.8684 C.3       1 RES1    0.0000
     15 H4        -4.3331   -2.3563   16.7253 H         1 RES1    0.0000
     16 C5        -6.2498   -2.6173   15.9330 C.3       1 RES1    0.0000
     17 H5        -6.4996   -2.7991   16.8842 H         1 RES1    0.0000
     18 C6        -6.9124   -3.7068   15.1092 C.3       1 RES1    0.0000
     19 H6        -6.6205   -3.6265   14.1562 H         1 RES1    0.0000
     20 C7        -6.7360   -1.2133   15.6310 C.ar      1 RES1    0.0000
     21 C8        -7.0940   -0.7382   14.3919 C.ar      1 RES1    0.0000
     22 H7        -7.0542   -1.3192   13.6414 H         1 RES1    0.0000
     23 C9        -7.5096    0.5643   14.2156 C.ar      1 RES1    0.0000
     24 H8        -7.7481    0.8721   13.3499 H         1 RES1    0.0000
     25 C10       -7.5797    1.4151   15.2820 C.ar      1 RES1    0.0000
     26 H9        -7.8593    2.3140   15.1580 H         1 RES1    0.0000
     27 C11       -7.2438    0.9602   16.5316 C.ar      1 RES1    0.0000
     28 H10       -7.3018    1.5467   17.2769 H         1 RES1    0.0000
     29 C12       -6.8238   -0.3401   16.7149 C.ar      1 RES1    0.0000
     30 H11       -6.5919   -0.6434   17.5858 H         1 RES1    0.0000
     31 C13       -4.0140   -1.9917   14.7357 C.2       1 RES1    0.0000
     32 C14       -2.0058   -0.9155   14.1562 C.3       1 RES1    0.0000
     33 H12       -1.8208   -1.5813   13.4599 H         1 RES1    0.0000
     34 H13       -1.1628   -0.6368   14.5716 H         1 RES1    0.0000
     35 H14       -2.4449   -0.1372   13.7548 H         1 RES1    0.0000
     36 C15       -2.9343   -5.9494   15.5951 C.ar      1 RES1    0.0000
     37 C16       -1.8500   -6.8170   15.4582 C.ar      1 RES1    0.0000
     38 H15       -0.9543   -6.5025   15.4966 H         1 RES1    0.0000
     39 C17       -2.1396   -8.1474   15.2680 C.ar      1 RES1    0.0000
     40 H16       -1.4237   -8.7629   15.1633 H         1 RES1    0.0000
     41 C18       -3.4472   -8.6202   15.2226 C.ar      1 RES1    0.0000
     42 H17       -3.6013   -9.5491   15.0970 H         1 RES1    0.0000
     43 C19       -4.5225   -7.7704   15.3553 C.ar      1 RES1    0.0000
     44 H18       -5.4120   -8.1016   15.3238 H         1 RES1    0.0000
     45 C20       -4.2712   -6.3999   15.5356 C.ar      1 RES1    0.0000
@<TRIPOS>BOND
     1    1   31 2
     2    2   31 1
     3    3    4 1
     4    5    9 2
     5    6    9 2
     6    7    8 1
     7    9   18 1
     8   10    3 1
     9   11   10 1
    10   12   10 1
    11   13    7 1
    12   14   13 1
    13   15   14 1
    14   16   14 1
    15   17   16 1
    16   18   10 1
    17   19   18 1
    18   20   16 1
    19   21   20 ar
    20   22   21 1
    21   23   21 ar
    22   24   23 1
    23   25   23 ar
    24   26   25 1
    25   27   25 ar
    26   28   27 1
    27   29   20 ar
    28   30   29 1
    29   31   14 1
    30   32    2 1
    31   33   32 1
    32   34   32 1
    33   35   32 1
    34   36    7 1
    35   37   36 ar
    36   38   37 1
    37   39   37 ar
    38   40   39 1
    39   41   39 ar
    40   42   41 1
    41   43   41 ar
    42   44   43 1
    43   45   12 1
    44   12   13 2
    45   16   18 1
    46   27   29 ar
    47   36   45 ar
    48   43   45 ar
@<TRIPOS>SUBSTRUCTURE
     1 RES1 1

@<TRIPOS>CRYSIN
   8.8760   11.1516   17.9923  90.0000 104.0620  90.0000 231 1

