# MOL2 file generated by ConQuest
# Please check atom types

@<TRIPOS>MOLECULE
YICXUG
    23    23     1
SMALL
NO_CHARGES
****
Generated from CSD

@<TRIPOS>ATOM
      1 O1         8.1806    5.0833    2.7409 O.2       1 RES1    0.0000
      2 O2         3.9705    6.8073    1.9961 O.3       1 RES1    0.0000
      3 H1         4.3052    7.5392    2.2374 H         1 RES1    0.0000
      4 O3         6.3319    5.2335    0.7057 O.3       1 RES1    0.0000
      5 O4         4.0395    6.1309    4.7862 O.3       1 RES1    0.0000
      6 N1         6.1166    5.7695    1.9799 N.am      1 RES1    0.0000
      7 C1         7.0255    5.4430    2.9634 C.2       1 RES1    0.0000
      8 C2         5.0588    5.8627    3.9860 C.2       1 RES1    0.0000
      9 C3         4.7376    5.7552    2.5010 C.3       1 RES1    0.0000
     10 C4         6.3607    5.6583    4.2420 C.2       1 RES1    0.0000
     11 H2         6.7726    5.6548    5.0982 H         1 RES1    0.0000
     12 C5         4.0129    4.4592    2.1739 C.3       1 RES1    0.0000
     13 H3         3.1286    4.4634    2.5970 H         1 RES1    0.0000
     14 H4         4.5324    3.7000    2.5114 H         1 RES1    0.0000
     15 H5         3.9105    4.3788    1.2021 H         1 RES1    0.0000
     16 C6         6.7192    6.2925   -0.1816 C.3       1 RES1    0.0000
     17 H6         6.8815    5.9262   -1.0765 H         1 RES1    0.0000
     18 H7         7.5382    6.7149    0.1518 H         1 RES1    0.0000
     19 H8         6.0025    6.9594   -0.2272 H         1 RES1    0.0000
     20 C7         4.4004    6.3328    6.1701 C.3       1 RES1    0.0000
     21 H9         5.0395    7.0733    6.2363 H         1 RES1    0.0000
     22 H10        4.8097    5.5156    6.5240 H         1 RES1    0.0000
     23 H11        3.5969    6.5472    6.6895 H         1 RES1    0.0000
@<TRIPOS>BOND
     1    1    7 2
     2    2    3 1
     3    4    6 1
     4    5    8 1
     5    6    7 1
     6    7   10 1
     7    8    9 1
     8    9    2 1
     9   10    8 2
    10   11   10 1
    11   12    9 1
    12   13   12 1
    13   14   12 1
    14   15   12 1
    15   16    4 1
    16   17   16 1
    17   18   16 1
    18   19   16 1
    19   20    5 1
    20   21   20 1
    21   22   20 1
    22   23   20 1
    23    6    9 1
@<TRIPOS>SUBSTRUCTURE
     1 RES1 1

@<TRIPOS>CRYSIN
   9.7222    7.9111   11.6743  90.0000 102.0860  90.0000 231 1

