# MOL2 file generated by ConQuest
# Please check atom types

@<TRIPOS>MOLECULE
YIDLEC01
    21    21     1
SMALL
NO_CHARGES
****
Generated from CSD

@<TRIPOS>ATOM
      1 C1         1.8188    0.1798    6.4328 C.ar      1 RES1    0.0000
      2 C2         2.9784   -0.0505    5.6800 C.ar      1 RES1    0.0000
      3 C3         3.7984    0.9798    5.2958 C.ar      1 RES1    0.0000
      4 C4         3.5269    2.2909    5.6407 C.ar      1 RES1    0.0000
      5 C5         2.3541    2.5293    6.3998 C.ar      1 RES1    0.0000
      6 C6         1.5330    1.5050    6.7816 C.ar      1 RES1    0.0000
      7 O1         0.9511   -0.7576    6.8154 O.3       1 RES1    0.0000
      8 N1         3.3281   -1.3980    5.2644 N.pl3     1 RES1    0.0000
      9 O2         4.3315   -1.5596    4.5831 O.2       1 RES1    0.0000
     10 O3         2.6207   -2.3394    5.6093 O.2       1 RES1    0.0000
     11 C7         4.4312    3.3273    5.1882 C.2       1 RES1    0.0000
     12 C8         4.2798    4.6364    5.2997 C.2       1 RES1    0.0000
     13 N2         5.2990    5.5010    4.7788 N.pl3     1 RES1    0.0000
     14 O4         5.0827    6.7030    4.7929 O.2       1 RES1    0.0000
     15 O5         6.3484    5.0566    4.3388 O.2       1 RES1    0.0000
     16 H1         4.5021    0.7879    4.6829 H         1 RES1    0.0000
     17 H2         2.0822    3.4343    6.6080 H         1 RES1    0.0000
     18 H3         0.6981    1.6768    7.2444 H         1 RES1    0.0000
     19 H4         5.3829    3.0909    4.7772 H         1 RES1    0.0000
     20 H5         3.5009    5.0101    5.6258 H         1 RES1    0.0000
     21 H6         1.0723   -1.6566    6.3958 H         1 RES1    0.0000
@<TRIPOS>BOND
     1    1    2 ar
     2    2    3 ar
     3    3    4 ar
     4    4    5 ar
     5    5    6 ar
     6    6    1 ar
     7    7    1 1
     8    8    2 1
     9    9    8 2
    10   10    8 2
    11   11    4 1
    12   12   11 2
    13   13   12 1
    14   14   13 2
    15   15   13 2
    16   16    3 1
    17   17    5 1
    18   18    6 1
    19   19   11 1
    20   20   12 1
    21   21    7 1
@<TRIPOS>SUBSTRUCTURE
     1 RES1 1

@<TRIPOS>CRYSIN
   5.4830   20.2020    7.8590  90.0000  91.2000  90.0000  14 1

