# MOL2 file generated by ConQuest
# Please check atom types

@<TRIPOS>MOLECULE
YIFCAU01
    26    26     2
SMALL
NO_CHARGES
****
Generated from CSD

@<TRIPOS>ATOM
      1 O1         3.4853    5.5503    3.8545 O.2       1 RES1    0.0000
      2 O2         3.9006    3.4543    4.2226 O.2       1 RES1    0.0000
      3 O3        -1.1700    5.1692    0.7565 O.2       1 RES1    0.0000
      4 O4        -1.2299    3.0501    0.2671 O.2       1 RES1    0.0000
      5 N1         1.8256    2.6913    2.7481 N.3       1 RES1    0.0000
      6 N2         0.7598    2.5517    1.9524 N.2       1 RES1    0.0000
      7 N3         3.2381    4.3624    3.7512 N.pl3     1 RES1    0.0000
      8 N4        -0.7633    4.0182    0.8460 N.pl3     1 RES1    0.0000
      9 C1         2.0853    3.9923    2.9738 C.2       1 RES1    0.0000
     10 C2         1.1613    4.7686    2.3274 C.2       1 RES1    0.0000
     11 C3         0.3766    3.8010    1.7189 C.2       1 RES1    0.0000
     12 H1         1.0712    5.6834    2.2456 H         1 RES1    0.0000
     13 H2         2.2165    2.0120    3.0745 H         1 RES1    0.0000
     14 O5        11.7095    2.1966    6.1533 O.2       2 RES2    0.0000
     15 O6        11.9384    0.0519    6.4387 O.2       2 RES2    0.0000
     16 O7         7.4169    2.3440    2.5832 O.2       2 RES2    0.0000
     17 O8         6.5473    0.3645    2.8244 O.2       2 RES2    0.0000
     18 N5         9.7164   -0.4350    5.0363 N.3       2 RES2    0.0000
     19 N6         8.6411   -0.4303    4.2399 N.2       2 RES2    0.0000
     20 N7        11.3654    1.0381    6.0029 N.pl3     2 RES2    0.0000
     21 N8         7.4065    1.2155    3.0496 N.pl3     2 RES2    0.0000
     22 C4        10.1870    0.8152    5.2057 C.2       2 RES2    0.0000
     23 C5         9.4269    1.7009    4.5006 C.2       2 RES2    0.0000
     24 C6         8.4933    0.8525    3.9266 C.2       2 RES2    0.0000
     25 H3         9.5450    2.6239    4.4282 H         2 RES2    0.0000
     26 H4        10.0222   -1.1927    5.4670 H         2 RES2    0.0000
@<TRIPOS>BOND
     1    1    7 2
     2    2    7 2
     3    3    8 2
     4    4    8 2
     5    5    6 1
     6    6   11 2
     7    7    9 1
     8    8   11 1
     9    9    5 1
    10   10    9 2
    11   11   10 1
    12   12   10 1
    13   13    5 1
    14   14   20 2
    15   15   20 2
    16   16   21 2
    17   17   21 2
    18   18   19 1
    19   19   24 2
    20   20   22 1
    21   21   24 1
    22   22   18 1
    23   23   22 2
    24   24   23 1
    25   25   23 1
    26   26   18 1
@<TRIPOS>SUBSTRUCTURE
     1 RES1 1
     2 RES2 14

@<TRIPOS>CRYSIN
  10.6055   10.3711   10.4933  90.0000  90.0000  90.0000  29 1

