# MOL2 file generated by ConQuest
# Please check atom types

@<TRIPOS>MOLECULE
YIFNUY
    48    51     1
SMALL
NO_CHARGES
****
Generated from CSD

@<TRIPOS>ATOM
      1 C1         4.1906    0.6382    2.4448 C.3       1 RES1    0.0000
      2 H1         4.6677    0.8522    3.2735 H         1 RES1    0.0000
      3 C2         4.9717   -0.4516    1.7626 C.3       1 RES1    0.0000
      4 H2         5.8633   -0.1276    1.5554 H         1 RES1    0.0000
      5 H3         4.5369   -0.6853    0.9279 H         1 RES1    0.0000
      6 C3         5.0737   -1.6838    2.6416 C.3       1 RES1    0.0000
      7 H4         5.5216   -2.3926    2.1518 H         1 RES1    0.0000
      8 H5         5.6065   -1.4776    3.4260 H         1 RES1    0.0000
      9 C4         3.7104   -2.1560    3.0708 C.3       1 RES1    0.0000
     10 H6         3.2256   -2.4761    2.2938 H         1 RES1    0.0000
     11 H7         3.8110   -2.8993    3.6849 H         1 RES1    0.0000
     12 C5         2.9170   -1.0780    3.7323 C.3       1 RES1    0.0000
     13 H8         3.3366   -0.8385    4.5729 H         1 RES1    0.0000
     14 H9         2.0248   -1.4069    3.9247 H         1 RES1    0.0000
     15 C6         2.8205    0.1561    2.8429 C.3       1 RES1    0.0000
     16 H10        2.3090   -0.0569    2.0482 H         1 RES1    0.0000
     17 H11        2.3556    0.8620    3.3194 H         1 RES1    0.0000
     18 N1         4.1538    1.8792    1.6412 N.am      1 RES1    0.0000
     19 C7         3.2725    1.9695    0.4662 C.3       1 RES1    0.0000
     20 H12        3.1122    1.0770    0.1199 H         1 RES1    0.0000
     21 H13        2.4192    2.3416    0.7355 H         1 RES1    0.0000
     22 C8         3.8321    2.7814   -0.5712 C.3       1 RES1    0.0000
     23 H14        4.6154    2.3220   -0.9368 H         1 RES1    0.0000
     24 C9         2.9245    3.1928   -1.7315 C.3       1 RES1    0.0000
     25 H15        3.2456    2.8148   -2.5647 H         1 RES1    0.0000
     26 H16        2.0174    2.8826   -1.5805 H         1 RES1    0.0000
     27 O1         2.9632    4.6312   -1.7803 O.3       1 RES1    0.0000
     28 C10        3.6809    5.0897   -0.7296 C.2       1 RES1    0.0000
     29 N2         4.2452    4.0588   -0.0741 N.pl3     1 RES1    0.0000
     30 C11        4.8062    4.2031    1.2535 C.3       1 RES1    0.0000
     31 H17        4.2744    4.8481    1.7448 H         1 RES1    0.0000
     32 H18        5.7023    4.5634    1.1736 H         1 RES1    0.0000
     33 C12        4.8690    2.9297    2.0437 C.2       1 RES1    0.0000
     34 N3         3.8313    6.3032   -0.4169 N.2       1 RES1    0.0000
     35 C13        3.0776    7.2908   -1.0492 C.ar      1 RES1    0.0000
     36 C14        1.7861    7.6492   -0.6600 C.ar      1 RES1    0.0000
     37 C15        1.1195    8.7341   -1.1958 C.ar      1 RES1    0.0000
     38 H19        0.2633    8.9462   -0.8998 H         1 RES1    0.0000
     39 C16        1.7106    9.4901   -2.1562 C.ar      1 RES1    0.0000
     40 H20        1.2582   10.2107   -2.5306 H         1 RES1    0.0000
     41 C17        2.9747    9.1828   -2.5647 C.ar      1 RES1    0.0000
     42 H21        3.3839    9.7012   -3.2203 H         1 RES1    0.0000
     43 C18        3.6603    8.1067   -2.0141 C.ar      1 RES1    0.0000
     44 H22        4.5277    7.9271   -2.2983 H         1 RES1    0.0000
     45 O2         5.5810    2.9120    3.0381 O.2       1 RES1    0.0000
     46 N4         1.0911    6.8922    0.3789 N.pl3     1 RES1    0.0000
     47 O3         0.3185    7.5206    1.0951 O.2       1 RES1    0.0000
     48 O4         1.3274    5.7288    0.5653 O.2       1 RES1    0.0000
@<TRIPOS>BOND
     1    1    2 1
     2    3    1 1
     3    4    3 1
     4    5    3 1
     5    6    3 1
     6    7    6 1
     7    8    6 1
     8    9    6 1
     9   10    9 1
    10   11    9 1
    11   12    9 1
    12   13   12 1
    13   14   12 1
    14   15    1 1
    15   16   15 1
    16   17   15 1
    17   18    1 1
    18   19   18 1
    19   20   19 1
    20   21   19 1
    21   22   19 1
    22   23   22 1
    23   24   22 1
    24   25   24 1
    25   26   24 1
    26   27   24 1
    27   28   27 1
    28   29   22 1
    29   30   29 1
    30   31   30 1
    31   32   30 1
    32   33   18 1
    33   34   28 2
    34   35   34 1
    35   36   35 ar
    36   37   36 ar
    37   38   37 1
    38   39   37 ar
    39   40   39 1
    40   41   39 ar
    41   42   41 1
    42   43   35 ar
    43   44   43 1
    44   45   33 2
    45   46   36 1
    46   47   46 2
    47   48   46 2
    48   12   15 1
    49   28   29 1
    50   30   33 1
    51   41   43 ar
@<TRIPOS>SUBSTRUCTURE
     1 RES1 1

@<TRIPOS>CRYSIN
  12.2600    9.8180   15.4140  90.0000 106.2400  90.0000 231 1

