# MOL2 file generated by ConQuest
# Please check atom types

@<TRIPOS>MOLECULE
YIFPEJ
    41    42     1
SMALL
NO_CHARGES
****
Generated from CSD

@<TRIPOS>ATOM
      1 O1         0.8325    6.5002    4.8280 O.2       1 RES1    0.0000
      2 O2         1.1906    7.6939    3.0613 O.2       1 RES1    0.0000
      3 N1         1.0402    6.6135    3.6200 N.pl3     1 RES1    0.0000
      4 N2         1.2026    1.5857    4.6563 N.2       1 RES1    0.0000
      5 C1         1.1224    5.3789    2.8051 C.ar      1 RES1    0.0000
      6 C2         1.2880    5.4972    1.4238 C.ar      1 RES1    0.0000
      7 H1         1.3176    6.3470    1.0021 H         1 RES1    0.0000
      8 C3         1.4065    4.3285    0.6941 C.ar      1 RES1    0.0000
      9 H2         1.5099    4.3712   -0.2493 H         1 RES1    0.0000
     10 C4         1.3754    3.0846    1.3268 C.ar      1 RES1    0.0000
     11 H3         1.4683    2.2914    0.8107 H         1 RES1    0.0000
     12 C5         1.2084    2.9903    2.7108 C.ar      1 RES1    0.0000
     13 C6         1.0650    4.1604    3.4601 C.ar      1 RES1    0.0000
     14 H4         0.9304    4.1202    4.3993 H         1 RES1    0.0000
     15 C7         1.2368    1.6750    3.3972 C.2       1 RES1    0.0000
     16 H5         1.2812    0.8821    2.8770 H         1 RES1    0.0000
     17 C8         1.2592    0.2467    5.2596 C.3       1 RES1    0.0000
     18 H6         2.0595    0.1757    5.8385 H         1 RES1    0.0000
     19 H7         1.3306   -0.4375    4.5473 H         1 RES1    0.0000
     20 C9         0.0000    0.0000    6.0878 C.3       1 RES1    0.0000
     21 H8         0.1533   -0.7853    6.6723 H         1 RES1    0.0000
     22 O1A       -0.8325   -6.5002    4.8280 O.2       1 RES1    0.0000
     23 O2A       -1.1906   -7.6939    3.0613 O.2       1 RES1    0.0000
     24 N1A       -1.0402   -6.6135    3.6200 N.pl3     1 RES1    0.0000
     25 N2A       -1.2026   -1.5857    4.6563 N.2       1 RES1    0.0000
     26 C1A       -1.1224   -5.3789    2.8051 C.ar      1 RES1    0.0000
     27 C2A       -1.2880   -5.4972    1.4238 C.ar      1 RES1    0.0000
     28 H1A       -1.3176   -6.3470    1.0021 H         1 RES1    0.0000
     29 C3A       -1.4065   -4.3285    0.6941 C.ar      1 RES1    0.0000
     30 H2A       -1.5099   -4.3712   -0.2493 H         1 RES1    0.0000
     31 C4A       -1.3754   -3.0846    1.3268 C.ar      1 RES1    0.0000
     32 H3A       -1.4683   -2.2914    0.8107 H         1 RES1    0.0000
     33 C5A       -1.2084   -2.9903    2.7108 C.ar      1 RES1    0.0000
     34 C6A       -1.0650   -4.1604    3.4601 C.ar      1 RES1    0.0000
     35 H4A       -0.9304   -4.1202    4.3993 H         1 RES1    0.0000
     36 C7A       -1.2368   -1.6750    3.3972 C.2       1 RES1    0.0000
     37 H5A       -1.2812   -0.8821    2.8770 H         1 RES1    0.0000
     38 C8A       -1.2592   -0.2467    5.2596 C.3       1 RES1    0.0000
     39 H6A       -2.0595   -0.1757    5.8385 H         1 RES1    0.0000
     40 H7A       -1.3306    0.4375    4.5473 H         1 RES1    0.0000
     41 H8A       -0.1533    0.7853    6.6723 H         1 RES1    0.0000
@<TRIPOS>BOND
     1    1    3 2
     2    2    3 2
     3    3    5 1
     4    4   15 2
     5    5    6 ar
     6    6    7 1
     7    8    6 ar
     8    9    8 1
     9   10    8 ar
    10   11   10 1
    11   12   10 ar
    12   13    5 ar
    13   14   13 1
    14   15   12 1
    15   16   15 1
    16   17    4 1
    17   18   17 1
    18   19   17 1
    19   20   17 1
    20   21   20 1
    21   22   24 2
    22   23   24 2
    23   24   26 1
    24   25   36 2
    25   26   27 ar
    26   27   28 1
    27   29   27 ar
    28   30   29 1
    29   31   29 ar
    30   32   31 1
    31   33   31 ar
    32   34   26 ar
    33   35   34 1
    34   36   33 1
    35   37   36 1
    36   38   20 1
    37   39   38 1
    38   40   38 1
    39   41   20 1
    40   12   13 ar
    41   25   38 1
    42   33   34 ar
@<TRIPOS>SUBSTRUCTURE
     1 RES1 1

@<TRIPOS>CRYSIN
  12.9940   35.8590    6.9830  90.0000  90.0000  90.0000  43 1

