# MOL2 file generated by ConQuest
# Please check atom types

@<TRIPOS>MOLECULE
YIFPOV
   505   504     9
SMALL
NO_CHARGES
****
Generated from CSD

@<TRIPOS>ATOM
      1 O1        10.0297   -4.9777  -16.1370 O.3       1 RES1    0.0000
      2 O2        10.0062   -6.8406  -20.0486 O.3       1 RES1    0.0000
      3 O3         8.4335   -7.9519  -18.8744 O.3       1 RES1    0.0000
      4 O4        12.8007   -5.3271  -19.1818 O.3       1 RES1    0.0000
      5 O5        14.2982   -5.0485  -17.5282 O.3       1 RES1    0.0000
      6 O6        10.8374   -4.6557  -13.4809 O.3       1 RES1    0.0000
      7 O7        11.3301   -5.7618  -11.5825 O.2       1 RES1    0.0000
      8 N1        10.4004   -6.3609  -16.5451 N.3       1 RES1    0.0000
      9 C1         9.1274   -5.2454  -15.0600 C.3       1 RES1    0.0000
     10 H1         8.5781   -4.4313  -14.8705 H         1 RES1    0.0000
     11 C2         8.2226   -6.3693  -15.5847 C.3       1 RES1    0.0000
     12 H2         8.0225   -7.0269  -14.8721 H         1 RES1    0.0000
     13 H3         7.3715   -6.0060  -15.9368 H         1 RES1    0.0000
     14 C3         9.0551   -7.0051  -16.7036 C.3       1 RES1    0.0000
     15 H4         9.1306   -7.9909  -16.5526 H         1 RES1    0.0000
     16 C4         8.6062   -6.7296  -18.1533 C.3       1 RES1    0.0000
     17 H5         7.7853   -6.1598  -18.1861 H         1 RES1    0.0000
     18 C5         9.7884   -6.0666  -18.8675 C.3       1 RES1    0.0000
     19 H6         9.6017   -5.1083  -19.0817 H         1 RES1    0.0000
     20 C6        10.9593   -6.2132  -17.8949 C.3       1 RES1    0.0000
     21 H7        11.4168   -7.0741  -18.1168 H         1 RES1    0.0000
     22 C7        12.0085   -5.1114  -18.0038 C.3       1 RES1    0.0000
     23 H8        11.5494   -4.2254  -18.0742 H         1 RES1    0.0000
     24 C8        13.0318   -5.0579  -16.8704 C.3       1 RES1    0.0000
     25 H9        12.9119   -4.2395  -16.3261 H         1 RES1    0.0000
     26 H10       12.9465   -5.8493  -16.2818 H         1 RES1    0.0000
     27 C9        14.1031   -5.7105  -18.7632 C.3       1 RES1    0.0000
     28 C10       15.0878   -5.1836  -19.7777 C.3       1 RES1    0.0000
     29 H11       14.9752   -4.2145  -19.8696 H         1 RES1    0.0000
     30 H12       14.9270   -5.6146  -20.6432 H         1 RES1    0.0000
     31 H13       16.0003   -5.3798  -19.4796 H         1 RES1    0.0000
     32 C11       14.1935   -7.2229  -18.5710 C.3       1 RES1    0.0000
     33 H14       15.1314   -7.4815  -18.4536 H         1 RES1    0.0000
     34 H15       13.8262   -7.6746  -19.3593 H         1 RES1    0.0000
     35 H16       13.6811   -7.4825  -17.7772 H         1 RES1    0.0000
     36 C12        8.9057   -7.7089  -20.2026 C.3       1 RES1    0.0000
     37 C13        9.3786   -9.0098  -20.7880 C.3       1 RES1    0.0000
     38 H17        9.7592   -8.8486  -21.6767 H         1 RES1    0.0000
     39 H18        8.6223   -9.6280  -20.8637 H         1 RES1    0.0000
     40 H19       10.0632   -9.4004  -20.2056 H         1 RES1    0.0000
     41 C14        7.8505   -6.9946  -21.0455 C.3       1 RES1    0.0000
     42 H20        7.6521   -6.1206  -20.6483 H         1 RES1    0.0000
     43 H21        7.0330   -7.5342  -21.0720 H         1 RES1    0.0000
     44 H22        8.1893   -6.8697  -21.9565 H         1 RES1    0.0000
     45 C15        9.8569   -5.6770  -13.7957 C.3       1 RES1    0.0000
     46 H23        9.2152   -5.7763  -13.0483 H         1 RES1    0.0000
     47 H24       10.3054   -6.5479  -13.9411 H         1 RES1    0.0000
     48 C16       11.5292   -4.8432  -12.3535 C.2       1 RES1    0.0000
     49 C17       12.5957   -3.8210  -12.1661 C.ar      1 RES1    0.0000
     50 C18       13.0224   -3.0281  -13.2294 C.ar      1 RES1    0.0000
     51 H25       12.6112   -3.1148  -14.0815 H         1 RES1    0.0000
     52 C19       14.0464   -2.1126  -13.0444 C.ar      1 RES1    0.0000
     53 H26       14.3325   -1.5660  -13.7673 H         1 RES1    0.0000
     54 C20       14.6519   -1.9943  -11.8040 C.ar      1 RES1    0.0000
     55 H27       15.3529   -1.3659  -11.6774 H         1 RES1    0.0000
     56 C21       14.2380   -2.7924  -10.7430 C.ar      1 RES1    0.0000
     57 H28       14.6605   -2.7160   -9.8956 H         1 RES1    0.0000
     58 C22       13.2098   -3.6974  -10.9258 C.ar      1 RES1    0.0000
     59 H29       12.9216   -4.2388  -10.2000 H         1 RES1    0.0000
     60 O8        16.2474   -5.4732   -9.1491 O.3       2 RES2    0.0000
     61 O9        16.1111   -7.0763  -13.0643 O.3       2 RES2    0.0000
     62 O10       14.5440   -8.2295  -11.9181 O.3       2 RES2    0.0000
     63 O11       16.9163   -4.9207   -6.4875 O.3       2 RES2    0.0000
     64 O12       17.5504   -6.0006   -4.6250 O.2       2 RES2    0.0000
     65 N2        16.5607   -6.8888   -9.5140 N.3       2 RES2    0.0000
     66 C23       15.3085   -5.6403   -8.0860 C.3       2 RES2    0.0000
     67 H30       14.7759   -4.8028   -7.9653 H         2 RES2    0.0000
     68 C24       14.3840   -6.7935   -8.5554 C.3       2 RES2    0.0000
     69 H31       14.2277   -7.4463   -7.8276 H         2 RES2    0.0000
     70 H32       13.5126   -6.4472   -8.8732 H         2 RES2    0.0000
     71 C25       15.1830   -7.4230   -9.7034 C.3       2 RES2    0.0000
     72 H33       15.1922   -8.4173   -9.5988 H         2 RES2    0.0000
     73 C26       14.7574   -7.0595  -11.1368 C.3       2 RES2    0.0000
     74 H34       13.9663   -6.4479  -11.1509 H         2 RES2    0.0000
     75 C27       15.9841   -6.4300  -11.8014 C.3       2 RES2    0.0000
     76 H35       15.8891   -5.4382  -11.9014 H         2 RES2    0.0000
     77 C28       17.1416   -6.8029  -10.8693 C.3       2 RES2    0.0000
     78 H36       17.4441   -7.7220  -11.1225 H         2 RES2    0.0000
     79 C29       18.3186   -5.9179  -10.9494 C.3       2 RES2    0.0000
     80 H37       17.9994   -4.9672  -10.9875 H         2 RES2    0.0000
     81 C30       19.3879   -6.0237   -9.8802 C.3       2 RES2    0.0000
     82 H38       19.1389   -5.5125   -9.0714 H         2 RES2    0.0000
     83 H39       19.5485   -6.9686   -9.6310 H         2 RES2    0.0000
     84 O13       20.5354   -5.4601  -10.5106 O.3       2 RES2    0.0000
     85 C31       20.3998   -5.6948  -11.9132 C.3       2 RES2    0.0000
     86 O14       19.0776   -6.1902  -12.1299 O.3       2 RES2    0.0000
     87 C32       20.6141   -4.3614  -12.5919 C.3       2 RES2    0.0000
     88 H40       19.9359   -3.7250  -12.2805 H         2 RES2    0.0000
     89 H41       20.5370   -4.4717  -13.5620 H         2 RES2    0.0000
     90 H42       21.5060   -4.0211  -12.3706 H         2 RES2    0.0000
     91 C33       21.3736   -6.7537  -12.3951 C.3       2 RES2    0.0000
     92 H43       22.2918   -6.4334  -12.2737 H         2 RES2    0.0000
     93 H44       21.2143   -6.9361  -13.3449 H         2 RES2    0.0000
     94 H45       21.2436   -7.5764  -11.8785 H         2 RES2    0.0000
     95 C34       15.0167   -7.9425  -13.2374 C.3       2 RES2    0.0000
     96 C35       15.4907   -9.2099  -13.8616 C.3       2 RES2    0.0000
     97 H46       15.8714   -9.0176  -14.7438 H         2 RES2    0.0000
     98 H47       14.7364   -9.8282  -13.9591 H         2 RES2    0.0000
     99 H48       16.1758   -9.6183  -13.2921 H         2 RES2    0.0000
    100 C36       13.9663   -7.1842  -14.0495 C.3       2 RES2    0.0000
    101 H49       13.7124   -6.3666  -13.5730 H         2 RES2    0.0000
    102 H50       13.1757   -7.7508  -14.1703 H         2 RES2    0.0000
    103 H51       14.3373   -6.9502  -14.9257 H         2 RES2    0.0000
    104 C37       16.0000   -6.0058   -6.7901 C.3       2 RES2    0.0000
    105 H52       15.3365   -6.1094   -6.0625 H         2 RES2    0.0000
    106 H53       16.4945   -6.8569   -6.8908 H         2 RES2    0.0000
    107 C38       17.6465   -5.0579   -5.3826 C.2       2 RES2    0.0000
    108 C39       18.6017   -3.9320   -5.1833 C.ar      2 RES2    0.0000
    109 C40       18.8203   -2.9904   -6.1876 C.ar      2 RES2    0.0000
    110 H54       18.3266   -3.0403   -6.9977 H         2 RES2    0.0000
    111 C41       19.7544   -1.9827   -6.0099 C.ar      2 RES2    0.0000
    112 H55       19.9146   -1.3531   -6.7036 H         2 RES2    0.0000
    113 C42       20.4543   -1.8948   -4.8166 C.ar      2 RES2    0.0000
    114 H56       21.0940   -1.2039   -4.6921 H         2 RES2    0.0000
    115 C43       20.2225   -2.8196   -3.7975 C.ar      2 RES2    0.0000
    116 H57       20.6955   -2.7549   -2.9763 H         2 RES2    0.0000
    117 C44       19.2946   -3.8356   -3.9928 C.ar      2 RES2    0.0000
    118 H58       19.1358   -4.4682   -3.3020 H         2 RES2    0.0000
    119 C45       18.4033   -5.8864  -10.8240 Du        9 SUP9    0.0000
    120 H59       18.1778   -4.9223  -10.7096 Du        9 SUP9    0.0000
    121 C46       19.3529   -6.3997   -9.7518 Du        9 SUP9    0.0000
    122 H60       19.3868   -5.7784   -8.9862 Du        9 SUP9    0.0000
    123 H61       19.0604   -7.2921   -9.4244 Du        9 SUP9    0.0000
    124 O15       20.6255   -6.4981  -10.3792 Du        9 SUP9    0.0000
    125 C47       20.4949   -5.9629  -11.6994 Du        9 SUP9    0.0000
    126 O16       19.1209   -6.1588  -12.0330 Du        9 SUP9    0.0000
    127 C48       20.8733   -4.5070  -11.6623 Du        9 SUP9    0.0000
    128 H62       20.2321   -4.0150  -11.1096 Du        9 SUP9    0.0000
    129 H63       20.8652   -4.1444  -12.5737 Du        9 SUP9    0.0000
    130 H64       21.7727   -4.4122  -11.2830 Du        9 SUP9    0.0000
    131 C49       21.3701   -6.7453  -12.6546 Du        9 SUP9    0.0000
    132 H65       22.2985   -6.7181  -12.3427 Du        9 SUP9    0.0000
    133 H66       21.3141   -6.3452  -13.5481 Du        9 SUP9    0.0000
    134 H67       21.0633   -7.6739  -12.6919 Du        9 SUP9    0.0000
    135 O17       12.2785   -5.4937    2.7402 O.3       3 RES3    0.0000
    136 O18       16.0942   -3.7476    3.4077 O.3       3 RES3    0.0000
    137 O19       14.7033   -2.6101    4.7827 O.3       3 RES3    0.0000
    138 O20        9.7526   -6.0090    1.6253 O.3       3 RES3    0.0000
    139 O21        8.1168   -4.8108    0.6618 O.2       3 RES3    0.0000
    140 N3        12.6589   -4.0692    2.4827 N.3       3 RES3    0.0000
    141 C50       11.0790   -5.3428    3.4993 C.3       3 RES3    0.0000
    142 H68       10.8721   -6.1878    3.9922 H         3 RES3    0.0000
    143 C51       11.4111   -4.2043    4.4987 C.3       3 RES3    0.0000
    144 H69       10.6542   -3.5718    4.5825 H         3 RES3    0.0000
    145 H70       11.6290   -4.5681    5.3933 H         3 RES3    0.0000
    146 C52       12.6262   -3.5266    3.8699 C.3       3 RES3    0.0000
    147 H71       12.4759   -2.5390    3.8372 H         3 RES3    0.0000
    148 C53       14.0030   -3.8136    4.4918 C.3       3 RES3    0.0000
    149 H72       13.9343   -4.4090    5.2928 H         3 RES3    0.0000
    150 C54       14.8595   -4.4442    3.3801 C.3       3 RES3    0.0000
    151 H73       14.9805   -5.4288    3.5164 H         3 RES3    0.0000
    152 C55       14.0766   -4.1373    2.0935 C.3       3 RES3    0.0000
    153 H74       14.3829   -3.2832    1.6730 H         3 RES3    0.0000
    154 O22       15.5008   -5.0925    0.4038 O.3       3 RES3    0.0000
    155 C56       14.2680   -5.4036    1.0835 C.3       3 RES3    0.0000
    156 H75       14.3266   -6.2692    1.5810 H         3 RES3    0.0000
    157 C57       13.2355   -5.4622   -0.0456 C.3       3 RES3    0.0000
    158 H76       12.6076   -6.2155    0.0879 H         3 RES3    0.0000
    159 H77       12.7191   -4.6188   -0.0970 H         3 RES3    0.0000
    160 O23       14.0289   -5.6560   -1.2489 O.3       3 RES3    0.0000
    161 C58       15.1897   -4.8621   -0.9752 C.3       3 RES3    0.0000
    162 C59       14.9532   -3.4167   -1.2347 C.3       3 RES3    0.0000
    163 H78       14.8883   -2.9375   -0.3832 H         3 RES3    0.0000
    164 H79       14.1177   -3.3076   -1.7361 H         3 RES3    0.0000
    165 H80       15.6976   -3.0533   -1.7590 H         3 RES3    0.0000
    166 C60       16.3453   -5.4486   -1.7821 C.3       3 RES3    0.0000
    167 H81       17.1479   -4.9002   -1.6507 H         3 RES3    0.0000
    168 H82       16.1097   -5.4581   -2.7333 H         3 RES3    0.0000
    169 H83       16.5242   -6.3643   -1.4810 H         3 RES3    0.0000
    170 C61       16.0832   -2.8783    4.5275 C.3       3 RES3    0.0000
    171 C62       16.7642   -1.6015    4.1568 C.3       3 RES3    0.0000
    172 H84       17.6665   -1.7955    3.8279 H         3 RES3    0.0000
    173 H85       16.8213   -1.0209    4.9445 H         3 RES3    0.0000
    174 H86       16.2508   -1.1492    3.4548 H         3 RES3    0.0000
    175 C63       16.7252   -3.6136    5.7006 C.3       3 RES3    0.0000
    176 H87       16.2868   -4.4814    5.8213 H         3 RES3    0.0000
    177 H88       16.6224   -3.0793    6.5159 H         3 RES3    0.0000
    178 H89       17.6779   -3.7508    5.5179 H         3 RES3    0.0000
    179 C64        9.9083   -4.9511    2.6082 C.3       3 RES3    0.0000
    180 H90        9.0827   -4.8565    3.1462 H         3 RES3    0.0000
    181 H91       10.0918   -4.0879    2.1585 H         3 RES3    0.0000
    182 C65        8.8194   -5.8047    0.6943 C.2       3 RES3    0.0000
    183 C66        8.7382   -6.9108   -0.2968 C.ar      3 RES3    0.0000
    184 C67        9.7393   -7.8765   -0.3949 C.ar      3 RES3    0.0000
    185 H92       10.4845   -7.8492    0.1937 H         3 RES3    0.0000
    186 C68        9.6479   -8.8789   -1.3539 C.ar      3 RES3    0.0000
    187 H93       10.3369   -9.5292   -1.4274 H         3 RES3    0.0000
    188 C69        8.5580   -8.9323   -2.1993 C.ar      3 RES3    0.0000
    189 H94        8.4895   -9.6263   -2.8445 H         3 RES3    0.0000
    190 C70        7.5600   -7.9676   -2.1046 C.ar      3 RES3    0.0000
    191 H95        6.8142   -7.9984   -2.6922 H         3 RES3    0.0000
    192 C71        7.6512   -6.9611   -1.1543 C.ar      3 RES3    0.0000
    193 H96        6.9670   -6.3054   -1.0913 H         3 RES3    0.0000
    194 H97       14.3060   -3.1804    1.9150 Du        9 SUP9    0.0000
    195 O24       15.5578   -4.4243    0.1765 Du        9 SUP9    0.0000
    196 C72       14.3286   -4.7772    0.8127 Du        9 SUP9    0.0000
    197 H98       14.3604   -5.7627    0.9791 Du        9 SUP9    0.0000
    198 C73       13.3250   -4.5489   -0.2994 Du        9 SUP9    0.0000
    199 H99       12.4487   -4.9671   -0.1093 Du        9 SUP9    0.0000
    200 H100      13.2056   -3.5891   -0.5098 Du        9 SUP9    0.0000
    201 O25       14.0754   -5.2580   -1.3373 Du        9 SUP9    0.0000
    202 C74       15.4331   -4.8380   -1.1919 Du        9 SUP9    0.0000
    203 C75       16.0715   -3.7990   -2.0587 Du        9 SUP9    0.0000
    204 H101      15.6467   -2.9309   -1.8920 Du        9 SUP9    0.0000
    205 H102      15.9565   -4.0435   -2.9997 Du        9 SUP9    0.0000
    206 H103      17.0260   -3.7412   -1.8483 Du        9 SUP9    0.0000
    207 C76       16.1887   -6.1567   -1.4143 Du        9 SUP9    0.0000
    208 H104      17.1385   -6.0280   -1.2101 Du        9 SUP9    0.0000
    209 H105      16.0916   -6.4356   -2.3499 Du        9 SUP9    0.0000
    210 H106      15.8188   -6.8487   -0.8280 Du        9 SUP9    0.0000
    211 O26        9.9293   -0.2401  -10.2785 O.3       4 RES4    0.0000
    212 O27        6.1074    1.5711  -10.8283 O.3       4 RES4    0.0000
    213 O28        7.5676    3.0227  -11.8197 O.3       4 RES4    0.0000
    214 O29        6.6667    0.1833   -7.7738 O.3       4 RES4    0.0000
    215 O30        8.2005   -0.4923   -6.2617 O.3       4 RES4    0.0000
    216 O31       12.3836   -0.7261   -9.0627 O.3       4 RES4    0.0000
    217 O32       14.1452    0.3519   -8.1710 O.2       4 RES4    0.0000
    218 N4         9.5443    1.1417   -9.8645 N.3       4 RES4    0.0000
    219 C77       11.1461    0.0157  -10.9805 C.3       4 RES4    0.0000
    220 H107      11.3882   -0.7771  -11.5404 H         4 RES4    0.0000
    221 C78       10.8066    1.2181  -11.8904 C.3       4 RES4    0.0000
    222 H108      11.5712    1.8442  -11.9557 H         4 RES4    0.0000
    223 H109      10.5545    0.9191  -12.7998 H         4 RES4    0.0000
    224 C79        9.6185    1.8696  -11.1721 C.3       4 RES4    0.0000
    225 H110       9.8206    2.8340  -11.0042 H         4 RES4    0.0000
    226 C80        8.2333    1.7460  -11.8340 C.3       4 RES4    0.0000
    227 H111       8.2775    1.3442  -12.7487 H         4 RES4    0.0000
    228 C81        7.3695    0.9217  -10.8668 C.3       4 RES4    0.0000
    229 H112       7.2859   -0.0282  -11.1663 H         4 RES4    0.0000
    230 C82        8.1184    1.0296   -9.5286 C.3       4 RES4    0.0000
    231 H113       7.8410    1.8869   -9.0942 H         4 RES4    0.0000
    232 C83        7.8487   -0.1037   -8.5334 C.3       4 RES4    0.0000
    233 H114       7.7184   -0.9583   -9.0353 H         4 RES4    0.0000
    234 C84        8.9402   -0.3017   -7.4724 C.3       4 RES4    0.0000
    235 H115       9.4962   -1.0944   -7.6782 H         4 RES4    0.0000
    236 H116       9.5246    0.4952   -7.4105 H         4 RES4    0.0000
    237 C85        7.0335    0.3027   -6.3949 C.3       4 RES4    0.0000
    238 C86        5.9414   -0.2849   -5.5452 C.3       4 RES4    0.0000
    239 H117       5.8272   -1.2322   -5.7688 H         4 RES4    0.0000
    240 H118       5.1032    0.1939   -5.7135 H         4 RES4    0.0000
    241 H119       6.1822   -0.1995   -4.5990 H         4 RES4    0.0000
    242 C87        7.3344    1.7555   -6.0556 C.3       4 RES4    0.0000
    243 H120       7.6787    1.8119   -5.1399 H         4 RES4    0.0000
    244 H121       6.5131    2.2846   -6.1293 H         4 RES4    0.0000
    245 H122       8.0050    2.1040   -6.6791 H         4 RES4    0.0000
    246 C88        6.1710    2.7599  -11.6301 C.3       4 RES4    0.0000
    247 C89        5.4791    2.5222  -12.9537 C.3       4 RES4    0.0000
    248 H123       5.9033    1.7669  -13.4128 H         4 RES4    0.0000
    249 H124       5.5522    3.3252  -13.5098 H         4 RES4    0.0000
    250 H125       4.5335    2.3185  -12.7960 H         4 RES4    0.0000
    251 C90        5.5609    3.8953  -10.8482 C.3       4 RES4    0.0000
    252 H126       4.6676    3.6369  -10.5392 H         4 RES4    0.0000
    253 H127       5.4914    4.6872  -11.4220 H         4 RES4    0.0000
    254 H128       6.1270    4.1016  -10.0751 H         4 RES4    0.0000
    255 C91       12.2808    0.3446  -10.0373 C.3       4 RES4    0.0000
    256 H129      13.1285    0.4275  -10.5418 H         4 RES4    0.0000
    257 H130      12.1035    1.2046   -9.5800 H         4 RES4    0.0000
    258 C92       13.3731   -0.5928   -8.1784 C.2       4 RES4    0.0000
    259 C93       13.4338   -1.6853   -7.1707 C.ar      4 RES4    0.0000
    260 C94       12.3658   -2.5546   -6.9654 C.ar      4 RES4    0.0000
    261 H131      11.5916   -2.4928   -7.5127 H         4 RES4    0.0000
    262 C95       12.4313   -3.5141   -5.9597 C.ar      4 RES4    0.0000
    263 H132      11.6981   -4.0993   -5.8109 H         4 RES4    0.0000
    264 C96       13.5703   -3.6115   -5.1750 C.ar      4 RES4    0.0000
    265 H133      13.6172   -4.2688   -4.4904 H         4 RES4    0.0000
    266 C97       14.6432   -2.7557   -5.3846 C.ar      4 RES4    0.0000
    267 H134      15.4240   -2.8299   -4.8488 H         4 RES4    0.0000
    268 C98       14.5711   -1.7900   -6.3803 C.ar      4 RES4    0.0000
    269 H135      15.3015   -1.1988   -6.5210 H         4 RES4    0.0000
    270 O33        6.1148   -5.3169   -4.2560 O.3       5 RES5    0.0000
    271 O34        9.9573   -3.7183   -3.5611 O.3       5 RES5    0.0000
    272 O35        8.5341   -2.1870   -2.6210 O.3       5 RES5    0.0000
    273 O36        9.3573   -4.6013   -6.7656 O.3       5 RES5    0.0000
    274 O37        7.9549   -5.7262   -8.1898 O.3       5 RES5    0.0000
    275 O38        3.6097   -5.8217   -5.3755 O.3       5 RES5    0.0000
    276 O39        1.8265   -4.7720   -6.2446 O.2       5 RES5    0.0000
    277 N5         6.4974   -3.9163   -4.6048 N.3       5 RES5    0.0000
    278 C99        4.9164   -5.1187   -3.5090 C.3       5 RES5    0.0000
    279 H136       4.7007   -5.9399   -2.9808 H         5 RES5    0.0000
    280 C100       5.2593   -3.9498   -2.5569 C.3       5 RES5    0.0000
    281 H137       4.4922   -3.3313   -2.4609 H         5 RES5    0.0000
    282 H138       5.5195   -4.2835   -1.6619 H         5 RES5    0.0000
    283 C101       6.4410   -3.2606   -3.2549 C.3       5 RES5    0.0000
    284 H139       6.2448   -2.2859   -3.3628 H         5 RES5    0.0000
    285 C102       7.8248   -3.4397   -2.6125 C.3       5 RES5    0.0000
    286 H140       7.7826   -3.8581   -1.7051 H         5 RES5    0.0000
    287 C103       8.6537   -4.2535   -3.6059 C.3       5 RES5    0.0000
    288 H141       8.6513   -5.2257   -3.3711 H         5 RES5    0.0000
    289 C104       7.9253   -3.9969   -4.9426 C.3       5 RES5    0.0000
    290 H142       8.2130   -3.1020   -5.2838 H         5 RES5    0.0000
    291 C105       8.1948   -5.0244   -6.0336 C.3       5 RES5    0.0000
    292 H143       8.3587   -5.9216   -5.6236 H         5 RES5    0.0000
    293 C106       7.1744   -5.1428   -7.1340 C.3       5 RES5    0.0000
    294 H144       6.4241   -5.7319   -6.8701 H         5 RES5    0.0000
    295 H145       6.8182   -4.2560   -7.3940 H         5 RES5    0.0000
    296 C107       9.2576   -5.1480   -8.0815 C.3       5 RES5    0.0000
    297 C108       9.4440   -4.0650   -9.0992 C.3       5 RES5    0.0000
    298 H146       8.8041   -3.3429   -8.9286 H         5 RES5    0.0000
    299 H147       9.2929   -4.4305   -9.9960 H         5 RES5    0.0000
    300 H148      10.3569   -3.7141   -9.0390 H         5 RES5    0.0000
    301 C109      10.2801   -6.2468   -8.2295 C.3       5 RES5    0.0000
    302 H149      11.1792   -5.8743   -8.1144 H         5 RES5    0.0000
    303 H150      10.2038   -6.6464   -9.1211 H         5 RES5    0.0000
    304 H151      10.1219   -6.9343   -7.5490 H         5 RES5    0.0000
    305 C110       9.9171   -2.4698   -2.8434 C.3       5 RES5    0.0000
    306 C111      10.4941   -1.3868   -3.7285 C.3       5 RES5    0.0000
    307 H152       9.9551   -1.3086   -4.5434 H         5 RES5    0.0000
    308 H153      11.4162   -1.6162   -3.9677 H         5 RES5    0.0000
    309 H154      10.4844   -0.5323   -3.2480 H         5 RES5    0.0000
    310 C112      10.6515   -2.6311   -1.5455 C.3       5 RES5    0.0000
    311 H155      10.5872   -1.8006   -1.0286 H         5 RES5    0.0000
    312 H156      11.5938   -2.8310   -1.7258 H         5 RES5    0.0000
    313 H157      10.2536   -3.3657   -1.0336 H         5 RES5    0.0000
    314 C113       3.7495   -4.7531   -4.4032 C.3       5 RES5    0.0000
    315 H158       2.9211   -4.6645   -3.8683 H         5 RES5    0.0000
    316 H159       3.9230   -3.8927   -4.8606 H         5 RES5    0.0000
    317 C114       2.6152   -5.6948   -6.2483 C.2       5 RES5    0.0000
    318 C115       2.5829   -6.8082   -7.2474 C.ar      5 RES5    0.0000
    319 C116       3.6187   -7.7414   -7.3259 C.ar      5 RES5    0.0000
    320 H160       4.3463   -7.6981   -6.7165 H         5 RES5    0.0000
    321 C117       3.5814   -8.7312   -8.2976 C.ar      5 RES5    0.0000
    322 H161       4.2836   -9.3688   -8.3502 H         5 RES5    0.0000
    323 C118       2.5280   -8.7941   -9.1884 C.ar      5 RES5    0.0000
    324 H162       2.5097   -9.4725   -9.8535 H         5 RES5    0.0000
    325 C119       1.4905   -7.8640   -9.1140 C.ar      5 RES5    0.0000
    326 H163       0.7661   -7.9078   -9.7270 H         5 RES5    0.0000
    327 C120       1.5211   -6.8752   -8.1414 C.ar      5 RES5    0.0000
    328 H164       0.8146   -6.2430   -8.0861 H         5 RES5    0.0000
    329 O40        6.1884   -0.1075    2.0445 O.3       6 RES6    0.0000
    330 O41        7.5256   -3.3093    4.5492 O.3       6 RES6    0.0000
    331 O42        6.4041   -1.8256    5.8956 O.3       6 RES6    0.0000
    332 O43        3.3212   -0.8777    4.9563 O.3       6 RES6    0.0000
    333 O44        2.0367    0.1938    3.3821 O.3       6 RES6    0.0000
    334 O45        5.4093    0.4973   -0.5848 O.3       6 RES6    0.0000
    335 O46        4.7746   -0.5467   -2.4673 O.2       6 RES6    0.0000
    336 N6         5.7965   -1.5187    2.3373 N.3       6 RES6    0.0000
    337 C121       7.0771   -0.2849    0.9378 C.3       6 RES6    0.0000
    338 H165       7.6300    0.5392    0.8130 H         6 RES6    0.0000
    339 C122       7.9807   -1.4590    1.3536 C.3       6 RES6    0.0000
    340 H166       8.8379   -1.1361    1.7290 H         6 RES6    0.0000
    341 H167       8.1675   -2.0563    0.5862 H         6 RES6    0.0000
    342 C123       7.1388   -2.1776    2.4260 C.3       6 RES6    0.0000
    343 H168       7.0536   -3.1466    2.1930 H         6 RES6    0.0000
    344 C124       7.6082   -2.0362    3.8839 C.3       6 RES6    0.0000
    345 H169       8.5124   -1.6161    3.9611 H         6 RES6    0.0000
    346 C125       6.5183   -1.2401    4.6105 C.3       6 RES6    0.0000
    347 H170       6.7512   -0.2693    4.6697 H         6 RES6    0.0000
    348 C126       5.2854   -1.4706    3.7217 C.3       6 RES6    0.0000
    349 H171       4.9178   -2.3742    3.9411 H         6 RES6    0.0000
    350 C127       4.1681   -0.4745    3.8688 C.3       6 RES6    0.0000
    351 H172       4.5469    0.4315    4.0550 H         6 RES6    0.0000
    352 C128       3.1768   -0.3886    2.7374 C.3       6 RES6    0.0000
    353 H173       3.5126    0.1905    2.0077 H         6 RES6    0.0000
    354 H174       2.9667   -1.2841    2.3727 H         6 RES6    0.0000
    355 C129       2.0304   -0.3153    4.7228 C.3       6 RES6    0.0000
    356 C130       1.8229    0.8610    5.6552 C.3       6 RES6    0.0000
    357 H175       2.4888    1.5535    5.4607 H         6 RES6    0.0000
    358 H176       1.9224    0.5640    6.5838 H         6 RES6    0.0000
    359 H177       0.9233    1.2274    5.5241 H         6 RES6    0.0000
    360 C131       0.9834   -1.3627    4.9056 C.3       6 RES6    0.0000
    361 H178       0.0979   -0.9689    4.7602 H         6 RES6    0.0000
    362 H179       1.0356   -1.7221    5.8159 H         6 RES6    0.0000
    363 H180       1.1288   -2.0864    4.2604 H         6 RES6    0.0000
    364 C132       7.1692   -3.0469    5.9121 C.3       6 RES6    0.0000
    365 C133       6.2739   -4.1624    6.4017 C.3       6 RES6    0.0000
    366 H181       5.5610   -4.3198    5.7480 H         6 RES6    0.0000
    367 H182       5.8785   -3.9105    7.2622 H         6 RES6    0.0000
    368 H183       6.8023   -4.9806    6.5120 H         6 RES6    0.0000
    369 C134       8.3847   -2.8511    6.7676 C.3       6 RES6    0.0000
    370 H184       8.9615   -3.6406    6.7008 H         6 RES6    0.0000
    371 H185       8.1111   -2.7245    7.7000 H         6 RES6    0.0000
    372 H186       8.8762   -2.0606    6.4611 H         6 RES6    0.0000
    373 C135       6.3322   -0.5991   -0.3399 C.3       6 RES6    0.0000
    374 H187       6.9677   -0.6863   -1.0941 H         6 RES6    0.0000
    375 H188       5.8359   -1.4501   -0.2466 H         6 RES6    0.0000
    376 C136       4.6808    0.3865   -1.6935 C.2       6 RES6    0.0000
    377 C137       3.7271    1.5083   -1.8836 C.ar      6 RES6    0.0000
    378 C138       3.4822    2.4520   -0.8825 C.ar      6 RES6    0.0000
    379 H189       3.9681    2.4131   -0.0671 H         6 RES6    0.0000
    380 C139       2.5343    3.4428   -1.0730 C.ar      6 RES6    0.0000
    381 H190       2.3698    4.0809   -0.3887 H         6 RES6    0.0000
    382 C140       1.8245    3.5036   -2.2646 C.ar      6 RES6    0.0000
    383 H191       1.1669    4.1776   -2.3923 H         6 RES6    0.0000
    384 C141       2.0767    2.5787   -3.2709 C.ar      6 RES6    0.0000
    385 H192       1.6003    2.6275   -4.0915 H         6 RES6    0.0000
    386 C142       3.0227    1.5837   -3.0772 C.ar      6 RES6    0.0000
    387 H193       3.1901    0.9507   -3.7653 H         6 RES6    0.0000
    388 O47        0.1669    0.1075   -4.9837 O.3       7 RES7    0.0000
    389 O48        1.3857   -3.1324   -2.4348 O.3       7 RES7    0.0000
    390 O49        0.2919   -1.6266   -1.0989 O.3       7 RES7    0.0000
    391 O50       -2.7306   -0.3896   -2.0619 O.3       7 RES7    0.0000
    392 O51       -4.0258    0.2964   -3.7767 O.3       7 RES7    0.0000
    393 O52       -0.6590    0.5931   -7.6176 O.3       7 RES7    0.0000
    394 O53       -1.0547   -0.3446   -9.6164 O.2       7 RES7    0.0000
    395 N7        -0.2675   -1.2778   -4.6490 N.3       7 RES7    0.0000
    396 C143       1.0416   -0.1194   -6.0892 C.3       7 RES7    0.0000
    397 H194       1.6116    0.6873   -6.2441 H         7 RES7    0.0000
    398 C144       1.9149   -1.2967   -5.6293 C.3       7 RES7    0.0000
    399 H195       2.1050   -1.9137   -6.3796 H         7 RES7    0.0000
    400 H196       2.7713   -0.9772   -5.2487 H         7 RES7    0.0000
    401 C145       1.0557   -1.9796   -4.5574 C.3       7 RES7    0.0000
    402 H197       0.9369   -2.9441   -4.7923 H         7 RES7    0.0000
    403 C146       1.5209   -1.8633   -3.0924 C.3       7 RES7    0.0000
    404 H198       2.4401   -1.4784   -3.0070 H         7 RES7    0.0000
    405 C147       0.4613   -1.0286   -2.3749 C.3       7 RES7    0.0000
    406 H199       0.7475   -0.0737   -2.2922 H         7 RES7    0.0000
    407 C148      -0.7693   -1.1616   -3.2763 C.3       7 RES7    0.0000
    408 H200      -1.2124   -2.0284   -3.0476 H         7 RES7    0.0000
    409 C149      -1.8235   -0.0597   -3.1311 C.3       7 RES7    0.0000
    410 H201      -1.3660    0.8030   -2.9167 H         7 RES7    0.0000
    411 C150      -2.7285    0.1445   -4.3387 C.3       7 RES7    0.0000
    412 H202      -2.4654    0.9531   -4.8454 H         7 RES7    0.0000
    413 H203      -2.6941   -0.6391   -4.9432 H         7 RES7    0.0000
    414 C151      -4.0326   -0.5122   -2.6119 C.3       7 RES7    0.0000
    415 C152      -5.0253    0.0503   -1.6350 C.3       7 RES7    0.0000
    416 H204      -4.8180    0.9924   -1.4640 H         7 RES7    0.0000
    417 H205      -4.9775   -0.4527   -0.7951 H         7 RES7    0.0000
    418 H206      -5.9284   -0.0232   -2.0086 H         7 RES7    0.0000
    419 C153      -4.2954   -1.9702   -2.9917 C.3       7 RES7    0.0000
    420 H207      -5.1991   -2.0534   -3.3611 H         7 RES7    0.0000
    421 H208      -4.2147   -2.5346   -2.1947 H         7 RES7    0.0000
    422 H209      -3.6405   -2.2560   -3.6623 H         7 RES7    0.0000
    423 C154       1.0065   -2.8793   -1.0730 C.3       7 RES7    0.0000
    424 C155       0.0562   -3.9613   -0.6270 C.3       7 RES7    0.0000
    425 H210      -0.6526   -4.0691   -1.2951 H         7 RES7    0.0000
    426 H211      -0.3412   -3.7121    0.2335 H         7 RES7    0.0000
    427 H212       0.5445   -4.8051   -0.5294 H         7 RES7    0.0000
    428 C156       2.2096   -2.7557   -0.1865 C.3       7 RES7    0.0000
    429 H213       2.7497   -3.5709   -0.2535 H         7 RES7    0.0000
    430 H214       1.9201   -2.6313    0.7414 H         7 RES7    0.0000
    431 H215       2.7450   -1.9850   -0.4681 H         7 RES7    0.0000
    432 C157       0.2871   -0.4703   -7.3572 C.3       7 RES7    0.0000
    433 H216       0.9174   -0.5592   -8.1155 H         7 RES7    0.0000
    434 H217      -0.1895   -1.3306   -7.2435 H         7 RES7    0.0000
    435 C158      -1.2892    0.5132   -8.7932 C.2       7 RES7    0.0000
    436 C159      -2.3353    1.5512   -8.9888 C.ar      7 RES7    0.0000
    437 C160      -2.8234    2.3190   -7.9289 C.ar      7 RES7    0.0000
    438 H218      -2.4333    2.2407   -7.0664 H         7 RES7    0.0000
    439 C161      -3.8780    3.1956   -8.1368 C.ar      7 RES7    0.0000
    440 H219      -4.2068    3.7204   -7.4164 H         7 RES7    0.0000
    441 C162      -4.4525    3.3088   -9.3914 C.ar      7 RES7    0.0000
    442 H220      -5.1836    3.8992   -9.5290 H         7 RES7    0.0000
    443 C163      -3.9577    2.5567  -10.4479 C.ar      7 RES7    0.0000
    444 H221      -4.3487    2.6382  -11.3099 H         7 RES7    0.0000
    445 C164      -2.8969    1.6863  -10.2520 C.ar      7 RES7    0.0000
    446 H222      -2.5541    1.1830  -10.9811 H         7 RES7    0.0000
    447 O54       -0.0171   -5.3441  -11.1285 O.3       8 RES8    0.0000
    448 O55        3.8544   -3.6591  -10.5739 O.3       8 RES8    0.0000
    449 O56        2.4341   -2.1472   -9.6155 O.3       8 RES8    0.0000
    450 O57        3.2489   -5.0328  -13.6169 O.3       8 RES8    0.0000
    451 O58        1.7031   -5.7189  -15.1308 O.3       8 RES8    0.0000
    452 O59       -2.4560   -5.7748  -12.3292 O.3       8 RES8    0.0000
    453 O60       -4.2163   -4.7353  -13.2579 O.2       8 RES8    0.0000
    454 N8         0.3999   -3.9686  -11.5442 N.3       8 RES8    0.0000
    455 C165      -1.2238   -5.0621  -10.4117 C.3       8 RES8    0.0000
    456 H223      -1.4789   -5.8509   -9.8523 H         8 RES8    0.0000
    457 C166      -0.8490   -3.8775   -9.5043 C.3       8 RES8    0.0000
    458 H224      -0.5907   -4.1885   -8.6006 H         8 RES8    0.0000
    459 H225      -1.6004   -3.2382   -9.4240 H         8 RES8    0.0000
    460 C167       0.3468   -3.2396  -10.2343 C.3       8 RES8    0.0000
    461 H226       0.1646   -2.2695  -10.3957 H         8 RES8    0.0000
    462 C168       1.7324   -3.4051   -9.5819 C.3       8 RES8    0.0000
    463 H227       1.6846   -3.7988   -8.6638 H         8 RES8    0.0000
    464 C169       2.5665   -4.2556  -10.5517 C.3       8 RES8    0.0000
    465 H228       2.6096   -5.2107  -10.2581 H         8 RES8    0.0000
    466 C170       1.8137   -4.1090  -11.8827 C.3       8 RES8    0.0000
    467 H229       2.1128   -3.2576  -12.3132 H         8 RES8    0.0000
    468 C171       2.0238   -5.2433  -12.8867 C.3       8 RES8    0.0000
    469 H230       2.0721   -6.1152  -12.3992 H         8 RES8    0.0000
    470 C172       0.9627   -5.3292  -13.9759 C.3       8 RES8    0.0000
    471 H231       0.2747   -6.0042  -13.7501 H         8 RES8    0.0000
    472 H232       0.5228   -4.4531  -14.1138 H         8 RES8    0.0000
    473 C173       2.9423   -5.0255  -15.0198 C.3       8 RES8    0.0000
    474 C174       3.9890   -5.7754  -15.7632 C.3       8 RES8    0.0000
    475 H233       4.8644   -5.3686  -15.5950 H         8 RES8    0.0000
    476 H234       3.7935   -5.7449  -16.7231 H         8 RES8    0.0000
    477 H235       3.9990   -6.7081  -15.4617 H         8 RES8    0.0000
    478 C175       2.7710   -3.5905  -15.4835 C.3       8 RES8    0.0000
    479 H236       2.1929   -3.1103  -14.8543 H         8 RES8    0.0000
    480 H237       2.3629   -3.5811  -16.3744 H         8 RES8    0.0000
    481 H238       3.6471   -3.1524  -15.5211 H         8 RES8    0.0000
    482 C176       3.8178   -2.4405   -9.8166 C.3       8 RES8    0.0000
    483 C177       4.5219   -2.6520   -8.4969 C.3       8 RES8    0.0000
    484 H239       4.1113   -3.4057   -8.0246 H         8 RES8    0.0000
    485 H240       4.4424   -1.8417   -7.9511 H         8 RES8    0.0000
    486 H241       5.4690   -2.8445   -8.6593 H         8 RES8    0.0000
    487 C178       4.4346   -1.3323  -10.6512 C.3       8 RES8    0.0000
    488 H242       5.3331   -1.5994  -10.9370 H         8 RES8    0.0000
    489 H243       4.4927   -0.5134  -10.1153 H         8 RES8    0.0000
    490 H244       3.8765   -1.1673  -11.4396 H         8 RES8    0.0000
    491 C179      -2.3552   -4.7123  -11.3515 C.3       8 RES8    0.0000
    492 H245      -3.2040   -4.6285  -10.8488 H         8 RES8    0.0000
    493 H246      -2.1711   -3.8497  -11.8019 H         8 RES8    0.0000
    494 C180      -3.4218   -5.6476  -13.2343 C.2       8 RES8    0.0000
    495 C181      -3.4053   -6.7621  -14.2417 C.ar      8 RES8    0.0000
    496 C182      -2.3600   -7.6786  -14.2899 C.ar      8 RES8    0.0000
    497 H247      -1.6668   -7.6437  -13.6415 H         8 RES8    0.0000
    498 C183      -2.3320   -8.6453  -15.2902 C.ar      8 RES8    0.0000
    499 H248      -1.6118   -9.2633  -15.3353 H         8 RES8    0.0000
    500 C184      -3.3544   -8.7050  -16.2174 C.ar      8 RES8    0.0000
    501 H249      -3.3340   -9.3653  -16.8998 H         8 RES8    0.0000
    502 C185      -4.4129   -7.8043  -16.1596 C.ar      8 RES8    0.0000
    503 H250      -5.1192   -7.8570  -16.7928 H         8 RES8    0.0000
    504 C186      -4.4331   -6.8312  -15.1747 C.ar      8 RES8    0.0000
    505 H251      -5.1509   -6.2106  -15.1364 H         8 RES8    0.0000
@<TRIPOS>BOND
     1    1    8 1
     2    2   18 1
     3    3   16 1
     4    4   22 1
     5    5   24 1
     6    6   45 1
     7    7   48 2
     8    8   14 1
     9    9    1 1
    10   10    9 1
    11   11    9 1
    12   12   11 1
    13   13   11 1
    14   14   11 1
    15   15   14 1
    16   16   14 1
    17   17   16 1
    18   18   16 1
    19   19   18 1
    20   20    8 1
    21   21   20 1
    22   22   20 1
    23   23   22 1
    24   24   22 1
    25   25   24 1
    26   26   24 1
    27   27    4 1
    28   28   27 1
    29   29   28 1
    30   30   28 1
    31   31   28 1
    32   32   27 1
    33   33   32 1
    34   34   32 1
    35   35   32 1
    36   36    2 1
    37   37   36 1
    38   38   37 1
    39   39   37 1
    40   40   37 1
    41   41   36 1
    42   42   41 1
    43   43   41 1
    44   44   41 1
    45   45    9 1
    46   46   45 1
    47   47   45 1
    48   48    6 1
    49   49   48 1
    50   50   49 ar
    51   51   50 1
    52   52   50 ar
    53   53   52 1
    54   54   52 ar
    55   55   54 1
    56   56   54 ar
    57   57   56 1
    58   58   49 ar
    59   59   58 1
    60   60   65 1
    61   61   75 1
    62   62   73 1
    63   63  104 1
    64   64  107 2
    65   65   71 1
    66   66   60 1
    67   67   66 1
    68   68   66 1
    69   69   68 1
    70   70   68 1
    71   71   68 1
    72   72   71 1
    73   73   71 1
    74   74   73 1
    75   75   73 1
    76   76   75 1
    77   77   65 1
    78   78   77 1
    79   79   77 1
    80   80   79 1
    81   81   79 1
    82   82   81 1
    83   83   81 1
    84   84   81 1
    85   85   84 1
    86   86   79 1
    87   87   85 1
    88   88   87 1
    89   89   87 1
    90   90   87 1
    91   91   85 1
    92   92   91 1
    93   93   91 1
    94   94   91 1
    95   95   61 1
    96   96   95 1
    97   97   96 1
    98   98   96 1
    99   99   96 1
   100  100   95 1
   101  101  100 1
   102  102  100 1
   103  103  100 1
   104  104   66 1
   105  105  104 1
   106  106  104 1
   107  107   63 1
   108  108  107 1
   109  109  108 ar
   110  110  109 1
   111  111  109 ar
   112  112  111 1
   113  113  111 ar
   114  114  113 1
   115  115  113 ar
   116  116  115 1
   117  117  108 ar
   118  118  117 1
   119  135  140 1
   120  136  150 1
   121  137  148 1
   122  138  179 1
   123  139  182 2
   124  140  146 1
   125  141  135 1
   126  142  141 1
   127  143  141 1
   128  144  143 1
   129  145  143 1
   130  146  143 1
   131  147  146 1
   132  148  146 1
   133  149  148 1
   134  150  148 1
   135  151  150 1
   136  152  140 1
   137  153  152 1
   138  154  155 1
   139  155  152 1
   140  156  155 1
   141  157  155 1
   142  158  157 1
   143  159  157 1
   144  160  157 1
   145  161  154 1
   146  162  161 1
   147  163  162 1
   148  164  162 1
   149  165  162 1
   150  166  161 1
   151  167  166 1
   152  168  166 1
   153  169  166 1
   154  170  136 1
   155  171  170 1
   156  172  171 1
   157  173  171 1
   158  174  171 1
   159  175  170 1
   160  176  175 1
   161  177  175 1
   162  178  175 1
   163  179  141 1
   164  180  179 1
   165  181  179 1
   166  182  138 1
   167  183  182 1
   168  184  183 ar
   169  185  184 1
   170  186  184 ar
   171  187  186 1
   172  188  186 ar
   173  189  188 1
   174  190  188 ar
   175  191  190 1
   176  192  183 ar
   177  193  192 1
   178  211  218 1
   179  212  228 1
   180  213  226 1
   181  214  232 1
   182  215  234 1
   183  216  255 1
   184  217  258 2
   185  218  224 1
   186  219  211 1
   187  220  219 1
   188  221  219 1
   189  222  221 1
   190  223  221 1
   191  224  221 1
   192  225  224 1
   193  226  224 1
   194  227  226 1
   195  228  226 1
   196  229  228 1
   197  230  218 1
   198  231  230 1
   199  232  230 1
   200  233  232 1
   201  234  232 1
   202  235  234 1
   203  236  234 1
   204  237  214 1
   205  238  237 1
   206  239  238 1
   207  240  238 1
   208  241  238 1
   209  242  237 1
   210  243  242 1
   211  244  242 1
   212  245  242 1
   213  246  212 1
   214  247  246 1
   215  248  247 1
   216  249  247 1
   217  250  247 1
   218  251  246 1
   219  252  251 1
   220  253  251 1
   221  254  251 1
   222  255  219 1
   223  256  255 1
   224  257  255 1
   225  258  216 1
   226  259  258 1
   227  260  259 ar
   228  261  260 1
   229  262  260 ar
   230  263  262 1
   231  264  262 ar
   232  265  264 1
   233  266  264 ar
   234  267  266 1
   235  268  259 ar
   236  269  268 1
   237  270  277 1
   238  271  287 1
   239  272  285 1
   240  273  291 1
   241  274  293 1
   242  275  314 1
   243  276  317 2
   244  277  283 1
   245  278  270 1
   246  279  278 1
   247  280  278 1
   248  281  280 1
   249  282  280 1
   250  283  280 1
   251  284  283 1
   252  285  283 1
   253  286  285 1
   254  287  285 1
   255  288  287 1
   256  289  277 1
   257  290  289 1
   258  291  289 1
   259  292  291 1
   260  293  291 1
   261  294  293 1
   262  295  293 1
   263  296  273 1
   264  297  296 1
   265  298  297 1
   266  299  297 1
   267  300  297 1
   268  301  296 1
   269  302  301 1
   270  303  301 1
   271  304  301 1
   272  305  271 1
   273  306  305 1
   274  307  306 1
   275  308  306 1
   276  309  306 1
   277  310  305 1
   278  311  310 1
   279  312  310 1
   280  313  310 1
   281  314  278 1
   282  315  314 1
   283  316  314 1
   284  317  275 1
   285  318  317 1
   286  319  318 ar
   287  320  319 1
   288  321  319 ar
   289  322  321 1
   290  323  321 ar
   291  324  323 1
   292  325  323 ar
   293  326  325 1
   294  327  318 ar
   295  328  327 1
   296  329  336 1
   297  330  344 1
   298  331  346 1
   299  332  350 1
   300  333  352 1
   301  334  373 1
   302  335  376 2
   303  336  342 1
   304  337  329 1
   305  338  337 1
   306  339  337 1
   307  340  339 1
   308  341  339 1
   309  342  339 1
   310  343  342 1
   311  344  342 1
   312  345  344 1
   313  346  344 1
   314  347  346 1
   315  348  336 1
   316  349  348 1
   317  350  348 1
   318  351  350 1
   319  352  350 1
   320  353  352 1
   321  354  352 1
   322  355  332 1
   323  356  355 1
   324  357  356 1
   325  358  356 1
   326  359  356 1
   327  360  355 1
   328  361  360 1
   329  362  360 1
   330  363  360 1
   331  364  330 1
   332  365  364 1
   333  366  365 1
   334  367  365 1
   335  368  365 1
   336  369  364 1
   337  370  369 1
   338  371  369 1
   339  372  369 1
   340  373  337 1
   341  374  373 1
   342  375  373 1
   343  376  334 1
   344  377  376 1
   345  378  377 ar
   346  379  378 1
   347  380  378 ar
   348  381  380 1
   349  382  380 ar
   350  383  382 1
   351  384  382 ar
   352  385  384 1
   353  386  377 ar
   354  387  386 1
   355  388  395 1
   356  389  403 1
   357  390  405 1
   358  391  409 1
   359  392  411 1
   360  393  432 1
   361  394  435 2
   362  395  401 1
   363  396  388 1
   364  397  396 1
   365  398  396 1
   366  399  398 1
   367  400  398 1
   368  401  398 1
   369  402  401 1
   370  403  401 1
   371  404  403 1
   372  405  403 1
   373  406  405 1
   374  407  395 1
   375  408  407 1
   376  409  407 1
   377  410  409 1
   378  411  409 1
   379  412  411 1
   380  413  411 1
   381  414  391 1
   382  415  414 1
   383  416  415 1
   384  417  415 1
   385  418  415 1
   386  419  414 1
   387  420  419 1
   388  421  419 1
   389  422  419 1
   390  423  389 1
   391  424  423 1
   392  425  424 1
   393  426  424 1
   394  427  424 1
   395  428  423 1
   396  429  428 1
   397  430  428 1
   398  431  428 1
   399  432  396 1
   400  433  432 1
   401  434  432 1
   402  435  393 1
   403  436  435 1
   404  437  436 ar
   405  438  437 1
   406  439  437 ar
   407  440  439 1
   408  441  439 ar
   409  442  441 1
   410  443  441 ar
   411  444  443 1
   412  445  436 ar
   413  446  445 1
   414  447  454 1
   415  448  464 1
   416  449  462 1
   417  450  468 1
   418  451  470 1
   419  452  491 1
   420  453  494 2
   421  454  460 1
   422  455  447 1
   423  456  455 1
   424  457  455 1
   425  458  457 1
   426  459  457 1
   427  460  457 1
   428  461  460 1
   429  462  460 1
   430  463  462 1
   431  464  462 1
   432  465  464 1
   433  466  454 1
   434  467  466 1
   435  468  466 1
   436  469  468 1
   437  470  468 1
   438  471  470 1
   439  472  470 1
   440  473  450 1
   441  474  473 1
   442  475  474 1
   443  476  474 1
   444  477  474 1
   445  478  473 1
   446  479  478 1
   447  480  478 1
   448  481  478 1
   449  482  448 1
   450  483  482 1
   451  484  483 1
   452  485  483 1
   453  486  483 1
   454  487  482 1
   455  488  487 1
   456  489  487 1
   457  490  487 1
   458  491  455 1
   459  492  491 1
   460  493  491 1
   461  494  452 1
   462  495  494 1
   463  496  495 ar
   464  497  496 1
   465  498  496 ar
   466  499  498 1
   467  500  498 ar
   468  501  500 1
   469  502  500 ar
   470  503  502 1
   471  504  495 ar
   472  505  504 1
   473    3   36 1
   474    5   27 1
   475   18   20 1
   476   56   58 ar
   477   62   95 1
   478   75   77 1
   479   85   86 1
   480  115  117 ar
   481  137  170 1
   482  150  152 1
   483  160  161 1
   484  190  192 ar
   485  213  246 1
   486  215  237 1
   487  228  230 1
   488  266  268 ar
   489  272  305 1
   490  274  296 1
   491  287  289 1
   492  325  327 ar
   493  331  364 1
   494  333  355 1
   495  346  348 1
   496  384  386 ar
   497  390  423 1
   498  392  414 1
   499  405  407 1
   500  443  445 ar
   501  449  482 1
   502  451  473 1
   503  464  466 1
   504  502  504 ar
@<TRIPOS>SUBSTRUCTURE
     1 RES1 1
     2 RES2 60
     3 RES3 135
     4 RES4 211
     5 RES5 270
     6 RES6 329
     7 RES7 388
     8 RES8 447
     9 SUP9 119

@<TRIPOS>CRYSIN
  28.4130   10.4741   28.7920  90.0000  97.9660  90.0000   4 1

