# MOL2 file generated by ConQuest
# Please check atom types

@<TRIPOS>MOLECULE
YIFRAH
    37    39     1
SMALL
NO_CHARGES
****
Generated from CSD

@<TRIPOS>ATOM
      1 C1        -0.0132    5.9503    5.5253 C.ar      1 RES1    0.0000
      2 C2        -7.0742    4.6294    6.1215 C.ar      1 RES1    0.0000
      3 N1        -2.4240    5.7641    5.4220 N.2       1 RES1    0.0000
      4 N2        -8.3285    3.8862    4.1012 N.pl3     1 RES1    0.0000
      5 C3        -8.2916    4.3624    5.4891 C.ar      1 RES1    0.0000
      6 C4        -1.1748    5.5409    4.8000 C.ar      1 RES1    0.0000
      7 C5        -7.1777    5.0848    7.4372 C.ar      1 RES1    0.0000
      8 H1        -6.3965    5.2627    7.9109 H         1 RES1    0.0000
      9 C6        -5.7479    4.4284    5.5361 C.2       1 RES1    0.0000
     10 H2        -5.6334    3.7120    4.9545 H         1 RES1    0.0000
     11 C7        -1.0363    5.0365    3.5285 C.ar      1 RES1    0.0000
     12 H3        -1.7917    4.7621    3.0614 H         1 RES1    0.0000
     13 C8         1.2558    5.8220    4.9148 C.ar      1 RES1    0.0000
     14 C9        -9.5080    4.5441    6.1056 C.ar      1 RES1    0.0000
     15 H4       -10.2951    4.3498    5.6508 H         1 RES1    0.0000
     16 C10        1.3408    5.3132    3.6002 C.ar      1 RES1    0.0000
     17 H5         2.1724    5.2405    3.1885 H         1 RES1    0.0000
     18 C11       -3.3920    4.9572    5.2259 C.2       1 RES1    0.0000
     19 H6        -3.2529    4.1940    4.7133 H         1 RES1    0.0000
     20 C12        0.2189    4.9283    2.9262 C.ar      1 RES1    0.0000
     21 H7         0.2909    4.5923    2.0617 H         1 RES1    0.0000
     22 C13       -0.0845    6.4479    6.8461 C.ar      1 RES1    0.0000
     23 H8        -0.9133    6.5406    7.2561 H         1 RES1    0.0000
     24 C14        1.0434    6.7935    7.5264 C.ar      1 RES1    0.0000
     25 H9         0.9785    7.1176    8.3958 H         1 RES1    0.0000
     26 C15       -8.3882    5.2820    8.0591 C.ar      1 RES1    0.0000
     27 H10       -8.4156    5.5972    8.9339 H         1 RES1    0.0000
     28 C16        2.4043    6.2002    5.6551 C.ar      1 RES1    0.0000
     29 H11        3.2456    6.1290    5.2631 H         1 RES1    0.0000
     30 C17        2.2965    6.6637    6.9250 C.ar      1 RES1    0.0000
     31 H12        3.0629    6.8966    7.3987 H         1 RES1    0.0000
     32 O1        -9.3043    3.2566    3.7294 O.2       1 RES1    0.0000
     33 O2        -7.3929    4.1414    3.3660 O.2       1 RES1    0.0000
     34 C18       -4.6942    5.2042    5.7824 C.2       1 RES1    0.0000
     35 H13       -4.8063    5.9399    6.3406 H         1 RES1    0.0000
     36 C19       -9.5563    5.0136    7.3933 C.ar      1 RES1    0.0000
     37 H14      -10.3754    5.1493    7.8123 H         1 RES1    0.0000
@<TRIPOS>BOND
     1    1    6 ar
     2    2    5 ar
     3    3    6 1
     4    4    5 1
     5    5   14 ar
     6    6   11 ar
     7    7    2 ar
     8    8    7 1
     9    9    2 1
    10   10    9 1
    11   11   12 1
    12   13    1 ar
    13   14   15 1
    14   16   13 ar
    15   17   16 1
    16   18    3 2
    17   19   18 1
    18   20   11 ar
    19   21   20 1
    20   22    1 ar
    21   23   22 1
    22   24   22 ar
    23   25   24 1
    24   26    7 ar
    25   27   26 1
    26   28   13 ar
    27   29   28 1
    28   30   24 ar
    29   31   30 1
    30   32    4 2
    31   33    4 2
    32   34    9 2
    33   35   34 1
    34   36   14 ar
    35   37   36 1
    36   16   20 ar
    37   18   34 1
    38   26   36 ar
    39   28   30 ar
@<TRIPOS>SUBSTRUCTURE
     1 RES1 1

@<TRIPOS>CRYSIN
  15.4400    7.4165   14.5980  90.0000 117.3470  90.0000  14 1

