# MOL2 file generated by ConQuest
# Please check atom types

@<TRIPOS>MOLECULE
YIFXUJ
    37    39     1
SMALL
USER_CHARGES
****
Generated from CSD

@<TRIPOS>ATOM
      1 C1         4.7156    4.2414    6.3600 C.3       1 RES1    0.0000
      2 H1         5.3872    3.6528    5.9100 H         1 RES1    0.0000
      3 N1         3.4667    3.4607    6.6412 N.pl3     1 RES1    1.0000
      4 C2         2.3904    4.0402    6.1965 C.2       1 RES1    0.0000
      5 H2         1.5108    3.7152    6.3486 H         1 RES1    0.0000
      6 C3         2.6984    5.2670    5.4248 C.3       1 RES1    0.0000
      7 H3         2.3002    6.0878    5.8343 H         1 RES1    0.0000
      8 C4         4.2384    5.3118    5.3886 C.3       1 RES1    0.0000
      9 H4         4.6018    6.2178    5.6061 H         1 RES1    0.0000
     10 O1         2.2894    5.0778    4.0608 O.3       1 RES1    0.0000
     11 C5         3.4413    5.2188    3.2217 C.3       1 RES1    0.0000
     12 O2         4.5517    4.8996    4.0582 O.3       1 RES1    0.0000
     13 O3         3.5615    2.3611    7.3007 O.2       1 RES1   -1.0000
     14 C6         3.3659    4.1800    2.1245 C.3       1 RES1    0.0000
     15 H5         4.1785    4.2221    1.5788 H         1 RES1    0.0000
     16 H6         3.2870    3.2887    2.5237 H         1 RES1    0.0000
     17 H7         2.5839    4.3560    1.5608 H         1 RES1    0.0000
     18 C7         3.5193    6.6385    2.7021 C.3       1 RES1    0.0000
     19 H8         3.5435    7.2621    3.4577 H         1 RES1    0.0000
     20 H9         4.3309    6.7459    2.1634 H         1 RES1    0.0000
     21 H10        2.7327    6.8275    2.1482 H         1 RES1    0.0000
     22 C8         5.2782    4.7483    7.6716 C.3       1 RES1    0.0000
     23 H11        5.4119    3.9850    8.3037 H         1 RES1    0.0000
     24 O4         4.3687    5.6899    8.2317 O.3       1 RES1    0.0000
     25 C9         5.1780    6.6388    8.9411 C.3       1 RES1    0.0000
     26 O5         6.3117    6.8165    8.0868 O.3       1 RES1    0.0000
     27 C10        6.5917    5.5420    7.5187 C.3       1 RES1    0.0000
     28 H12        7.3308    5.0957    8.0031 H         1 RES1    0.0000
     29 H13        6.8408    5.6293    6.5645 H         1 RES1    0.0000
     30 C11        4.4359    7.9355    9.0360 C.3       1 RES1    0.0000
     31 H14        4.1650    8.2233    8.1393 H         1 RES1    0.0000
     32 H15        3.6404    7.8163    9.5953 H         1 RES1    0.0000
     33 H16        5.0170    8.6157    9.4354 H         1 RES1    0.0000
     34 C12        5.5758    6.0930   10.3038 C.3       1 RES1    0.0000
     35 H17        4.7704    5.8680   10.8142 H         1 RES1    0.0000
     36 H18        6.1238    5.2883   10.1863 H         1 RES1    0.0000
     37 H19        6.0915    6.7710   10.7894 H         1 RES1    0.0000
@<TRIPOS>BOND
     1    1    2 1
     2    3    1 1
     3    4    3 2
     4    5    4 1
     5    6    4 1
     6    7    6 1
     7    8    1 1
     8    9    8 1
     9   10    6 1
    10   11   10 1
    11   12    8 1
    12   13    3 1
    13   14   11 1
    14   15   14 1
    15   16   14 1
    16   17   14 1
    17   18   11 1
    18   19   18 1
    19   20   18 1
    20   21   18 1
    21   22    1 1
    22   23   22 1
    23   24   22 1
    24   25   24 1
    25   26   25 1
    26   27   22 1
    27   28   27 1
    28   29   27 1
    29   30   25 1
    30   31   30 1
    31   32   30 1
    32   33   30 1
    33   34   25 1
    34   35   34 1
    35   36   34 1
    36   37   34 1
    37    6    8 1
    38   11   12 1
    39   26   27 1
@<TRIPOS>SUBSTRUCTURE
     1 RES1 1

@<TRIPOS>CRYSIN
   8.9686   10.4636   13.7884  90.0000  90.0000  90.0000  19 1

