# MOL2 file generated by ConQuest
# Please check atom types

@<TRIPOS>MOLECULE
YIFXOD
    74    78     2
SMALL
USER_CHARGES
****
Generated from CSD

@<TRIPOS>ATOM
      1 O1         4.1274    5.1182    2.1573 O.2       1 RES1   -1.0000
      2 O2         2.5726    2.3059    4.7341 O.3       1 RES1    0.0000
      3 O3         3.7436    0.8500    3.4334 O.3       1 RES1    0.0000
      4 O4         0.9731    3.5147    1.0292 O.3       1 RES1    0.0000
      5 O5         1.8471    5.4195    0.1360 O.3       1 RES1    0.0000
      6 N1         3.5541    3.9868    2.3641 N.pl3     1 RES1    1.0000
      7 C1         3.9635    2.7959    2.0361 C.2       1 RES1    0.0000
      8 H1         4.7523    2.6266    1.5344 H         1 RES1    0.0000
      9 C2         3.0539    1.7290    2.5376 C.3       1 RES1    0.0000
     10 H2         2.5989    1.2366    1.7957 H         1 RES1    0.0000
     11 C3         2.0606    2.5100    3.4200 C.3       1 RES1    0.0000
     12 H3         1.1190    2.1882    3.3187 H         1 RES1    0.0000
     13 C4         2.2245    3.9712    3.0399 C.3       1 RES1    0.0000
     14 H4         2.2496    4.5397    3.8623 H         1 RES1    0.0000
     15 C5         1.1143    4.4469    2.1068 C.3       1 RES1    0.0000
     16 H5         0.2556    4.4797    2.6185 H         1 RES1    0.0000
     17 C6         1.3226    5.7883    1.4117 C.3       1 RES1    0.0000
     18 H6         0.4673    6.2777    1.3173 H         1 RES1    0.0000
     19 H7         1.9647    6.3527    1.9111 H         1 RES1    0.0000
     20 C7         3.1969    1.0208    4.7519 C.3       1 RES1    0.0000
     21 C8         2.1910   -0.0728    5.0326 C.3       1 RES1    0.0000
     22 H8         1.8025    0.0607    5.9223 H         1 RES1    0.0000
     23 H9         2.6379   -0.9444    4.9988 H         1 RES1    0.0000
     24 H10        1.4802   -0.0441    4.3583 H         1 RES1    0.0000
     25 C9         4.3323    1.0671    5.7413 C.3       1 RES1    0.0000
     26 H11        4.9337    1.8065    5.5135 H         1 RES1    0.0000
     27 H12        4.8270    0.2219    5.7103 H         1 RES1    0.0000
     28 H13        3.9741    1.2033    6.6433 H         1 RES1    0.0000
     29 C10        1.2013    4.2084   -0.2225 C.3       1 RES1    0.0000
     30 C11        2.1414    3.3811   -1.0598 C.3       1 RES1    0.0000
     31 H14        2.9967    3.2836   -0.5912 H         1 RES1    0.0000
     32 H15        2.2895    3.8256   -1.9206 H         1 RES1    0.0000
     33 H16        1.7499    2.4958   -1.2124 H         1 RES1    0.0000
     34 C12       -0.1305    4.4798   -0.9026 C.3       1 RES1    0.0000
     35 H17       -0.5686    3.6290   -1.1137 H         1 RES1    0.0000
     36 H18        0.0216    4.9830   -1.7295 H         1 RES1    0.0000
     37 H19       -0.7030    5.0020   -0.3028 H         1 RES1    0.0000
     38 O6         2.7788    9.8763    8.7470 O.2       2 RES2   -1.0000
     39 O7         4.0919    6.5951    6.0985 O.3       2 RES2    0.0000
     40 O8         5.9191    7.8077    6.5955 O.3       2 RES2    0.0000
     41 O9         4.8102    7.8443   10.7426 O.3       2 RES2    0.0000
     42 O10        5.0198    9.6466   12.1331 O.3       2 RES2    0.0000
     43 N2         3.4518    8.8425    8.3915 N.pl3     2 RES2    1.0000
     44 C13        2.9897    7.7655    7.8604 C.2       2 RES2    0.0000
     45 H20        2.0650    7.6147    7.7049 H         2 RES2    0.0000
     46 C14        4.0391    6.7874    7.5174 C.3       2 RES2    0.0000
     47 H21        3.9415    5.9278    8.0183 H         2 RES2    0.0000
     48 C15        5.3399    7.5311    7.8678 C.3       2 RES2    0.0000
     49 H22        5.9437    6.9786    8.4428 H         2 RES2    0.0000
     50 C16        4.9374    8.8336    8.5476 C.3       2 RES2    0.0000
     51 H23        5.3263    9.6028    8.0410 H         2 RES2    0.0000
     52 C17        5.3858    8.9124   10.0034 C.3       2 RES2    0.0000
     53 H24        6.3812    8.8196   10.0340 H         2 RES2    0.0000
     54 C18        4.9935   10.1533   10.7893 C.3       2 RES2    0.0000
     55 H25        5.6478   10.8858   10.6638 H         2 RES2    0.0000
     56 H26        4.0908   10.4728   10.5384 H         2 RES2    0.0000
     57 C19        5.4429    6.8026    5.6914 C.3       2 RES2    0.0000
     58 C20        5.4571    7.3533    4.2959 C.3       2 RES2    0.0000
     59 H27        5.0177    6.7198    3.6903 H         2 RES2    0.0000
     60 H28        6.3839    7.4902    4.0084 H         2 RES2    0.0000
     61 H29        4.9791    8.2081    4.2772 H         2 RES2    0.0000
     62 C21        6.2547    5.5324    5.8376 C.3       2 RES2    0.0000
     63 H30        6.2264    5.2321    6.7699 H         2 RES2    0.0000
     64 H31        7.1838    5.7074    5.5788 H         2 RES2    0.0000
     65 H32        5.8799    4.8365    5.2585 H         2 RES2    0.0000
     66 C22        4.4885    8.3230   12.0671 C.3       2 RES2    0.0000
     67 C23        2.9832    8.3243   12.2190 C.3       2 RES2    0.0000
     68 H33        2.5895    8.9416   11.5672 H         2 RES2    0.0000
     69 H34        2.7463    8.6122   13.1254 H         2 RES2    0.0000
     70 H35        2.6379    7.4207   12.0626 H         2 RES2    0.0000
     71 C24        5.1805    7.4644   13.0915 C.3       2 RES2    0.0000
     72 H36        4.8766    6.5370   12.9994 H         2 RES2    0.0000
     73 H37        4.9658    7.7906   13.9902 H         2 RES2    0.0000
     74 H38        6.1497    7.5056   12.9517 H         2 RES2    0.0000
@<TRIPOS>BOND
     1    1    6 1
     2    2   11 1
     3    3    9 1
     4    4   15 1
     5    5   17 1
     6    6    7 2
     7    7    8 1
     8    9    7 1
     9   10    9 1
    10   11    9 1
    11   12   11 1
    12   13    6 1
    13   14   13 1
    14   15   13 1
    15   16   15 1
    16   17   15 1
    17   18   17 1
    18   19   17 1
    19   20    2 1
    20   21   20 1
    21   22   21 1
    22   23   21 1
    23   24   21 1
    24   25   20 1
    25   26   25 1
    26   27   25 1
    27   28   25 1
    28   29    4 1
    29   30   29 1
    30   31   30 1
    31   32   30 1
    32   33   30 1
    33   34   29 1
    34   35   34 1
    35   36   34 1
    36   37   34 1
    37   38   43 1
    38   39   46 1
    39   40   48 1
    40   41   52 1
    41   42   54 1
    42   43   44 2
    43   44   45 1
    44   46   44 1
    45   47   46 1
    46   48   46 1
    47   49   48 1
    48   50   43 1
    49   51   50 1
    50   52   50 1
    51   53   52 1
    52   54   52 1
    53   55   54 1
    54   56   54 1
    55   57   39 1
    56   58   57 1
    57   59   58 1
    58   60   58 1
    59   61   58 1
    60   62   57 1
    61   63   62 1
    62   64   62 1
    63   65   62 1
    64   66   41 1
    65   67   66 1
    66   68   67 1
    67   69   67 1
    68   70   67 1
    69   71   66 1
    70   72   71 1
    71   73   71 1
    72   74   71 1
    73    3   20 1
    74    5   29 1
    75   11   13 1
    76   40   57 1
    77   42   66 1
    78   48   50 1
@<TRIPOS>SUBSTRUCTURE
     1 RES1 1
     2 RES2 38

@<TRIPOS>CRYSIN
   6.0323   10.1048   21.2121  90.0000  90.0610  90.0000   4 1

