# MOL2 file generated by ConQuest
# Please check atom types

@<TRIPOS>MOLECULE
YIFYAQ01
    59    63     1
SMALL
NO_CHARGES
****
Generated from CSD

@<TRIPOS>ATOM
      1 O1        17.0105   15.4155   28.2795 O.3       1 RES1    0.0000
      2 C1        16.8853   14.0699   27.8213 C.3       1 RES1    0.0000
      3 O2        17.4528   13.2859   28.8501 O.3       1 RES1    0.0000
      4 C2        18.5423   14.0293   29.3797 C.3       1 RES1    0.0000
      5 H1        19.3927   13.7622   28.9492 H         1 RES1    0.0000
      6 H2        18.6205   13.8908   30.3569 H         1 RES1    0.0000
      7 C3        18.2041   15.4990   29.0600 C.3       1 RES1    0.0000
      8 H3        18.9374   15.9022   28.5126 H         1 RES1    0.0000
      9 C4        15.4076   13.7619   27.7209 C.3       1 RES1    0.0000
     10 H4        14.9787   13.9308   28.5858 H         1 RES1    0.0000
     11 H5        15.2856   12.8210   27.4743 H         1 RES1    0.0000
     12 H6        15.0000   14.3338   27.0372 H         1 RES1    0.0000
     13 C5        17.6338   13.8718   26.5169 C.3       1 RES1    0.0000
     14 H7        17.2287   14.4293   25.8200 H         1 RES1    0.0000
     15 H8        17.5839   12.9297   26.2514 H         1 RES1    0.0000
     16 H9        18.5720   14.1284   26.6363 H         1 RES1    0.0000
     17 C6        17.9547   16.3554   30.2946 C.3       1 RES1    0.0000
     18 H10       18.8027   16.4162   30.8212 H         1 RES1    0.0000
     19 C7        17.4763   17.7726   29.9640 C.3       1 RES1    0.0000
     20 H11       17.6726   18.0215   29.0155 H         1 RES1    0.0000
     21 C8        15.9614   17.7899   30.2632 C.3       1 RES1    0.0000
     22 H12       15.4317   17.9762   29.4357 H         1 RES1    0.0000
     23 C9        15.6317   16.3982   30.8332 C.3       1 RES1    0.0000
     24 H13       15.1255   15.8713   30.1505 H         1 RES1    0.0000
     25 N1        16.9202   15.7129   31.1308 N.3       1 RES1    0.0000
     26 O3        18.0261   18.7132   30.8871 O.3       1 RES1    0.0000
     27 C10       16.9840   19.6012   31.2805 C.3       1 RES1    0.0000
     28 O4        15.7906   18.8270   31.2296 O.3       1 RES1    0.0000
     29 C11       17.2225   20.0128   32.7077 C.3       1 RES1    0.0000
     30 H14       17.3349   19.2139   33.2638 H         1 RES1    0.0000
     31 H15       16.4551   20.5302   33.0308 H         1 RES1    0.0000
     32 H16       18.0317   20.5630   32.7583 H         1 RES1    0.0000
     33 C12       16.8951   20.7731   30.3225 C.3       1 RES1    0.0000
     34 H17       17.7348   21.2773   30.3439 H         1 RES1    0.0000
     35 H18       16.1557   21.3583   30.5902 H         1 RES1    0.0000
     36 H19       16.7361   20.4412   29.4142 H         1 RES1    0.0000
     37 C13       14.8718   16.3706   32.1628 C.3       1 RES1    0.0000
     38 H20       14.1552   15.6876   32.1505 H         1 RES1    0.0000
     39 H21       14.4737   17.2541   32.3652 H         1 RES1    0.0000
     40 C14       15.9679   16.0079   33.1825 C.3       1 RES1    0.0000
     41 H22       15.9132   16.6197   33.9717 H         1 RES1    0.0000
     42 O5        17.2069   16.2001   32.5065 O.3       1 RES1    0.0000
     43 C15       15.7928   14.5761   33.6306 C.3       1 RES1    0.0000
     44 H23       14.9356   14.4738   34.1153 H         1 RES1    0.0000
     45 H24       15.7824   13.9729   32.8458 H         1 RES1    0.0000
     46 O6        16.8967   14.2412   34.4991 O.3       1 RES1    0.0000
     47 C16       16.9731   12.9498   34.8474 C.2       1 RES1    0.0000
     48 O7        16.1355   12.1313   34.5574 O.2       1 RES1    0.0000
     49 C17       18.2260   12.6517   35.5926 C.ar      1 RES1    0.0000
     50 C18       19.0812   13.6511   36.0184 C.ar      1 RES1    0.0000
     51 H25       18.8545   14.5624   35.8747 H         1 RES1    0.0000
     52 C19       20.2672   13.3255   36.6538 C.ar      1 RES1    0.0000
     53 H26       20.8490   14.0164   36.9490 H         1 RES1    0.0000
     54 C20       20.6099   12.0047   36.8615 C.ar      1 RES1    0.0000
     55 H27       21.4292   11.7838   37.2880 H         1 RES1    0.0000
     56 C21       19.7454   11.0022   36.4415 C.ar      1 RES1    0.0000
     57 H28       19.9781   10.0917   36.5810 H         1 RES1    0.0000
     58 C22       18.5505   11.3172   35.8222 C.ar      1 RES1    0.0000
     59 H29       17.9550   10.6273   35.5550 H         1 RES1    0.0000
@<TRIPOS>BOND
     1    1    2 1
     2    2    3 1
     3    3    4 1
     4    4    5 1
     5    6    4 1
     6    7    1 1
     7    8    7 1
     8    9    2 1
     9   10    9 1
    10   11    9 1
    11   12    9 1
    12   13    2 1
    13   14   13 1
    14   15   13 1
    15   16   13 1
    16   17    7 1
    17   18   17 1
    18   19   17 1
    19   20   19 1
    20   21   19 1
    21   22   21 1
    22   23   21 1
    23   24   23 1
    24   25   17 1
    25   26   19 1
    26   27   26 1
    27   28   21 1
    28   29   27 1
    29   30   29 1
    30   31   29 1
    31   32   29 1
    32   33   27 1
    33   34   33 1
    34   35   33 1
    35   36   33 1
    36   37   23 1
    37   38   37 1
    38   39   37 1
    39   40   37 1
    40   41   40 1
    41   42   25 1
    42   43   40 1
    43   44   43 1
    44   45   43 1
    45   46   43 1
    46   47   46 1
    47   48   47 2
    48   49   47 1
    49   50   49 ar
    50   51   50 1
    51   52   50 ar
    52   53   52 1
    53   54   52 ar
    54   55   54 1
    55   56   54 ar
    56   57   56 1
    57   58   49 ar
    58   59   58 1
    59    4    7 1
    60   23   25 1
    61   27   28 1
    62   40   42 1
    63   56   58 ar
@<TRIPOS>SUBSTRUCTURE
     1 RES1 1

@<TRIPOS>CRYSIN
  10.2308   10.4653   20.1210  90.0000  90.0000  90.0000  19 1

