# MOL2 file generated by ConQuest
# Please check atom types

@<TRIPOS>MOLECULE
YIHHUT
    30    31     1
SMALL
NO_CHARGES
****
Generated from CSD

@<TRIPOS>ATOM
      1 C1         2.3177    3.6157    1.0222 C.2       1 RES1    0.0000
      2 N1         2.5107    4.6067    0.1646 N.pl3     1 RES1    0.0000
      3 H1         2.8628    4.5223   -0.6156 H         1 RES1    0.0000
      4 N2         1.6193    5.4703    1.8596 N.2       1 RES1    0.0000
      5 N3         2.0736    5.7624    0.6941 N.2       1 RES1    0.0000
      6 N4         1.7541    4.1326    2.0985 N.2       1 RES1    0.0000
      7 O1         1.0552   -1.0781    1.3748 O.3       1 RES1    0.0000
      8 C2         0.8300   -4.6696    1.3038 C.ar      1 RES1    0.0000
      9 C3         0.6081   -3.2384    1.5060 C.2       1 RES1    0.0000
     10 H2        -0.1576   -2.9449    1.9443 H         1 RES1    0.0000
     11 N5         1.4619   -2.3956    1.0826 N.2       1 RES1    0.0000
     12 C4         1.6549    1.2076    1.2450 C.3       1 RES1    0.0000
     13 H3         1.4768    1.3278    2.1905 H         1 RES1    0.0000
     14 H4         0.8304    1.3674    0.7599 H         1 RES1    0.0000
     15 C5         2.7070    2.2033    0.7966 C.3       1 RES1    0.0000
     16 H5         3.5322    2.0255    1.2753 H         1 RES1    0.0000
     17 H6         2.8801    2.0718   -0.1479 H         1 RES1    0.0000
     18 C6         0.0404   -5.5928    1.9746 C.ar      1 RES1    0.0000
     19 H7        -0.6273   -5.2962    2.5507 H         1 RES1    0.0000
     20 C7         2.1210   -0.1954    0.9951 C.3       1 RES1    0.0000
     21 H8         2.3370   -0.3142    0.0570 H         1 RES1    0.0000
     22 H9         2.9145   -0.3836    1.5207 H         1 RES1    0.0000
     23 C8         0.2379   -6.9485    1.7936 C.ar      1 RES1    0.0000
     24 H10       -0.2963   -7.5598    2.2484 H         1 RES1    0.0000
     25 C9         1.8173   -5.1429    0.4447 C.ar      1 RES1    0.0000
     26 H11        2.3503   -4.5389   -0.0202 H         1 RES1    0.0000
     27 C10        1.2161   -7.3931    0.9473 C.ar      1 RES1    0.0000
     28 H12        1.3444   -8.3055    0.8251 H         1 RES1    0.0000
     29 C11        2.0119   -6.4916    0.2766 C.ar      1 RES1    0.0000
     30 H13        2.6825   -6.7959   -0.2922 H         1 RES1    0.0000
@<TRIPOS>BOND
     1    1    2 1
     2    2    3 1
     3    4    5 2
     4    5    2 1
     5    6    1 2
     6    7   11 1
     7    8    9 1
     8    9   10 1
     9   11    9 2
    10   12   13 1
    11   14   12 1
    12   15    1 1
    13   16   15 1
    14   17   15 1
    15   18    8 ar
    16   19   18 1
    17   20    7 1
    18   21   20 1
    19   22   20 1
    20   23   18 ar
    21   24   23 1
    22   25    8 ar
    23   26   25 1
    24   27   23 ar
    25   28   27 1
    26   29   25 ar
    27   30   29 1
    28    4    6 1
    29   12   15 1
    30   12   20 1
    31   27   29 ar
@<TRIPOS>SUBSTRUCTURE
     1 RES1 1

@<TRIPOS>CRYSIN
   7.7748   16.5350    9.7161  90.0000 108.9710  90.0000  14 1

