# MOL2 file generated by ConQuest
# Please check atom types

@<TRIPOS>MOLECULE
YIHJEE
    63    65     1
SMALL
NO_CHARGES
****
Generated from CSD

@<TRIPOS>ATOM
      1 N1         7.8165    8.5081   20.0362 N.am      1 RES1    0.0000
      2 C1         7.6548    7.2067   20.7420 C.3       1 RES1    0.0000
      3 C2         6.3169    7.4377   21.4706 C.3       1 RES1    0.0000
      4 C3         6.2823    8.9017   21.7651 C.3       1 RES1    0.0000
      5 C4         6.9522    9.5497   20.6074 C.3       1 RES1    0.0000
      6 C5         6.9949   10.3251   23.5880 C.ar      1 RES1    0.0000
      7 C6         7.7447   10.3347   24.7355 C.ar      1 RES1    0.0000
      8 C7         7.7875   11.5944   25.4692 C.ar      1 RES1    0.0000
      9 C8         7.1221   12.6585   25.0173 C.ar      1 RES1    0.0000
     10 C9         6.4087   12.5687   23.8926 C.ar      1 RES1    0.0000
     11 C10        6.3069   11.3945   23.1488 C.ar      1 RES1    0.0000
     12 N2        10.8559    8.0301   18.2844 N.3       1 RES1    0.0000
     13 C11       11.8739    7.6302   19.1197 C.2       1 RES1    0.0000
     14 N3        13.0173    8.1510   18.7998 N.2       1 RES1    0.0000
     15 C12       12.7437    8.8707   17.7031 C.2       1 RES1    0.0000
     16 C13       11.4485    8.8578   17.3552 C.2       1 RES1    0.0000
     17 N4        13.7507    9.6107   16.9998 N.pl3     1 RES1    0.0000
     18 O1        14.8605    9.7305   17.4720 O.2       1 RES1    0.0000
     19 O2        13.4517   10.0631   15.8954 O.2       1 RES1    0.0000
     20 O3         7.0231    9.0578   23.0041 O.3       1 RES1    0.0000
     21 C14        8.8081    6.9468   21.6458 C.2       1 RES1    0.0000
     22 O4         9.8561    7.5307   21.6230 O.2       1 RES1    0.0000
     23 O5         8.5564    5.9074   22.4430 O.3       1 RES1    0.0000
     24 C15        9.6362    5.4967   23.3036 C.3       1 RES1    0.0000
     25 C16        8.6745    8.7894   19.0791 C.2       1 RES1    0.0000
     26 O6         8.8336    9.9583   18.6576 O.2       1 RES1    0.0000
     27 C17        9.4380    7.6783   18.4088 C.3       1 RES1    0.0000
     28 C18        8.8227    7.3810   17.0455 C.3       1 RES1    0.0000
     29 C19        7.5012    6.6485   17.1445 C.3       1 RES1    0.0000
     30 C20        6.9013    6.5159   15.7990 C.3       1 RES1    0.0000
     31 C21        6.7195    5.1010   15.2836 C.3       1 RES1    0.0000
     32 C22        6.2678    5.0283   13.9304 C.3       1 RES1    0.0000
     33 C23        6.6877    3.6937   13.3414 C.3       1 RES1    0.0000
     34 H1         7.5839    6.5030   20.0921 H         1 RES1    0.0000
     35 H2         5.5852    7.2003   20.8969 H         1 RES1    0.0000
     36 H3         6.2787    6.8976   22.2653 H         1 RES1    0.0000
     37 H4         5.3816    9.2097   21.8819 H         1 RES1    0.0000
     38 H5         7.4821   10.2994   20.8892 H         1 RES1    0.0000
     39 H6         6.3069    9.8438   19.9600 H         1 RES1    0.0000
     40 H7         8.2337    9.5711   25.0478 H         1 RES1    0.0000
     41 H8         8.2683   11.6586   26.2969 H         1 RES1    0.0000
     42 H9         7.2049   13.4851   25.4972 H         1 RES1    0.0000
     43 H10        5.9315   13.3557   23.6210 H         1 RES1    0.0000
     44 H11        5.7652   11.3592   22.3567 H         1 RES1    0.0000
     45 H12       11.7421    7.0313   19.8585 H         1 RES1    0.0000
     46 H13       11.0150    9.2952   16.6190 H         1 RES1    0.0000
     47 H14        9.3908    4.7385   23.8368 H         1 RES1    0.0000
     48 H15        9.8861    6.2250   23.8774 H         1 RES1    0.0000
     49 H16       10.3778    5.2657   22.7400 H         1 RES1    0.0000
     50 H17        9.3689    6.8912   18.9547 H         1 RES1    0.0000
     51 H18        8.7018    8.2162   16.5860 H         1 RES1    0.0000
     52 H19        9.4289    6.8410   16.5327 H         1 RES1    0.0000
     53 H20        7.6339    5.7994   17.5710 H         1 RES1    0.0000
     54 H21        6.9149    7.1703   17.6954 H         1 RES1    0.0000
     55 H22        5.9597    6.6816   15.8726 H         1 RES1    0.0000
     56 H23        7.2612    7.1628   15.1871 H         1 RES1    0.0000
     57 H24        7.6620    4.9898   15.1465 H         1 RES1    0.0000
     58 H25        6.4623    4.4701   15.9589 H         1 RES1    0.0000
     59 H26        5.3325    4.9556   14.1310 H         1 RES1    0.0000
     60 H27        6.3596    5.7609   13.3185 H         1 RES1    0.0000
     61 H28        6.1333    3.6156   12.5645 H         1 RES1    0.0000
     62 H29        6.5604    2.9269   13.9050 H         1 RES1    0.0000
     63 H30        7.6075    3.7461   13.0748 H         1 RES1    0.0000
@<TRIPOS>BOND
     1    1    2 1
     2    2    3 1
     3    3    4 1
     4    4    5 1
     5    5    1 1
     6    6    7 ar
     7    7    8 ar
     8    8    9 ar
     9    9   10 ar
    10   10   11 ar
    11   11    6 ar
    12   12   13 1
    13   13   14 2
    14   14   15 1
    15   15   16 2
    16   16   12 1
    17   17   15 1
    18   18   17 2
    19   19   17 2
    20   20    4 1
    21   21    2 1
    22   22   21 2
    23   23   21 1
    24   24   23 1
    25   25    1 1
    26   26   25 2
    27   27   12 1
    28   28   27 1
    29   29   28 1
    30   30   29 1
    31   31   30 1
    32   32   31 1
    33   33   32 1
    34   34    2 1
    35   35    3 1
    36   36    3 1
    37   37    4 1
    38   38    5 1
    39   39    5 1
    40   40    7 1
    41   41    8 1
    42   42    9 1
    43   43   10 1
    44   44   11 1
    45   45   13 1
    46   46   16 1
    47   47   24 1
    48   48   24 1
    49   49   24 1
    50   50   27 1
    51   51   28 1
    52   52   28 1
    53   53   29 1
    54   54   29 1
    55   55   30 1
    56   56   30 1
    57   57   31 1
    58   58   31 1
    59   59   32 1
    60   60   32 1
    61   61   33 1
    62   62   33 1
    63   63   33 1
    64    6   20 1
    65   25   27 1
@<TRIPOS>SUBSTRUCTURE
     1 RES1 1

@<TRIPOS>CRYSIN
   9.0890   10.6940   25.3880  90.0000  90.0000  90.0000  19 1

