# MOL2 file generated by ConQuest
# Please check atom types

@<TRIPOS>MOLECULE
YIHJAB
    66    67     3
SMALL
NO_CHARGES
****
Generated from CSD

@<TRIPOS>ATOM
      1 O1         8.1741    3.9478    3.6973 O.3       1 RES1    0.0000
      2 O2         8.7089    8.7149    9.4111 O.3       2 RES2    0.0000
      3 N1         8.2704    7.7950    6.2807 N.pl3     2 RES2    0.0000
      4 N2         7.9669    9.9117    6.4195 N.2       2 RES2    0.0000
      5 C1         9.6982    0.7139    3.1987 C.ar      1 RES1    0.0000
      6 N3         8.6447    7.3274    9.6362 N.2       2 RES2    0.0000
      7 N4         8.5592    3.0155    6.8879 N.2       1 RES1    0.0000
      8 N5         8.8586    5.1053    6.8055 N.pl3     1 RES1    0.0000
      9 H1         8.7089    5.9428    6.6869 H         1 RES1    0.0000
     10 N6         6.9548    8.0902    6.0596 N.2       2 RES2    0.0000
     11 C2         7.2797    5.4628    9.9840 C.ar      2 RES2    0.0000
     12 C3         9.5017    2.1454    3.4681 C.2       1 RES1    0.0000
     13 N7         6.7596    9.3713    6.1058 N.2       2 RES2    0.0000
     14 N8         8.3105    2.5613    3.4058 N.2       1 RES1    0.0000
     15 H2         7.6460    2.0554    3.2047 Du        3 SUP3    0.0000
     16 C4         7.9629    4.1615    6.6607 C.2       1 RES1    0.0000
     17 N9         9.8547    3.3087    7.2096 N.2       1 RES1    0.0000
     18 C5         8.8600    8.9468    6.5180 C.2       2 RES2    0.0000
     19 N10       10.0365    4.5908    7.1654 N.2       1 RES1    0.0000
     20 C6         8.3974    4.6502   10.1891 C.ar      2 RES2    0.0000
     21 H3         9.2530    5.0162   10.1871 H         2 RES2    0.0000
     22 C7         7.4254    6.9346    9.7468 C.2       2 RES2    0.0000
     23 C8         6.7877    4.2765    3.7656 C.3       1 RES1    0.0000
     24 H4         6.3438    3.9440    2.9695 H         1 RES1    0.0000
     25 H5         6.6914    5.2414    3.7777 H         1 RES1    0.0000
     26 C9        10.3012    9.1701    6.7954 C.3       2 RES2    0.0000
     27 H6        10.4683   10.1244    6.8356 H         2 RES2    0.0000
     28 H7        10.8213    8.8098    6.0596 H         2 RES2    0.0000
     29 C10       10.7772    8.5396    8.0821 C.3       2 RES2    0.0000
     30 H8        10.6247    7.5823    8.0339 H         2 RES2    0.0000
     31 H9        11.7331    8.6804    8.1625 H         2 RES2    0.0000
     32 C11        8.2182    3.2924   10.3922 C.ar      2 RES2    0.0000
     33 H10        8.9536    2.7491   10.5651 H         2 RES2    0.0000
     34 C12        6.0149    4.8514    9.9840 C.ar      2 RES2    0.0000
     35 H11        5.2542    5.3602    9.8232 H         2 RES2    0.0000
     36 C13        8.6260   -0.1495    3.1062 C.ar      1 RES1    0.0000
     37 H12        7.7597    0.1869    3.1504 H         1 RES1    0.0000
     38 C14        6.5297    4.3666    6.2868 C.3       1 RES1    0.0000
     39 H13        6.3599    5.3200    6.2244 H         1 RES1    0.0000
     40 H14        5.9708    4.0149    6.9965 H         1 RES1    0.0000
     41 C15        6.1206    3.7073    4.9679 C.3       1 RES1    0.0000
     42 H15        6.3238    2.7606    5.0161 H         1 RES1    0.0000
     43 H16        5.1606    3.7955    4.8613 H         1 RES1    0.0000
     44 C16        6.2289    7.7692    9.6644 C.3       2 RES2    0.0000
     45 H17        6.4842    8.6823    9.5196 H         2 RES2    0.0000
     46 H18        5.7355    7.7021   10.4867 H         2 RES2    0.0000
     47 H19        5.6794    7.4702    8.9366 H         2 RES2    0.0000
     48 C17       10.9630    0.1792    3.0620 C.ar      1 RES1    0.0000
     49 H20       11.6983    0.7484    3.0941 H         1 RES1    0.0000
     50 C18       10.1073   -2.0180    2.7885 C.ar      1 RES1    0.0000
     51 H21       10.2450   -2.9235    2.6237 H         1 RES1    0.0000
     52 C19       10.6649    3.0184    3.8400 C.3       1 RES1    0.0000
     53 H22       10.3574    3.9152    3.9908 H         1 RES1    0.0000
     54 H23       11.3066    3.0164    3.1263 H         1 RES1    0.0000
     55 H24       11.0753    2.6820    4.6402 H         1 RES1    0.0000
     56 C20        8.8252   -1.5293    2.9413 C.ar      1 RES1    0.0000
     57 H25        8.0992   -2.1109    2.9373 H         1 RES1    0.0000
     58 C21        5.9040    3.5521   10.2132 C.ar      2 RES2    0.0000
     59 H26        5.0550    3.1793   10.2876 H         2 RES2    0.0000
     60 C22        6.9816    2.7529   10.3419 C.ar      2 RES2    0.0000
     61 H27        6.8733    1.8302   10.3962 H         2 RES2    0.0000
     62 C23       11.1716   -1.1700    2.8770 C.ar      1 RES1    0.0000
     63 H28       12.0379   -1.5025    2.8127 H         1 RES1    0.0000
     64 C24       10.1020    9.0771    9.3166 C.3       2 RES2    0.0000
     65 H29       10.5673    8.7437   10.1007 H         2 RES2    0.0000
     66 H30       10.1755   10.0449    9.3206 H         2 RES2    0.0000
@<TRIPOS>BOND
     1    1   14 1
     2    2    6 1
     3    3   10 1
     4    4   13 1
     5    5   12 1
     6    6   22 2
     7    7   16 2
     8    8    9 1
     9   10   13 2
    10   11   20 ar
    11   12   14 2
    12   16    8 1
    13   17    7 1
    14   18    3 1
    15   19    8 1
    16   20   21 1
    17   22   11 1
    18   23    1 1
    19   24   23 1
    20   25   23 1
    21   26   18 1
    22   27   26 1
    23   28   26 1
    24   29   26 1
    25   30   29 1
    26   31   29 1
    27   32   20 ar
    28   33   32 1
    29   34   11 ar
    30   35   34 1
    31   36    5 ar
    32   37   36 1
    33   38   16 1
    34   39   38 1
    35   40   38 1
    36   41   23 1
    37   42   41 1
    38   43   41 1
    39   44   22 1
    40   45   44 1
    41   46   44 1
    42   47   44 1
    43   48    5 ar
    44   49   48 1
    45   50   51 1
    46   52   12 1
    47   53   52 1
    48   54   52 1
    49   55   52 1
    50   56   36 ar
    51   57   56 1
    52   58   34 ar
    53   59   58 1
    54   60   32 ar
    55   61   60 1
    56   62   48 ar
    57   63   62 1
    58   64    2 1
    59   65   64 1
    60   66   64 1
    61    4   18 2
    62   17   19 2
    63   29   64 1
    64   38   41 1
    65   50   56 ar
    66   50   62 ar
    67   58   60 ar
@<TRIPOS>SUBSTRUCTURE
     1 RES1 1
     2 RES2 2
     3 SUP3 15

@<TRIPOS>CRYSIN
  13.3695    9.5821   20.1048  90.0000  90.0000  90.0000  29 1

