# MOL2 file generated by ConQuest
# Please check atom types

@<TRIPOS>MOLECULE
YIHLEI
    16    16     1
SMALL
USER_CHARGES
****
Generated from CSD

@<TRIPOS>ATOM
      1 O1         6.5274    3.3358    4.3065 O.3       1 RES1    0.0000
      2 N1         1.8196    0.9845    2.7596 N.2       1 RES1    0.0000
      3 N2         5.3512    2.7733    3.7349 N.2       1 RES1    0.0000
      4 N3         4.7474    2.5145    5.9940 N.3       1 RES1    0.0000
      5 N4         2.3016    1.3418    4.9414 N.2       1 RES1    0.0000
      6 C1         3.3127    1.7756    4.1926 C.2       1 RES1    0.0000
      7 N5         3.0393    1.5675    2.9044 N.3       1 RES1    0.0000
      8 C2         1.4338    0.8779    4.0204 C.2       1 RES1    0.0000
      9 C3         4.5561    2.3939    4.6688 C.2       1 RES1    0.0000
     10 N6         0.2134    0.3125    4.4312 N.2       1 RES1    0.0000
     11 N7        -0.4787   -0.1404    3.5010 N.1       1 RES1    1.0000
     12 N8        -1.1974   -0.5882    2.7703 N.2       1 RES1   -1.0000
     13 H1         4.1338    2.1469    6.5627 H         1 RES1    0.0000
     14 H2         3.5294    1.7866    2.1876 H         1 RES1    0.0000
     15 H3         5.4485    2.9042    6.2632 H         1 RES1    0.0000
     16 H4         6.9098    3.7644    3.5673 H         1 RES1    0.0000
@<TRIPOS>BOND
     1    1    3 1
     2    2    7 1
     3    3    9 2
     4    4    9 1
     5    5    6 2
     6    6    7 1
     7    7   14 1
     8    8    2 2
     9    9    6 1
    10   10    8 1
    11   11   10 2
    12   12   11 2
    13   13    4 1
    14   15    4 1
    15   16    1 1
    16    5    8 1
@<TRIPOS>SUBSTRUCTURE
     1 RES1 1

@<TRIPOS>CRYSIN
  10.6160    7.3524    9.8450  90.0000 112.7800  90.0000  14 1

