# MOL2 file generated by ConQuest
# Please check atom types

@<TRIPOS>MOLECULE
YIHSIU
    84    88     2
SMALL
NO_CHARGES
****
Generated from CSD

@<TRIPOS>ATOM
      1 C1        -2.7960    1.6558   -1.6365 C.ar      1 RES1    0.0000
      2 C2        -1.5019    2.0000   -1.9408 C.ar      1 RES1    0.0000
      3 H1        -1.2768    2.2916   -2.7946 H         1 RES1    0.0000
      4 C3        -0.5424    1.9028   -0.9552 C.ar      1 RES1    0.0000
      5 H2         0.3387    2.1272   -1.1496 H         1 RES1    0.0000
      6 C4        -0.8746    1.4723    0.3299 C.ar      1 RES1    0.0000
      7 C5        -2.1985    1.1025    0.5798 C.ar      1 RES1    0.0000
      8 H3        -2.4313    0.7817    1.4217 H         1 RES1    0.0000
      9 C6        -3.1615    1.2010   -0.3913 C.ar      1 RES1    0.0000
     10 H4        -4.0431    0.9665   -0.2121 H         1 RES1    0.0000
     11 C7         0.0842    1.3928    1.4204 C.2       1 RES1    0.0000
     12 H5        -0.2404    1.0482    2.2213 H         1 RES1    0.0000
     13 C8         1.3606    1.7470    1.4197 C.2       1 RES1    0.0000
     14 H6         1.7309    2.1115    0.6478 H         1 RES1    0.0000
     15 C9         2.2032    1.5792    2.6090 C.2       1 RES1    0.0000
     16 C10        3.6515    1.7124    2.4399 C.2       1 RES1    0.0000
     17 C11        4.6437    1.5805    3.3841 C.2       1 RES1    0.0000
     18 C12        4.5973    1.3076    4.8356 C.3       1 RES1    0.0000
     19 H7         4.4771    0.3663    4.9802 H         1 RES1    0.0000
     20 H8         3.8644    1.7879    5.2278 H         1 RES1    0.0000
     21 H9         5.4197    1.5916    5.2407 H         1 RES1    0.0000
     22 C13        7.1379    1.7377    3.1183 C.ar      1 RES1    0.0000
     23 C14        7.9040    2.8721    2.9955 C.ar      1 RES1    0.0000
     24 H10        7.5369    3.6532    2.6478 H         1 RES1    0.0000
     25 C15        9.2255    2.8388    3.3958 C.ar      1 RES1    0.0000
     26 H11        9.7439    3.6065    3.3095 H         1 RES1    0.0000
     27 C16        9.7946    1.7030    3.9183 C.ar      1 RES1    0.0000
     28 C17        9.0046    0.5859    4.0432 C.ar      1 RES1    0.0000
     29 H12        9.3668   -0.1881    4.4093 H         1 RES1    0.0000
     30 C18        7.6843    0.5872    3.6367 C.ar      1 RES1    0.0000
     31 H13        7.1695   -0.1840    3.7129 H         1 RES1    0.0000
     32 C19       11.2366    1.6884    4.3607 C.3       1 RES1    0.0000
     33 H14       11.6762    2.4811    4.0456 H         1 RES1    0.0000
     34 H15       11.6748    0.9142    3.9982 H         1 RES1    0.0000
     35 H16       11.2773    1.6587    5.3192 H         1 RES1    0.0000
     36 N1        -3.8192    1.7740   -2.6732 N.pl3     1 RES1    0.0000
     37 N2         4.2173    1.9640    1.2196 N.2       1 RES1    0.0000
     38 N3         5.5068    1.9853    1.3562 N.2       1 RES1    0.0000
     39 N4         5.7821    1.7584    2.6780 N.pl3     1 RES1    0.0000
     40 O1        -4.9786    1.4847   -2.3888 O.2       1 RES1    0.0000
     41 O2        -3.4889    2.1491   -3.7885 O.2       1 RES1    0.0000
     42 O3         1.7308    1.2996    3.7064 O.2       1 RES1    0.0000
     43 C20       21.1824   -1.6857    4.9626 C.ar      2 RES2    0.0000
     44 C21       21.5203   -1.2863    3.6967 C.ar      2 RES2    0.0000
     45 H17       22.4036   -1.0917    3.4797 H         2 RES2    0.0000
     46 C22       20.5227   -1.1797    2.7511 C.ar      2 RES2    0.0000
     47 H18       20.7359   -0.8852    1.8952 H         2 RES2    0.0000
     48 C23       19.2028   -1.5020    3.0528 C.ar      2 RES2    0.0000
     49 C24       18.9002   -1.8881    4.3614 C.ar      2 RES2    0.0000
     50 H19       18.0208   -2.0882    4.5896 H         2 RES2    0.0000
     51 C25       19.8906   -1.9787    5.3208 C.ar      2 RES2    0.0000
     52 H20       19.6859   -2.2323    6.1918 H         2 RES2    0.0000
     53 C26       18.2146   -1.4261    1.9864 C.2       2 RES2    0.0000
     54 H21       18.5303   -1.1276    1.1641 H         2 RES2    0.0000
     55 C27       16.9322   -1.7230    2.0333 C.2       2 RES2    0.0000
     56 H22       16.5625   -2.0193    2.8338 H         2 RES2    0.0000
     57 C28       16.0717   -1.5978    0.8448 C.2       2 RES2    0.0000
     58 C29       14.6199   -1.6511    1.0560 C.2       2 RES2    0.0000
     59 C30       13.5988   -1.5992    0.1291 C.2       2 RES2    0.0000
     60 C31       13.6068   -1.4900   -1.3466 C.3       2 RES2    0.0000
     61 H23       12.7689   -1.8026   -1.6952 H         2 RES2    0.0000
     62 H24       14.3211   -2.0222   -1.7032 H         2 RES2    0.0000
     63 H25       13.7351   -0.5719   -1.5979 H         2 RES2    0.0000
     64 C32       11.1052   -1.6391    0.4859 C.ar      2 RES2    0.0000
     65 C33       10.2923   -0.5699    0.7958 C.ar      2 RES2    0.0000
     66 H26       10.6383    0.1844    1.2149 H         2 RES2    0.0000
     67 C34        8.9475   -0.6458    0.4693 C.ar      2 RES2    0.0000
     68 H27        8.3952    0.0737    0.6728 H         2 RES2    0.0000
     69 C35        8.4015   -1.7483   -0.1449 C.ar      2 RES2    0.0000
     70 C36        9.2489   -2.7949   -0.4438 C.ar      2 RES2    0.0000
     71 H28        8.9065   -3.5465   -0.8709 H         2 RES2    0.0000
     72 C37       10.5931   -2.7563   -0.1249 C.ar      2 RES2    0.0000
     73 H29       11.1444   -3.4787   -0.3216 H         2 RES2    0.0000
     74 C38        6.9246   -1.8242   -0.4693 C.3       2 RES2    0.0000
     75 H30        6.5178   -2.5192    0.0543 H         2 RES2    0.0000
     76 H31        6.8114   -2.0195   -1.4023 H         2 RES2    0.0000
     77 H32        6.5084   -0.9843   -0.2646 H         2 RES2    0.0000
     78 N5        22.2499   -1.7913    5.9730 N.pl3     2 RES2    0.0000
     79 N6        14.0766   -1.7085    2.3115 N.2       2 RES2    0.0000
     80 N7        12.7944   -1.6857    2.2155 N.2       2 RES2    0.0000
     81 N8        12.4898   -1.6247    0.8841 N.pl3     2 RES2    0.0000
     82 O4        23.4000   -1.5872    5.6279 O.2       2 RES2    0.0000
     83 O5        21.9411   -2.0599    7.1222 O.2       2 RES2    0.0000
     84 O6        16.5262   -1.4247   -0.2782 O.2       2 RES2    0.0000
@<TRIPOS>BOND
     1    1    2 ar
     2    2    3 1
     3    4    2 ar
     4    5    4 1
     5    6    4 ar
     6    7    6 ar
     7    8    7 1
     8    9    1 ar
     9   10    9 1
    10   11    6 1
    11   12   11 1
    12   13   11 2
    13   14   13 1
    14   15   13 1
    15   16   15 1
    16   17   16 2
    17   18   17 1
    18   19   18 1
    19   20   18 1
    20   21   18 1
    21   22   23 ar
    22   23   24 1
    23   25   23 ar
    24   26   25 1
    25   27   25 ar
    26   28   27 ar
    27   29   28 1
    28   30   22 ar
    29   31   30 1
    30   32   27 1
    31   33   32 1
    32   34   32 1
    33   35   32 1
    34   36    1 1
    35   37   16 1
    36   38   37 2
    37   39   17 1
    38   40   36 2
    39   41   36 2
    40   42   15 2
    41   43   44 ar
    42   44   45 1
    43   46   44 ar
    44   47   46 1
    45   48   46 ar
    46   49   48 ar
    47   50   49 1
    48   51   43 ar
    49   52   51 1
    50   53   48 1
    51   54   53 1
    52   55   53 2
    53   56   55 1
    54   57   55 1
    55   58   57 1
    56   59   58 2
    57   60   59 1
    58   61   60 1
    59   62   60 1
    60   63   60 1
    61   64   65 ar
    62   65   66 1
    63   67   65 ar
    64   68   67 1
    65   69   67 ar
    66   70   69 ar
    67   71   70 1
    68   72   64 ar
    69   73   72 1
    70   74   69 1
    71   75   74 1
    72   76   74 1
    73   77   74 1
    74   78   43 1
    75   79   58 1
    76   80   79 2
    77   81   59 1
    78   82   78 2
    79   83   78 2
    80   84   57 2
    81    7    9 ar
    82   22   39 1
    83   28   30 ar
    84   38   39 1
    85   49   51 ar
    86   64   81 1
    87   70   72 ar
    88   80   81 1
@<TRIPOS>SUBSTRUCTURE
     1 RES1 1
     2 RES2 43

@<TRIPOS>CRYSIN
  37.0489   13.3154    6.9170  90.0000  93.7710  90.0000  14 1

