# MOL2 file generated by ConQuest
# Please check atom types

@<TRIPOS>MOLECULE
YIJBEY
    28    31     1
SMALL
NO_CHARGES
****
Generated from CSD

@<TRIPOS>ATOM
      1 N1         3.9889    1.6765    4.1237 N.3       1 RES1    0.0000
      2 N2         5.6066    3.5817    5.6257 N.2       1 RES1    0.0000
      3 C1         4.7628    1.2924    5.3514 C.3       1 RES1    0.0000
      4 C2         5.0261    2.4195    6.2755 C.3       1 RES1    0.0000
      5 C3         5.1657    3.9073    4.4710 C.2       1 RES1    0.0000
      6 C4         4.1695    3.0841    3.7278 C.3       1 RES1    0.0000
      7 C5         2.9029    2.5982    4.2920 C.3       1 RES1    0.0000
      8 C6         1.7035    2.3928    3.4077 C.ar      1 RES1    0.0000
      9 C7         0.5495    3.0106    3.7190 C.ar      1 RES1    0.0000
     10 C8        -0.5773    2.8821    2.9262 C.ar      1 RES1    0.0000
     11 C9        -0.4926    2.1190    1.7997 C.ar      1 RES1    0.0000
     12 C10        0.6484    1.4627    1.4524 C.ar      1 RES1    0.0000
     13 C11        1.7596    1.6013    2.2666 C.ar      1 RES1    0.0000
     14 C12        5.6927    5.1179    3.8211 C.ar      1 RES1    0.0000
     15 C13        6.8764    5.7458    4.2657 C.ar      1 RES1    0.0000
     16 C14        7.3735    6.8562    3.6957 C.ar      1 RES1    0.0000
     17 C15        6.7082    7.4339    2.6450 C.ar      1 RES1    0.0000
     18 C16        5.5476    6.8696    2.1518 C.ar      1 RES1    0.0000
     19 C17        5.0658    5.7207    2.7180 C.ar      1 RES1    0.0000
     20 N3        -1.6795    2.0154    0.9164 N.pl3     1 RES1    0.0000
     21 O1        -1.5753    1.3776   -0.1119 O.2       1 RES1    0.0000
     22 O2        -2.6973    2.5682    1.2637 O.2       1 RES1    0.0000
     23 H1         4.2633    3.1559    2.5293 H         1 RES1    0.0000
     24 H2         2.9884    2.8888    5.3309 H         1 RES1    0.0000
     25 H3         4.2559    0.5009    5.8368 H         1 RES1    0.0000
     26 H4         5.8452    1.0687    5.0196 H         1 RES1    0.0000
     27 H5         5.5046    2.1540    6.9750 H         1 RES1    0.0000
     28 H6         3.9619    2.4713    6.5275 H         1 RES1    0.0000
@<TRIPOS>BOND
     1    1    3 1
     2    2    4 1
     3    3    4 1
     4    4   27 1
     5    5    2 2
     6    6    1 1
     7    7    1 1
     8    8    7 1
     9    9    8 ar
    10   10    9 ar
    11   11   10 ar
    12   12   11 ar
    13   13    8 ar
    14   14    5 1
    15   15   14 ar
    16   16   15 ar
    17   17   16 ar
    18   18   17 ar
    19   19   14 ar
    20   20   11 1
    21   21   20 2
    22   22   20 2
    23   23    6 1
    24   24    7 1
    25   25    3 1
    26   26    3 1
    27   28    4 1
    28    5    6 1
    29    6    7 1
    30   12   13 ar
    31   18   19 ar
@<TRIPOS>SUBSTRUCTURE
     1 RES1 1

@<TRIPOS>CRYSIN
   9.0570   16.6980    9.9520  90.0000 102.1800  90.0000 231 1

