# MOL2 file generated by ConQuest
# Please check atom types

@<TRIPOS>MOLECULE
YIJBUO
    28    31     1
SMALL
NO_CHARGES
****
Generated from CSD

@<TRIPOS>ATOM
      1 O1        -1.7635   -0.6173   -0.7119 O.3       1 RES1    0.0000
      2 O2        -0.6434   -0.4910    2.7650 O.3       1 RES1    0.0000
      3 O3        -3.7508    0.8148    0.6775 O.2       1 RES1    0.0000
      4 O4        -3.3469    5.5472   -3.6282 O.2       1 RES1    0.0000
      5 C1        -0.8808    0.4948   -0.6316 C.3       1 RES1    0.0000
      6 C2        -0.6797   -0.8950    1.4868 C.2       1 RES1    0.0000
      7 C3        -2.7040    0.6009    1.2369 C.2       1 RES1    0.0000
      8 C4        -1.8821    2.1973    5.0646 C.3       1 RES1    0.0000
      9 C5        -0.8162    3.2968    3.0711 C.3       1 RES1    0.0000
     10 C6        -1.3119    1.7957   -1.2530 C.ar      1 RES1    0.0000
     11 C7        -0.7725    4.1036   -1.6783 C.ar      1 RES1    0.0000
     12 C8        -2.8287    3.1505   -2.4945 C.ar      1 RES1    0.0000
     13 C9         0.1597    4.3647    2.5587 C.3       1 RES1    0.0000
     14 C10       -1.6272   -0.6915    6.6133 C.3       1 RES1    0.0000
     15 O5        -0.0611   -1.8545    1.1246 O.2       1 RES1    0.0000
     16 O6        -2.5531    0.8842    2.5277 O.3       1 RES1    0.0000
     17 O7        -1.5301    6.4294   -2.8407 O.2       1 RES1    0.0000
     18 N1        -2.3251    5.5132   -2.9954 N.pl3     1 RES1    0.0000
     19 C11       -1.5504   -0.0785    0.5881 C.3       1 RES1    0.0000
     20 C12       -1.2369    0.7910    3.1158 C.3       1 RES1    0.0000
     21 C13       -1.3751    0.8275    4.6221 C.3       1 RES1    0.0000
     22 C14       -0.9802    3.3325    4.5682 C.3       1 RES1    0.0000
     23 C15       -0.3252    1.9266    2.6148 C.3       1 RES1    0.0000
     24 C16       -0.4412    2.8832   -1.1234 C.ar      1 RES1    0.0000
     25 C17       -1.9566    4.2068   -2.3477 C.ar      1 RES1    0.0000
     26 C18       -2.5027    1.9321   -1.9201 C.ar      1 RES1    0.0000
     27 C19       -2.1710   -0.3702    5.2274 C.3       1 RES1    0.0000
     28 C20       -3.6686   -0.1639    5.2904 C.3       1 RES1    0.0000
@<TRIPOS>BOND
     1    1    5 1
     2    2    6 1
     3    3    7 2
     4    4   18 2
     5    5   10 1
     6    6   15 2
     7    7   16 1
     8    8   21 1
     9    9   13 1
    10   10   24 ar
    11   11   24 ar
    12   12   25 ar
    13   14   27 1
    14   16   20 1
    15   17   18 2
    16   18   25 1
    17   19    1 1
    18   20    2 1
    19   21   20 1
    20   22    8 1
    21   23    9 1
    22   25   11 ar
    23   26   10 ar
    24   27   21 1
    25   28   27 1
    26    5   19 1
    27    6   19 1
    28    7   19 1
    29    9   22 1
    30   12   26 ar
    31   20   23 1
@<TRIPOS>SUBSTRUCTURE
     1 RES1 1

@<TRIPOS>CRYSIN
   5.8820    7.7400   11.9010  99.3500  98.5900 109.0100   1 1

