# MOL2 file generated by ConQuest
# Please check atom types

@<TRIPOS>MOLECULE
YIJCAV
    28    31     1
SMALL
NO_CHARGES
****
Generated from CSD

@<TRIPOS>ATOM
      1 O1        -4.8356   -3.4898   -7.9378 O.3       1 RES1    0.0000
      2 O2        -2.8373   -3.0414  -10.9540 O.3       1 RES1    0.0000
      3 O3        -6.4374   -1.9435   -9.6475 O.2       1 RES1    0.0000
      4 O4        -1.7368   -9.7545   -7.4468 O.2       1 RES1    0.0000
      5 C1        -5.2268   -4.5860   -8.7453 C.3       1 RES1    0.0000
      6 C2        -3.1250   -3.4386   -9.6969 C.2       1 RES1    0.0000
      7 C3        -5.4295   -2.3954  -10.0689 C.2       1 RES1    0.0000
      8 C4        -4.2364   -1.5993  -14.0842 C.3       1 RES1    0.0000
      9 C5        -5.3870   -3.8022  -13.6497 C.3       1 RES1    0.0000
     10 C6        -4.5491   -5.8887   -8.5820 C.ar      1 RES1    0.0000
     11 C7        -4.2113   -8.1305   -9.3773 C.ar      1 RES1    0.0000
     12 C8        -3.0465   -7.3679   -7.4156 C.ar      1 RES1    0.0000
     13 C9        -5.8512   -5.1138  -14.2586 C.3       1 RES1    0.0000
     14 C10       -1.4274   -0.1447  -13.2757 C.3       1 RES1    0.0000
     15 O5        -2.2359   -3.7758   -8.9670 O.2       1 RES1    0.0000
     16 O6        -4.9381   -2.0070  -11.2706 O.3       1 RES1    0.0000
     17 O7        -2.9997  -10.5312   -9.0074 O.2       1 RES1    0.0000
     18 N1        -2.6434   -9.6345   -8.2533 N.pl3     1 RES1    0.0000
     19 C11       -4.5622   -3.3751   -9.3300 C.3       1 RES1    0.0000
     20 C12       -3.8866   -2.7502  -11.9057 C.3       1 RES1    0.0000
     21 C13       -3.2437   -1.8499  -12.9601 C.3       1 RES1    0.0000
     22 C14       -4.7321   -2.8967  -14.7021 C.3       1 RES1    0.0000
     23 C15       -4.4292   -4.0352  -12.4964 C.3       1 RES1    0.0000
     24 C16       -4.8258   -6.9002   -9.4903 C.ar      1 RES1    0.0000
     25 C17       -3.3255   -8.3353   -8.3561 C.ar      1 RES1    0.0000
     26 C18       -3.6665   -6.1305   -7.5497 C.ar      1 RES1    0.0000
     27 C19       -2.5889   -0.5631  -12.3946 C.3       1 RES1    0.0000
     28 C20       -3.5270    0.6161  -12.2162 C.3       1 RES1    0.0000
@<TRIPOS>BOND
     1    1    5 1
     2    2    6 1
     3    3    7 2
     4    4   18 2
     5    5   10 1
     6    6   15 2
     7    7   16 1
     8    8   21 1
     9    9   13 1
    10   10   24 ar
    11   11   24 ar
    12   12   25 ar
    13   14   27 1
    14   16   20 1
    15   17   18 2
    16   18   25 1
    17   19    1 1
    18   20    2 1
    19   21   20 1
    20   22    8 1
    21   23    9 1
    22   25   11 ar
    23   26   10 ar
    24   27   21 1
    25   28   27 1
    26    5   19 1
    27    6   19 1
    28    7   19 1
    29    9   22 1
    30   12   26 ar
    31   20   23 1
@<TRIPOS>SUBSTRUCTURE
     1 RES1 1

@<TRIPOS>CRYSIN
  10.8960   17.6520   10.0810  90.0000  90.0000  90.0000  19 1

