# MOL2 file generated by ConQuest
# Please check atom types

@<TRIPOS>MOLECULE
YIJPIQ
    37    38     1
SMALL
NO_CHARGES
****
Generated from CSD

@<TRIPOS>ATOM
      1 O1         2.4167   -1.1062   10.5054 O.3       1 RES1    0.0000
      2 O2         2.8797    0.5669    8.3322 O.3       1 RES1    0.0000
      3 O3         0.4372    2.0217    8.4253 O.3       1 RES1    0.0000
      4 O4         0.2091    1.7299   11.3090 O.3       1 RES1    0.0000
      5 O5         0.8000    5.1136   10.1479 O.3       1 RES1    0.0000
      6 O6        -0.9944    0.4448   18.2815 O.2       1 RES1    0.0000
      7 O7        -2.3382   -1.1898   17.8844 O.2       1 RES1    0.0000
      8 N1         0.0974   -0.4197   12.1623 N.3       1 RES1    0.0000
      9 N2        -1.5002   -0.3788   17.5222 N.pl3     1 RES1    0.0000
     10 C1         0.9663    0.5284   11.5586 C.3       1 RES1    0.0000
     11 C2         1.5322   -0.0309   10.2433 C.3       1 RES1    0.0000
     12 C3         2.3374    1.0652    9.5665 C.3       1 RES1    0.0000
     13 C4         1.5032    2.3202    9.3521 C.3       1 RES1    0.0000
     14 C5         0.9870    2.7725   10.7182 C.3       1 RES1    0.0000
     15 C6         0.0953    4.0016   10.6912 C.3       1 RES1    0.0000
     16 C7        -0.2951   -0.3595   13.4856 C.ar      1 RES1    0.0000
     17 C8        -1.3405   -1.1822   13.9050 C.ar      1 RES1    0.0000
     18 C9        -1.7341   -1.1956   15.2251 C.ar      1 RES1    0.0000
     19 C10       -1.0880   -0.3863   16.1290 C.ar      1 RES1    0.0000
     20 C11       -0.0642    0.4381   15.7398 C.ar      1 RES1    0.0000
     21 C12        0.3338    0.4665   14.4197 C.ar      1 RES1    0.0000
     22 H1         1.7597    0.7776   12.1845 H         1 RES1    0.0000
     23 H2         0.7496   -0.2676    9.7063 H         1 RES1    0.0000
     24 H3         3.0804    1.3628   10.1670 H         1 RES1    0.0000
     25 H4         2.0806    3.0100    9.0391 H         1 RES1    0.0000
     26 H5         1.7831    2.9514   11.2631 H         1 RES1    0.0000
     27 H6        -1.8159   -1.6806   13.3601 H         1 RES1    0.0000
     28 H7        -2.4406   -1.7224   15.5682 H         1 RES1    0.0000
     29 H8         0.4381    0.9448   16.3466 H         1 RES1    0.0000
     30 H9         1.1221    1.0284   14.2020 H         1 RES1    0.0000
     31 H10        1.8899   -1.8478   10.6912 H         1 RES1    0.0000
     32 H11        3.6743    0.8695    8.2925 H         1 RES1    0.0000
     33 H12        0.2323    2.6504    8.0224 H         1 RES1    0.0000
     34 H13        0.7847    5.1922    9.3409 H         1 RES1    0.0000
     35 H14       -0.1356    4.2223   11.6921 H         1 RES1    0.0000
     36 H15       -0.6686    3.7792   10.2305 H         1 RES1    0.0000
     37 H16       -0.4140   -0.7525   11.7079 H         1 RES1    0.0000
@<TRIPOS>BOND
     1    1   11 1
     2    2   12 1
     3    3   13 1
     4    4   10 1
     5    5   15 1
     6    6    9 2
     7    7    9 2
     8    8   10 1
     9    9   19 1
    10   10   11 1
    11   11   12 1
    12   12   13 1
    13   13   14 1
    14   14    4 1
    15   15   14 1
    16   16    8 1
    17   17   16 ar
    18   18   17 ar
    19   19   18 ar
    20   20   19 ar
    21   21   16 ar
    22   22   10 1
    23   23   11 1
    24   24   12 1
    25   25   13 1
    26   26   14 1
    27   27   17 1
    28   28   18 1
    29   29   20 1
    30   30   21 1
    31   31    1 1
    32   32    2 1
    33   33    3 1
    34   34    5 1
    35   35   15 1
    36   36   15 1
    37   37    8 1
    38   20   21 ar
@<TRIPOS>SUBSTRUCTURE
     1 RES1 1

@<TRIPOS>CRYSIN
   4.8450    8.3610   16.0320  90.0000  97.7400  90.0000   4 1

