# MOL2 file generated by ConQuest
# Please check atom types

@<TRIPOS>MOLECULE
YIKCIE
    37    39     1
SMALL
NO_CHARGES
****
Generated from CSD

@<TRIPOS>ATOM
      1 O1         0.7195    7.7888   -1.3945 O.2       1 RES1    0.0000
      2 O2         2.1853    8.6654   -0.0618 O.2       1 RES1    0.0000
      3 O3         2.5265   11.1767    6.9492 O.3       1 RES1    0.0000
      4 N1        -1.4166   10.9853    2.9596 N.2       1 RES1    0.0000
      5 N2        -2.3865   12.3288    1.3824 N.2       1 RES1    0.0000
      6 N3        -1.4035   11.3401   -0.5698 N.2       1 RES1    0.0000
      7 N4        -0.9689   10.6647    1.7008 N.pl3     1 RES1    0.0000
      8 N5         1.0562    8.5898   -0.5246 N.pl3     1 RES1    0.0000
      9 N6         0.3885    8.8482    2.3376 N.pl3     1 RES1    0.0000
     10 C1        -2.2423   11.9825    2.6786 C.2       1 RES1    0.0000
     11 C2        -1.5878   11.4730    0.7560 C.2       1 RES1    0.0000
     12 C3        -0.6094   10.3489   -0.9596 C.2       1 RES1    0.0000
     13 C4         0.0437    9.5139   -0.0165 C.2       1 RES1    0.0000
     14 C5        -0.1193    9.6370    1.3580 C.2       1 RES1    0.0000
     15 C6        -0.4167   10.1978   -2.4333 C.3       1 RES1    0.0000
     16 C7         0.6498    7.4207    2.1018 C.3       1 RES1    0.0000
     17 C8         0.9194    9.4224    3.5407 C.ar      1 RES1    0.0000
     18 C9         0.6575    8.8568    4.7848 C.ar      1 RES1    0.0000
     19 C10        1.1851    9.4054    5.9418 C.ar      1 RES1    0.0000
     20 C11        1.9796   10.5428    5.8705 C.ar      1 RES1    0.0000
     21 C12        2.2472   11.1109    4.6221 C.ar      1 RES1    0.0000
     22 C13        1.7347   10.5464    3.4642 C.ar      1 RES1    0.0000
     23 C14        2.2484   10.6306    8.2411 C.3       1 RES1    0.0000
     24 H1        -2.7764   12.4592    3.4276 H         1 RES1    0.0000
     25 H2         0.0859    8.1070    4.8718 H         1 RES1    0.0000
     26 H3         1.0196    9.0457    6.7683 H         1 RES1    0.0000
     27 H4         2.8621   11.8497    4.5673 H         1 RES1    0.0000
     28 H5         1.9080   10.8988    2.6534 H         1 RES1    0.0000
     29 H6         0.5152    9.9966   -2.6186 H         1 RES1    0.0000
     30 H7        -0.9347    9.4358   -2.7752 H         1 RES1    0.0000
     31 H8        -0.7215   11.0085   -2.8796 H         1 RES1    0.0000
     32 H9         0.1123    7.1683    1.3832 H         1 RES1    0.0000
     33 H10        0.4024    6.8879    2.9057 H         1 RES1    0.0000
     34 H11        1.5828    7.2658    1.8878 H         1 RES1    0.0000
     35 H12        2.3336   11.2279    8.8388 H         1 RES1    0.0000
     36 H13        1.2707   10.7037    8.3603 H         1 RES1    0.0000
     37 H14        2.5786    9.7406    8.3168 H         1 RES1    0.0000
@<TRIPOS>BOND
     1    1    8 2
     2    2    8 2
     3    3   20 1
     4    4    7 1
     5    5   10 1
     6    6   11 1
     7    7   11 1
     8    8   13 1
     9    9   14 1
    10   10    4 2
    11   11    5 2
    12   12    6 2
    13   13   12 1
    14   14    7 1
    15   15   12 1
    16   16    9 1
    17   17    9 1
    18   18   17 ar
    19   19   18 ar
    20   20   19 ar
    21   21   20 ar
    22   22   17 ar
    23   23    3 1
    24   24   10 1
    25   25   18 1
    26   26   19 1
    27   27   21 1
    28   28   22 1
    29   29   15 1
    30   30   15 1
    31   31   15 1
    32   32   16 1
    33   33   16 1
    34   34   16 1
    35   35   23 1
    36   36   23 1
    37   37   23 1
    38   13   14 2
    39   21   22 ar
@<TRIPOS>SUBSTRUCTURE
     1 RES1 1

@<TRIPOS>CRYSIN
  13.4580   12.1910    9.2650  90.0000 110.1200  90.0000 231 1

