# MOL2 file generated by ConQuest
# Please check atom types

@<TRIPOS>MOLECULE
YIKQUE
    52    54     2
SMALL
NO_CHARGES
****
Generated from CSD

@<TRIPOS>ATOM
      1 O1         9.8189    3.4029    9.0197 O.3       1 RES1    0.0000
      2 O2        10.9023    5.6805    9.1133 O.2       1 RES1    0.0000
      3 O3        13.5988    2.9885    0.9147 O.3       2 RES2    0.0000
      4 O4        14.7163    0.7318    0.5884 O.2       2 RES2    0.0000
      5 N1        11.6020    4.6877    8.6254 N.pl3     1 RES1    0.0000
      6 N2        15.4272    1.7100    1.1007 N.pl3     2 RES2    0.0000
      7 C1        11.0579    3.4396    8.5300 C.ar      1 RES1    0.0000
      8 C2        11.7902    2.4183    7.9955 C.ar      1 RES1    0.0000
      9 C3        13.0743    2.6255    7.5734 C.ar      1 RES1    0.0000
     10 C4        13.6113    3.8596    7.6925 C.ar      1 RES1    0.0000
     11 C5        12.8801    4.8797    8.2301 C.ar      1 RES1    0.0000
     12 C6         9.0811    2.1661    8.8561 C.3       1 RES1    0.0000
     13 C7         8.5818    1.9995    7.4587 C.ar      1 RES1    0.0000
     14 C8         8.6640    0.7945    6.8154 C.ar      1 RES1    0.0000
     15 C9         8.1345    0.6443    5.5570 C.ar      1 RES1    0.0000
     16 C10        7.5085    1.6726    4.9401 C.ar      1 RES1    0.0000
     17 C11        7.4364    2.8998    5.5585 C.ar      1 RES1    0.0000
     18 C12        7.9774    3.0557    6.7977 C.ar      1 RES1    0.0000
     19 C13       14.8742    2.9289    1.2995 C.ar      2 RES2    0.0000
     20 C14       15.6318    3.9515    1.8345 C.ar      2 RES2    0.0000
     21 C15       16.9524    3.7405    2.1383 C.ar      2 RES2    0.0000
     22 C16       17.5025    2.5038    1.9017 C.ar      2 RES2    0.0000
     23 C17       16.7389    1.5161    1.3739 C.ar      2 RES2    0.0000
     24 C18       12.9051    4.2480    1.0392 C.3       2 RES2    0.0000
     25 C19       12.4350    4.5021    2.4319 C.ar      2 RES2    0.0000
     26 C20       11.7763    3.5068    3.1465 C.ar      2 RES2    0.0000
     27 C21       11.2640    3.7576    4.3907 C.ar      2 RES2    0.0000
     28 C22       11.3982    4.9785    4.9534 C.ar      2 RES2    0.0000
     29 C23       12.0556    5.9700    4.2816 C.ar      2 RES2    0.0000
     30 C24       12.5728    5.7318    3.0129 C.ar      2 RES2    0.0000
     31 H1        11.4027    1.5541    7.9161 H         1 RES1    0.0000
     32 H2        13.5801    1.9140    7.1980 H         1 RES1    0.0000
     33 H3        14.5051    4.0142    7.4100 H         1 RES1    0.0000
     34 H4        13.2742    5.7388    8.3215 H         1 RES1    0.0000
     35 H5         9.6499    1.4363    9.0715 H         1 RES1    0.0000
     36 H6         8.3375    2.1731    9.4475 H         1 RES1    0.0000
     37 H7         9.0869    0.0558    7.2377 H         1 RES1    0.0000
     38 H8         8.1984   -0.1932    5.1129 H         1 RES1    0.0000
     39 H9         7.1239    1.5548    4.0795 H         1 RES1    0.0000
     40 H10        7.0165    3.6341    5.1276 H         1 RES1    0.0000
     41 H11        7.9369    3.9040    7.2223 H         1 RES1    0.0000
     42 H12       15.2367    4.8005    1.9946 H         2 RES2    0.0000
     43 H13       17.4799    4.4413    2.5043 H         2 RES2    0.0000
     44 H14       18.4156    2.3423    2.1079 H         2 RES2    0.0000
     45 H15       17.1316    0.6703    1.1928 H         2 RES2    0.0000
     46 H16       13.4976    4.9468    0.7878 H         2 RES2    0.0000
     47 H17       12.1546    4.2449    0.4566 H         2 RES2    0.0000
     48 H18       11.6770    2.6470    2.7532 H         2 RES2    0.0000
     49 H19       10.8175    3.0626    4.8580 H         2 RES2    0.0000
     50 H20       11.0370    5.1420    5.8159 H         2 RES2    0.0000
     51 H21       12.1568    6.8228    4.6866 H         2 RES2    0.0000
     52 H22       13.0217    6.4281    2.5487 H         2 RES2    0.0000
@<TRIPOS>BOND
     1    1    7 1
     2    2    5 1
     3    3   19 1
     4    4    6 1
     5    5    7 ar
     6    6   19 ar
     7    7    8 ar
     8    8    9 ar
     9    9   10 ar
    10   10   11 ar
    11   11    5 ar
    12   12    1 1
    13   13   12 1
    14   14   13 ar
    15   15   14 ar
    16   16   15 ar
    17   17   16 ar
    18   18   13 ar
    19   19   20 ar
    20   20   21 ar
    21   21   22 ar
    22   22   23 ar
    23   23    6 ar
    24   24    3 1
    25   25   24 1
    26   26   25 ar
    27   27   26 ar
    28   28   27 ar
    29   29   28 ar
    30   30   25 ar
    31   31    8 1
    32   32    9 1
    33   33   10 1
    34   34   11 1
    35   35   12 1
    36   36   12 1
    37   37   14 1
    38   38   15 1
    39   39   16 1
    40   40   17 1
    41   41   18 1
    42   42   20 1
    43   43   21 1
    44   44   22 1
    45   45   23 1
    46   46   24 1
    47   47   24 1
    48   48   26 1
    49   49   27 1
    50   50   28 1
    51   51   29 1
    52   52   30 1
    53   17   18 ar
    54   29   30 ar
@<TRIPOS>SUBSTRUCTURE
     1 RES1 1
     2 RES2 3

@<TRIPOS>CRYSIN
  16.4480    6.3356   20.9410  90.0000 111.5970  90.0000  14 2

