# MOL2 file generated by ConQuest
# Please check atom types

@<TRIPOS>MOLECULE
YIKSEQ
    26    27     1
SMALL
NO_CHARGES
****
Generated from CSD

@<TRIPOS>ATOM
      1 O1         1.8376    0.9220    1.1765 O.2       1 RES1    0.0000
      2 O2         4.0304   -0.5911    1.0527 O.3       1 RES1    0.0000
      3 N1         3.7706    0.3937    0.1071 N.am      1 RES1    0.0000
      4 C1         2.5927    1.1391    0.2396 C.2       1 RES1    0.0000
      5 C2         2.4237    2.0598   -0.8325 C.2       1 RES1    0.0000
      6 C3         3.3313    2.2207   -1.8163 C.2       1 RES1    0.0000
      7 C4         4.4933    1.4648   -1.8417 C.2       1 RES1    0.0000
      8 C5         4.7054    0.5611   -0.8647 C.2       1 RES1    0.0000
      9 C6         4.6900    0.0105    2.1978 C.3       1 RES1    0.0000
     10 C7         4.8614   -1.0266    3.2472 C.ar      1 RES1    0.0000
     11 C8         3.8702   -1.2228    4.1720 C.ar      1 RES1    0.0000
     12 C9         4.0168   -2.1370    5.1866 C.ar      1 RES1    0.0000
     13 C10        5.1718   -2.8628    5.2616 C.ar      1 RES1    0.0000
     14 C11        6.1678   -2.7020    4.3407 C.ar      1 RES1    0.0000
     15 C12        6.0011   -1.7695    3.3301 C.ar      1 RES1    0.0000
     16 H1         1.6315    2.5843   -0.8580 H         1 RES1    0.0000
     17 H2         3.1734    2.8628   -2.4989 H         1 RES1    0.0000
     18 H3         5.1294    1.5825   -2.5364 H         1 RES1    0.0000
     19 H4         5.5034    0.0458   -0.8553 H         1 RES1    0.0000
     20 H5         3.0686   -0.7167    4.1118 H         1 RES1    0.0000
     21 H6         3.3254   -2.2638    5.8264 H         1 RES1    0.0000
     22 H7         5.2855   -3.4880    5.9683 H         1 RES1    0.0000
     23 H8         6.9606   -3.2225    4.3902 H         1 RES1    0.0000
     24 H9         6.6902   -1.6439    2.6877 H         1 RES1    0.0000
     25 H10        5.5405    0.3453    1.9381 H         1 RES1    0.0000
     26 H11        4.1600    0.7232    2.5351 H         1 RES1    0.0000
@<TRIPOS>BOND
     1    1    4 2
     2    2    3 1
     3    3    4 1
     4    4    5 1
     5    5    6 2
     6    6    7 1
     7    7    8 2
     8    8    3 1
     9    9    2 1
    10   10    9 1
    11   11   10 ar
    12   12   11 ar
    13   13   12 ar
    14   14   13 ar
    15   15   10 ar
    16   16    5 1
    17   17    6 1
    18   18    7 1
    19   19    8 1
    20   20   11 1
    21   21   12 1
    22   22   13 1
    23   23   14 1
    24   24   15 1
    25   25    9 1
    26   26    9 1
    27   14   15 ar
@<TRIPOS>SUBSTRUCTURE
     1 RES1 1

@<TRIPOS>CRYSIN
   5.8898   13.0782   13.3848  90.0000  90.0000  90.0000  29 3

