# MOL2 file generated by ConQuest
# Please check atom types

@<TRIPOS>MOLECULE
YILDII
    86    90     2
SMALL
NO_CHARGES
****
Generated from CSD

@<TRIPOS>ATOM
      1 N1        11.8005   12.3158   13.6650 N.3       1 RES1    0.0000
      2 C1        10.9597   11.3588   14.1516 C.2       1 RES1    0.0000
      3 N2        10.2863   11.5543   15.2252 N.2       1 RES1    0.0000
      4 C2        12.1897   13.5418   14.2499 C.ar      1 RES1    0.0000
      5 C3        12.1239   13.7863   15.6008 C.ar      1 RES1    0.0000
      6 H1        11.8023   13.1329   16.1796 H         1 RES1    0.0000
      7 C4        12.5388   15.0071   16.0987 C.ar      1 RES1    0.0000
      8 H2        12.4634   15.1806   17.0089 H         1 RES1    0.0000
      9 C5        13.0550   15.9590   15.2758 C.ar      1 RES1    0.0000
     10 H3        13.3543   16.7691   15.6214 H         1 RES1    0.0000
     11 C6        13.1293   15.7140   13.9470 C.ar      1 RES1    0.0000
     12 H4        13.4720   16.3641   13.3778 H         1 RES1    0.0000
     13 C7        12.6994   14.5074   13.4238 C.ar      1 RES1    0.0000
     14 H5        12.7565   14.3515   12.5073 H         1 RES1    0.0000
     15 C8        10.8870   10.1346   13.2969 C.ar      1 RES1    0.0000
     16 C9         9.6755    9.6037   12.9132 C.ar      1 RES1    0.0000
     17 H6         8.8914   10.0207   13.1891 H         1 RES1    0.0000
     18 C10        9.5957    8.4673   12.1299 C.ar      1 RES1    0.0000
     19 H7         8.7661    8.1283   11.8810 H         1 RES1    0.0000
     20 C11       10.7466    7.8423   11.7210 C.ar      1 RES1    0.0000
     21 C12       11.9638    8.3441   12.1055 C.ar      1 RES1    0.0000
     22 H8        12.7442    7.9097   11.8477 H         1 RES1    0.0000
     23 C13       12.0375    9.4894   12.8729 C.ar      1 RES1    0.0000
     24 H9        12.8700    9.8311   13.1083 H         1 RES1    0.0000
     25 O1        10.7876    6.7035   10.9642 O.3       1 RES1    0.0000
     26 C14        9.5788    6.2808   10.3287 C.3       1 RES1    0.0000
     27 H10        8.9440    6.0110   10.9962 H         1 RES1    0.0000
     28 H11        9.7654    5.5416    9.7468 H         1 RES1    0.0000
     29 H12        9.2159    7.0072    9.8165 H         1 RES1    0.0000
     30 C15        9.6110   10.5304   15.8834 C.ar      1 RES1    0.0000
     31 C16        8.2705   10.6826   16.2081 C.ar      1 RES1    0.0000
     32 H13        7.8133   11.4442   15.9322 H         1 RES1    0.0000
     33 C17        7.6167    9.7218   16.9312 C.ar      1 RES1    0.0000
     34 H14        6.7119    9.8136   17.1246 H         1 RES1    0.0000
     35 C18        8.3163    8.6135   17.3672 C.ar      1 RES1    0.0000
     36 C19        9.6457    8.4561   17.1065 C.ar      1 RES1    0.0000
     37 H15       10.1061    7.7153   17.4290 H         1 RES1    0.0000
     38 C20       10.2950    9.4095   16.3586 C.ar      1 RES1    0.0000
     39 H16       11.1997    9.3071   16.1669 H         1 RES1    0.0000
     40 N3         7.6215    7.6365   18.1798 N.pl3     1 RES1    0.0000
     41 O2         6.4296    7.7582   18.3963 O.2       1 RES1    0.0000
     42 O3         8.2727    6.7193   18.6907 O.2       1 RES1    0.0000
     43 H17       12.0406   12.2169   12.8879 H         1 RES1    0.0000
     44 C21       12.8594    6.6109    6.2370 C.2       2 RES2    0.0000
     45 N4        12.1163    6.9217    7.2334 N.2       2 RES2    0.0000
     46 C22       12.3308    4.1544    6.3218 C.ar      2 RES2    0.0000
     47 C23       11.9742    4.0330    7.6490 C.ar      2 RES2    0.0000
     48 H18       12.0700    4.7517    8.2309 H         2 RES2    0.0000
     49 C24       11.4679    2.8185    8.1025 C.ar      2 RES2    0.0000
     50 H19       11.2169    2.7340    8.9936 H         2 RES2    0.0000
     51 C25       11.3335    1.7528    7.2684 C.ar      2 RES2    0.0000
     52 H20       10.9925    0.9476    7.5872 H         2 RES2    0.0000
     53 C26       11.6989    1.8728    5.9746 C.ar      2 RES2    0.0000
     54 H21       11.6067    1.1447    5.4038 H         2 RES2    0.0000
     55 C27       12.2115    3.0665    5.4830 C.ar      2 RES2    0.0000
     56 H22       12.4724    3.1315    4.5919 H         2 RES2    0.0000
     57 C28       13.6799    7.5558    5.4367 C.ar      2 RES2    0.0000
     58 C29       15.0088    7.3312    5.1759 C.ar      2 RES2    0.0000
     59 H23       15.4032    6.5505    5.4910 H         2 RES2    0.0000
     60 C30       15.7792    8.2261    4.4635 C.ar      2 RES2    0.0000
     61 H24       16.6810    8.0599    4.3081 H         2 RES2    0.0000
     62 C31       15.1775    9.3758    3.9846 C.ar      2 RES2    0.0000
     63 C32       13.8541    9.6171    4.2225 C.ar      2 RES2    0.0000
     64 H25       13.4583   10.3932    3.8958 H         2 RES2    0.0000
     65 C33       13.1104    8.7188    4.9424 C.ar      2 RES2    0.0000
     66 H26       12.2108    8.8919    5.1009 H         2 RES2    0.0000
     67 O4        15.8379   10.3522    3.2741 O.3       2 RES2    0.0000
     68 C34       17.1824   10.2454    3.0999 C.3       2 RES2    0.0000
     69 H27       17.6046   10.1061    3.9498 H         2 RES2    0.0000
     70 H28       17.5186   11.0531    2.7035 H         2 RES2    0.0000
     71 H29       17.3720    9.5025    2.5227 H         2 RES2    0.0000
     72 C35       12.2323    8.1522    7.8824 C.ar      2 RES2    0.0000
     73 C36       13.4456    8.6095    8.3817 C.ar      2 RES2    0.0000
     74 H30       14.2224    8.1309    8.2055 H         2 RES2    0.0000
     75 C37       13.5159    9.7616    9.1341 C.ar      2 RES2    0.0000
     76 H31       14.3305   10.0624    9.4693 H         2 RES2    0.0000
     77 C38       12.3575   10.4553    9.3778 C.ar      2 RES2    0.0000
     78 C39       11.1422   10.0398    8.8916 C.ar      2 RES2    0.0000
     79 H32       10.3716   10.5340    9.0538 H         2 RES2    0.0000
     80 C40       11.0889    8.8808    8.1627 C.ar      2 RES2    0.0000
     81 H33       10.2671    8.5772    7.8488 H         2 RES2    0.0000
     82 N5        12.4129   11.6509   10.2197 N.pl3     2 RES2    0.0000
     83 O5        13.4818   11.9548   10.7325 O.2       2 RES2    0.0000
     84 O6        11.3767   12.2492   10.4543 O.2       2 RES2    0.0000
     85 N6        12.8979    5.3191    5.7791 N.pl3     2 RES2    0.0000
     86 H34       13.2589    5.2404    4.9630 H         2 RES2    0.0000
@<TRIPOS>BOND
     1    1    2 1
     2    2    3 2
     3    3   30 1
     4    4    1 1
     5    5    4 ar
     6    6    5 1
     7    7    5 ar
     8    8    7 1
     9    9    7 ar
    10   10    9 1
    11   11    9 ar
    12   12   11 1
    13   13    4 ar
    14   14   13 1
    15   15    2 1
    16   16   15 ar
    17   17   16 1
    18   18   16 ar
    19   19   18 1
    20   20   18 ar
    21   21   20 ar
    22   22   21 1
    23   23   15 ar
    24   24   23 1
    25   25   20 1
    26   26   25 1
    27   27   26 1
    28   28   26 1
    29   29   26 1
    30   30   31 ar
    31   31   32 1
    32   33   31 ar
    33   34   33 1
    34   35   33 ar
    35   36   35 ar
    36   37   36 1
    37   38   30 ar
    38   39   38 1
    39   40   35 1
    40   41   40 2
    41   42   40 2
    42   43    1 1
    43   44   45 2
    44   45   72 1
    45   46   47 ar
    46   47   48 1
    47   49   47 ar
    48   50   49 1
    49   51   49 ar
    50   52   51 1
    51   53   51 ar
    52   54   53 1
    53   55   46 ar
    54   56   55 1
    55   57   44 1
    56   58   57 ar
    57   59   58 1
    58   60   58 ar
    59   61   60 1
    60   62   60 ar
    61   63   62 ar
    62   64   63 1
    63   65   57 ar
    64   66   65 1
    65   67   62 1
    66   68   67 1
    67   69   68 1
    68   70   68 1
    69   71   68 1
    70   72   73 ar
    71   73   74 1
    72   75   73 ar
    73   76   75 1
    74   77   75 ar
    75   78   77 ar
    76   79   78 1
    77   80   72 ar
    78   81   80 1
    79   82   77 1
    80   83   82 2
    81   84   82 2
    82   85   44 1
    83   86   85 1
    84   11   13 ar
    85   21   23 ar
    86   36   38 ar
    87   46   85 1
    88   53   55 ar
    89   63   65 ar
    90   78   80 ar
@<TRIPOS>SUBSTRUCTURE
     1 RES1 1
     2 RES2 44

@<TRIPOS>CRYSIN
  10.4554   11.4787   16.6234  78.4030  73.9190  70.7020   2 1

