# MOL2 file generated by ConQuest
# Please check atom types

@<TRIPOS>MOLECULE
YILKEJ
    23    22     2
SMALL
NO_CHARGES
****
Generated from CSD

@<TRIPOS>ATOM
      1 C1         2.3821    0.8815    9.2696 C.ar      1 RES1    0.0000
      2 C2         3.0112   -0.0054    8.3717 C.ar      1 RES1    0.0000
      3 C3         2.4425   -0.1117    7.1201 C.ar      1 RES1    0.0000
      4 C4         1.3186    0.5735    6.7280 C.ar      1 RES1    0.0000
      5 C5         0.7371    1.4214    7.6111 C.ar      1 RES1    0.0000
      6 C6         1.2375    1.5992    8.8862 C.ar      1 RES1    0.0000
      7 N1         2.9672    1.0105   10.5583 N.3       1 RES1    0.0000
      8 C7         2.3016    0.3838   11.6739 C.3       1 RES1    0.0000
      9 C8         3.2436    0.1941   12.8179 C.3       1 RES1    0.0000
     10 C9         3.9425    1.4474   13.2075 C.3       1 RES1    0.0000
     11 C10        4.5845    2.0665   12.0090 C.3       1 RES1    0.0000
     12 C11        3.6653    2.2302   10.8687 C.3       1 RES1    0.0000
     13 N2         2.9755   -0.9996    6.0763 N.pl3     1 RES1    0.0000
     14 O1         2.2827   -1.8919    5.6607 O.2       1 RES1    0.0000
     15 O2         2.9650   -2.1478    6.1814 Du        2 SUP2    0.0000
     16 O3         4.0681   -0.8023    5.6644 O.2       1 RES1    0.0000
     17 O4         3.2219   -0.4684    4.8741 Du        2 SUP2    0.0000
     18 C12        4.2657   -0.7665    8.8095 C.3       1 RES1    0.0000
     19 C13        4.1836   -2.1988    8.8244 C.3       1 RES1    0.0000
     20 C14        5.5121   -0.0651    8.4360 C.3       1 RES1    0.0000
     21 C15        0.5155    2.5500    9.8138 C.3       1 RES1    0.0000
     22 C16       -0.8717    2.0578   10.1749 C.3       1 RES1    0.0000
     23 C17        0.4252    3.9346    9.2214 C.3       1 RES1    0.0000
@<TRIPOS>BOND
     1    1    2 ar
     2    2    3 ar
     3    3    4 ar
     4    4    5 ar
     5    5    6 ar
     6    6    1 ar
     7    7    1 1
     8    8    7 1
     9    9    8 1
    10   10    9 1
    11   11   10 1
    12   12    7 1
    13   13    3 1
    14   14   13 2
    15   16   13 2
    16   18    2 1
    17   19   18 1
    18   20   18 1
    19   21    6 1
    20   22   21 1
    21   23   21 1
    22   11   12 1
@<TRIPOS>SUBSTRUCTURE
     1 RES1 1
     2 SUP2 15

@<TRIPOS>CRYSIN
  12.7270   10.8420   12.3770  90.0000  92.2200  90.0000  14 1

