# MOL2 file generated by ConQuest
# Please check atom types

@<TRIPOS>MOLECULE
YILNOW
    83    88     1
SMALL
NO_CHARGES
****
Generated from CSD

@<TRIPOS>ATOM
      1 N1        -0.4633   10.2501   26.2262 N.am      1 RES1    0.0000
      2 C1        -0.1559    8.9244   26.0544 C.2       1 RES1    0.0000
      3 C2        -1.6483    8.5926   26.0578 C.3       1 RES1    0.0000
      4 C3        -1.8839   10.0452   26.5562 C.3       1 RES1    0.0000
      5 C4         0.3551   11.4071   26.4496 C.3       1 RES1    0.0000
      6 O1         0.0939   11.9731   27.7315 O.3       1 RES1    0.0000
      7 C5        -1.1978   12.5878   27.7900 C.3       1 RES1    0.0000
      8 C6        -2.1529   11.6483   28.5529 C.3       1 RES1    0.0000
      9 C7        -2.1579   10.1957   28.0477 C.3       1 RES1    0.0000
     10 O2         0.8725    8.3292   25.9307 O.2       1 RES1    0.0000
     11 O3        -2.0497    7.5164   26.8483 O.3       1 RES1    0.0000
     12 C8        -3.3201    7.0313   26.5355 C.3       1 RES1    0.0000
     13 C9        -3.7008    5.8869   27.4119 C.ar      1 RES1    0.0000
     14 C10       -5.0104    5.7168   27.7625 C.ar      1 RES1    0.0000
     15 C11       -5.4338    4.6253   28.5117 C.ar      1 RES1    0.0000
     16 C12       -4.4894    3.7373   28.9619 C.ar      1 RES1    0.0000
     17 C13       -3.1856    3.9046   28.6663 C.ar      1 RES1    0.0000
     18 C14       -2.7842    4.9668   27.8896 C.ar      1 RES1    0.0000
     19 C15       -1.0562   13.9177   28.4189 C.3       1 RES1    0.0000
     20 O4        -0.6142   13.7393   29.8074 O.3       1 RES1    0.0000
     21 C16       -0.3573   14.8670   30.4810 C.2       1 RES1    0.0000
     22 O5        -0.4313   15.9599   29.9895 O.2       1 RES1    0.0000
     23 C17        0.0192   14.6161   31.8901 C.ar      1 RES1    0.0000
     24 C18        0.1359   13.3489   32.4090 C.ar      1 RES1    0.0000
     25 C19        0.5039   13.2109   33.7288 C.ar      1 RES1    0.0000
     26 C20        0.7373   14.2843   34.5570 C.ar      1 RES1    0.0000
     27 C21        0.5893   15.5138   33.9831 C.ar      1 RES1    0.0000
     28 C22        0.2498   15.7257   32.6737 C.ar      1 RES1    0.0000
     29 N2         0.6427   11.8602   34.3027 N.pl3     1 RES1    0.0000
     30 O6         0.5153   10.9262   33.5432 O.2       1 RES1    0.0000
     31 O7         0.8932   11.7584   35.4609 O.2       1 RES1    0.0000
     32 N3         0.8839   16.7029   34.8320 N.pl3     1 RES1    0.0000
     33 O8         1.0263   17.7568   34.2786 O.2       1 RES1    0.0000
     34 O9         0.9544   16.5551   36.0245 O.2       1 RES1    0.0000
     35 O10       -3.4503   12.2282   28.3570 O.3       1 RES1    0.0000
     36 C23       -4.3314   11.9898   29.4602 C.3       1 RES1    0.0000
     37 C24       -3.9165   12.7384   30.7078 C.ar      1 RES1    0.0000
     38 C25       -3.8816   14.1226   30.6769 C.ar      1 RES1    0.0000
     39 C26       -3.5293   14.8140   31.8145 C.ar      1 RES1    0.0000
     40 C27       -3.2454   14.1463   32.9898 C.ar      1 RES1    0.0000
     41 C28       -3.2959   12.7844   33.0242 C.ar      1 RES1    0.0000
     42 C29       -3.6503   12.0734   31.8866 C.ar      1 RES1    0.0000
     43 O11       -1.1757    9.4374   28.7488 O.3       1 RES1    0.0000
     44 C30       -1.7031    8.7641   29.8795 C.3       1 RES1    0.0000
     45 C31       -0.6334    7.9695   30.5257 C.ar      1 RES1    0.0000
     46 C32       -0.8284    6.6912   30.8212 C.ar      1 RES1    0.0000
     47 C33        0.1381    5.9329   31.4673 C.ar      1 RES1    0.0000
     48 C34        1.2903    6.5170   31.8007 C.ar      1 RES1    0.0000
     49 C35        1.5529    7.8315   31.5120 C.ar      1 RES1    0.0000
     50 C36        0.5423    8.5633   30.8831 C.ar      1 RES1    0.0000
     51 H1        -1.9244    8.4727   25.2089 H         1 RES1    0.0000
     52 H2        -2.4753   10.6571   26.0234 H         1 RES1    0.0000
     53 H3         1.1971   11.1283   26.5665 H         1 RES1    0.0000
     54 H4         0.1431   12.1166   25.5870 H         1 RES1    0.0000
     55 H5        -1.5622   12.7690   26.8758 H         1 RES1    0.0000
     56 H6        -1.8625   11.7096   29.6080 H         1 RES1    0.0000
     57 H7        -3.2019    9.8012   28.1508 H         1 RES1    0.0000
     58 H8        -3.3073    6.8208   25.6213 H         1 RES1    0.0000
     59 H9        -3.8297    7.9235   26.8242 H         1 RES1    0.0000
     60 H10       -5.5947    6.2800   27.4703 H         1 RES1    0.0000
     61 H11       -6.4188    4.4887   28.6904 H         1 RES1    0.0000
     62 H12       -4.7990    2.9929   29.7386 H         1 RES1    0.0000
     63 H13       -2.5130    3.2006   28.9344 H         1 RES1    0.0000
     64 H14       -1.7757    5.0602   27.8175 H         1 RES1    0.0000
     65 H15       -0.3672   14.5422   27.8828 H         1 RES1    0.0000
     66 H16       -1.8874   14.4628   28.3845 H         1 RES1    0.0000
     67 H17        0.1110   16.6207   32.3162 H         1 RES1    0.0000
     68 H18       -0.0356   12.5809   31.8454 H         1 RES1    0.0000
     69 H19        0.9814   14.1254   35.5537 H         1 RES1    0.0000
     70 H20       -4.4937   11.0502   29.5908 H         1 RES1    0.0000
     71 H21       -5.2865   12.3062   29.0925 H         1 RES1    0.0000
     72 H22       -3.9827   14.6440   29.8555 H         1 RES1    0.0000
     73 H23       -3.5201   15.7843   31.5876 H         1 RES1    0.0000
     74 H24       -3.0845   14.6677   33.9865 H         1 RES1    0.0000
     75 H25       -3.0660   12.3104   33.8490 H         1 RES1    0.0000
     76 H26       -3.5343   10.9652   31.9932 H         1 RES1    0.0000
     77 H27       -2.3536    8.2232   29.6115 H         1 RES1    0.0000
     78 H28       -1.9316    9.5824   30.5600 H         1 RES1    0.0000
     79 H29       -1.6696    6.3051   30.5291 H         1 RES1    0.0000
     80 H30        0.0925    4.9515   31.8007 H         1 RES1    0.0000
     81 H31        1.9216    5.9384   32.1753 H         1 RES1    0.0000
     82 H32        1.9501    8.4002   31.9726 H         1 RES1    0.0000
     83 H33        0.4982    9.5405   30.5772 H         1 RES1    0.0000
@<TRIPOS>BOND
     1    1    2 1
     2    2    3 1
     3    3    4 1
     4    4    1 1
     5    5    1 1
     6    6    5 1
     7    7    6 1
     8    8    7 1
     9    9    4 1
    10   10    2 2
    11   11    3 1
    12   12   11 1
    13   13   12 1
    14   14   13 ar
    15   15   14 ar
    16   16   15 ar
    17   17   16 ar
    18   18   13 ar
    19   19    7 1
    20   20   19 1
    21   21   20 1
    22   22   21 2
    23   23   21 1
    24   24   23 ar
    25   25   24 ar
    26   26   25 ar
    27   27   26 ar
    28   28   23 ar
    29   29   25 1
    30   30   29 2
    31   31   29 2
    32   32   27 1
    33   33   32 2
    34   34   32 2
    35   35    8 1
    36   36   35 1
    37   37   36 1
    38   38   37 ar
    39   39   38 ar
    40   40   39 ar
    41   41   40 ar
    42   42   37 ar
    43   43    9 1
    44   44   43 1
    45   45   44 1
    46   46   45 ar
    47   47   46 ar
    48   48   47 ar
    49   49   48 ar
    50   50   45 ar
    51   51    3 1
    52   52    4 1
    53   53    5 1
    54   54    5 1
    55   55    7 1
    56   56    8 1
    57   57    9 1
    58   58   12 1
    59   59   12 1
    60   60   14 1
    61   61   15 1
    62   62   16 1
    63   63   17 1
    64   64   18 1
    65   65   19 1
    66   66   19 1
    67   67   28 1
    68   68   24 1
    69   69   26 1
    70   70   36 1
    71   71   36 1
    72   72   38 1
    73   73   39 1
    74   74   40 1
    75   75   41 1
    76   76   42 1
    77   77   44 1
    78   78   44 1
    79   79   46 1
    80   80   47 1
    81   81   48 1
    82   82   49 1
    83   83   50 1
    84    8    9 1
    85   17   18 ar
    86   27   28 ar
    87   41   42 ar
    88   49   50 ar
@<TRIPOS>SUBSTRUCTURE
     1 RES1 1

@<TRIPOS>CRYSIN
   7.1170   13.9400   34.3680  90.0000  90.0000  90.0000  19 1

