# MOL2 file generated by ConQuest
# Please check atom types

@<TRIPOS>MOLECULE
YILNIS
    14    14     1
SMALL
USER_CHARGES
****
Generated from CSD

@<TRIPOS>ATOM
      1 C1         0.7301    5.4587    1.7897 C.ar      1 RES1    0.0000
      2 C2        -1.8185    4.8854    1.6479 C.ar      1 RES1    0.0000
      3 N1        -3.2428    4.6056    1.5462 N.pl3     1 RES1    0.0000
      4 O1        -3.9844    5.0253    2.4346 O.2       1 RES1    0.0000
      5 N2         0.3359    4.8013    0.6894 N.ar      1 RES1    0.0000
      6 N3         2.7894    5.4826    0.9360 N.1       1 RES1    1.0000
      7 C3        -0.9645    4.5046    0.6246 C.ar      1 RES1    0.0000
      8 N4        -0.0158    5.8447    2.8357 N.ar      1 RES1    0.0000
      9 N5         2.0710    5.8282    1.9177 N.2       1 RES1    0.0000
     10 O2        -3.6283    3.9699    0.5715 O.2       1 RES1    0.0000
     11 C4        -1.3105    5.5502    2.7558 C.ar      1 RES1    0.0000
     12 N6         3.5409    5.2662    0.1380 N.2       1 RES1   -1.0000
     13 H1        -1.2544    4.0436   -0.1631 H         1 RES1    0.0000
     14 H2        -1.8528    5.8163    3.4872 H         1 RES1    0.0000
@<TRIPOS>BOND
     1    1    5 ar
     2    2    3 1
     3    3    4 2
     4    5    7 ar
     5    6    9 2
     6    7    2 ar
     7    8    1 ar
     8    9    1 1
     9   10    3 2
    10   11    2 ar
    11   12    6 2
    12   13    7 1
    13   14   11 1
    14    8   11 ar
@<TRIPOS>SUBSTRUCTURE
     1 RES1 1

@<TRIPOS>CRYSIN
   9.8556    6.2595   11.5071  90.0000 113.8720  90.0000 231 1

