# MOL2 file generated by ConQuest
# Please check atom types

@<TRIPOS>MOLECULE
YILNOY
    17    18     1
SMALL
NO_CHARGES
****
Generated from CSD

@<TRIPOS>ATOM
      1 N1         0.4636    1.7614   10.0684 N.pl3     1 RES1    0.0000
      2 O1         1.3253    0.5694    8.2924 O.3       1 RES1    0.0000
      3 N2         2.1461    2.4724   11.4371 N.pl3     1 RES1    0.0000
      4 N3        -1.0449    1.2161   11.4174 N.2       1 RES1    0.0000
      5 C1         2.4305    2.5391    9.1068 C.2       1 RES1    0.0000
      6 O2         4.3021    3.4560    8.2097 O.2       1 RES1    0.0000
      7 O3         2.7122    2.8110    6.9145 O.2       1 RES1    0.0000
      8 C2         1.1236    1.8507    8.7903 C.3       1 RES1    0.0000
      9 H1         0.5932    2.3863    8.1637 H         1 RES1    0.0000
     10 N4         3.2228    2.9630    8.0179 N.pl3     1 RES1    0.0000
     11 C3         2.9066    2.7812   10.3639 C.2       1 RES1    0.0000
     12 N5        -0.0172    1.6303   12.1845 N.2       1 RES1    0.0000
     13 C4         0.9166    1.9697   11.2729 C.2       1 RES1    0.0000
     14 N6        -0.8340    1.2450   10.1800 N.2       1 RES1    0.0000
     15 H2         3.7168    3.2091   10.4953 H         1 RES1    0.0000
     16 H3         0.9656    0.5308    7.6974 H         1 RES1    0.0000
     17 H4         2.5660    2.4611   12.2029 H         1 RES1    0.0000
@<TRIPOS>BOND
     1    1    8 1
     2    2    8 1
     3    3   11 1
     4    4   12 1
     5    5    8 1
     6    6   10 2
     7    7   10 2
     8    8    9 1
     9   10    5 1
    10   11    5 2
    11   12   13 2
    12   13    1 1
    13   14    1 1
    14   15   11 1
    15   16    2 1
    16   17    3 1
    17    3   13 1
    18    4   14 2
@<TRIPOS>SUBSTRUCTURE
     1 RES1 1

@<TRIPOS>CRYSIN
   6.6135    8.0429   13.1355  90.0000  90.0000  90.0000  19 1

