# MOL2 file generated by ConQuest
# Please check atom types

@<TRIPOS>MOLECULE
YILPUE
    37    38     1
SMALL
NO_CHARGES
****
Generated from CSD

@<TRIPOS>ATOM
      1 O1         1.8250    7.0494    5.1483 O.2       1 RES1    0.0000
      2 O2         4.4943    1.8054    4.2092 O.2       1 RES1    0.0000
      3 O3         2.2919    4.7350    3.9677 O.2       1 RES1    0.0000
      4 O4         2.9867    8.6932    4.3457 O.2       1 RES1    0.0000
      5 O5         3.5074    2.6022    2.4691 O.2       1 RES1    0.0000
      6 O6         1.3549    7.9523    2.0131 O.2       1 RES1    0.0000
      7 N1         4.3876    2.6260    3.3122 N.pl3     1 RES1    0.0000
      8 N2         2.2630    5.4622    2.9972 N.pl3     1 RES1    0.0000
      9 O7         3.3296    7.9789    1.1161 O.2       1 RES1    0.0000
     10 C1         5.4612    3.7211    3.2432 C.3       1 RES1    0.0000
     11 O8         1.7671    5.2138    1.9186 O.2       1 RES1    0.0000
     12 N3         2.5478    7.5572    4.3337 N.pl3     1 RES1    0.0000
     13 C2         5.4212    4.5666    4.4822 C.ar      1 RES1    0.0000
     14 C3         5.0117    5.8974    4.4372 C.ar      1 RES1    0.0000
     15 N4         2.5299    7.6449    1.9591 N.pl3     1 RES1    0.0000
     16 C4         3.0196    6.7629    3.1142 C.3       1 RES1    0.0000
     17 C5         5.1290    6.6750    5.5863 C.ar      1 RES1    0.0000
     18 C6         4.9560    5.7285    1.9231 C.2       1 RES1    0.0000
     19 C7         5.3569    4.4663    1.9546 C.2       1 RES1    0.0000
     20 C8         5.9528    4.8180    6.8134 C.ar      1 RES1    0.0000
     21 C9         5.5899    6.1561    6.7849 C.ar      1 RES1    0.0000
     22 C10        4.5428    6.5260    3.1307 C.3       1 RES1    0.0000
     23 C11        5.8951    4.0475    5.6838 C.ar      1 RES1    0.0000
     24 C12        5.8077    3.7270    0.7290 C.3       1 RES1    0.0000
     25 C13        5.7472    7.0320    7.9879 C.3       1 RES1    0.0000
     26 H1         6.3295    3.2669    3.2387 H         1 RES1    0.0000
     27 H2         4.8900    7.5728    5.5473 H         1 RES1    0.0000
     28 H3         4.9281    6.1528    1.0966 H         1 RES1    0.0000
     29 H4         6.2404    4.4380    7.6114 H         1 RES1    0.0000
     30 H5         4.9738    7.4034    3.0602 H         1 RES1    0.0000
     31 H6         6.1774    3.1618    5.7198 H         1 RES1    0.0000
     32 H7         6.0543    2.8305    0.9691 H         1 RES1    0.0000
     33 H8         6.5645    4.1751    0.3450 H         1 RES1    0.0000
     34 H9         5.0922    3.7013    0.0900 H         1 RES1    0.0000
     35 H10        6.0754    6.5091    8.7245 H         1 RES1    0.0000
     36 H11        4.8976    7.4129    8.2204 H         1 RES1    0.0000
     37 H12        6.3710    7.7354    7.7929 H         1 RES1    0.0000
@<TRIPOS>BOND
     1    1   12 2
     2    2    7 2
     3    3    8 2
     4    4   12 2
     5    5    7 2
     6    6   15 2
     7    7   10 1
     8    8   11 2
     9    9   15 2
    10   10   13 1
    11   12   16 1
    12   13   14 ar
    13   14   17 ar
    14   15   16 1
    15   16    8 1
    16   17   21 ar
    17   18   19 2
    18   19   10 1
    19   20   21 ar
    20   21   25 1
    21   22   14 1
    22   23   13 ar
    23   24   19 1
    24   25   35 1
    25   26   10 1
    26   27   17 1
    27   28   18 1
    28   29   20 1
    29   30   22 1
    30   31   23 1
    31   32   24 1
    32   33   24 1
    33   34   24 1
    34   36   25 1
    35   37   25 1
    36   16   22 1
    37   18   22 1
    38   20   23 ar
@<TRIPOS>SUBSTRUCTURE
     1 RES1 1

@<TRIPOS>CRYSIN
   6.5800    7.7000   15.2250  80.4400  89.9500  75.9600   2 1

