# MOL2 file generated by ConQuest
# Please check atom types

@<TRIPOS>MOLECULE
YILQER
    66    70     2
SMALL
USER_CHARGES
****
Generated from CSD

@<TRIPOS>ATOM
      1 O1         4.1025    7.9028    4.1594 O.2       1 RES1   -1.0000
      2 N1         1.9144    9.7098    4.8880 N.pl3     1 RES1    0.0000
      3 C1         3.8047    8.1378    5.3494 C.ar      1 RES1    0.0000
      4 O2         1.8238    9.2524    3.7495 O.2       1 RES1    0.0000
      5 N2         3.2301    9.2487    9.5330 N.pl3     1 RES1    0.0000
      6 C2         2.8245    9.0884    5.8312 C.ar      1 RES1    0.0000
      7 O3         1.2328   10.6629    5.2721 O.2       1 RES1    0.0000
      8 C3         2.6730    9.4481    7.1659 C.ar      1 RES1    0.0000
      9 H1         2.0375   10.1161    7.3955 H         1 RES1    0.0000
     10 O4         2.4275   10.1450    9.8020 O.2       1 RES1    0.0000
     11 C4         3.4180    8.8627    8.1632 C.ar      1 RES1    0.0000
     12 C5         4.3220    7.8359    7.7949 C.ar      1 RES1    0.0000
     13 O5         3.8872    8.6524   10.3895 O.2       1 RES1    0.0000
     14 N3         5.1610    7.0152    8.5183 N.pl3     1 RES1    0.0000
     15 H2         5.2195    6.9598    9.3945 H         1 RES1    0.0000
     16 C6         5.7853    6.1720    7.6825 C.2       1 RES1    0.0000
     17 C7         6.6847    5.0705    8.1005 C.3       1 RES1    0.0000
     18 H3         6.8723    5.1546    9.0686 H         1 RES1    0.0000
     19 H4         7.5442    5.1517    7.6158 H         1 RES1    0.0000
     20 C8         6.0755    3.6842    7.8213 C.3       1 RES1    0.0000
     21 H5         6.5741    3.0051    8.3429 H         1 RES1    0.0000
     22 H6         5.1374    3.6772    8.1383 H         1 RES1    0.0000
     23 C9         6.1013    3.2907    6.3508 C.3       1 RES1    0.0000
     24 H7         5.7715    2.3600    6.2740 H         1 RES1    0.0000
     25 H8         7.0430    3.2970    6.0444 H         1 RES1    0.0000
     26 C10        5.2836    4.1672    5.3996 C.3       1 RES1    0.0000
     27 H9         5.2825    3.7450    4.5046 H         1 RES1    0.0000
     28 H10        4.3472    4.1897    5.7185 H         1 RES1    0.0000
     29 C11        5.7826    5.6027    5.2584 C.3       1 RES1    0.0000
     30 H11        6.7680    5.5975    5.1670 H         1 RES1    0.0000
     31 H12        5.4025    6.0000    4.4360 H         1 RES1    0.0000
     32 N4         5.4053    6.4402    6.4262 N.pl3     1 RES1    1.0000
     33 C12        4.4754    7.4872    6.4603 C.ar      1 RES1    0.0000
     34 O6         0.9639   -0.7211    2.2432 O.2       2 RES2   -1.0000
     35 N5         0.0663   -3.3220    1.2008 N.pl3     2 RES2    0.0000
     36 C13        1.1812   -1.0728    1.0627 C.ar      2 RES2    0.0000
     37 O7        -0.2902   -3.0708    2.3407 O.2       2 RES2    0.0000
     38 N6         2.1183   -2.1993   -3.0310 N.pl3     2 RES2    0.0000
     39 C14        0.8167   -2.3337    0.4420 C.ar      2 RES2    0.0000
     40 O8        -0.2323   -4.3752    0.6456 O.2       2 RES2    0.0000
     41 C15        1.1231   -2.6770   -0.8666 C.ar      2 RES2    0.0000
     42 H13        0.8815   -3.5370   -1.1901 H         2 RES2    0.0000
     43 O9         1.7942   -3.3289   -3.4205 O.2       2 RES2    0.0000
     44 C16        1.7706   -1.7976   -1.7070 C.ar      2 RES2    0.0000
     45 C17        2.1214   -0.5217   -1.1986 C.ar      2 RES2    0.0000
     46 O10        2.7391   -1.3864   -3.7313 O.2       2 RES2    0.0000
     47 N7         2.7459    0.5769   -1.7574 N.pl3     2 RES2    0.0000
     48 H14        2.9868    0.7179   -2.5967 H         2 RES2    0.0000
     49 C18        2.8558    1.5412   -0.8278 C.2       2 RES2    0.0000
     50 C19        3.5003    2.8582   -1.0433 C.3       2 RES2    0.0000
     51 H15        2.8371    3.5723   -0.8722 H         2 RES2    0.0000
     52 H16        3.7809    2.9276   -1.9897 H         2 RES2    0.0000
     53 C20        4.7226    3.0879   -0.1440 C.3       2 RES2    0.0000
     54 H17        5.3046    2.2884   -0.1900 H         2 RES2    0.0000
     55 H18        5.2380    3.8543   -0.5001 H         2 RES2    0.0000
     56 C21        4.3878    3.3636    1.3187 C.3       2 RES2    0.0000
     57 H19        3.7930    4.1544    1.3577 H         2 RES2    0.0000
     58 H20        5.2256    3.5987    1.7905 H         2 RES2    0.0000
     59 C22        3.7153    2.2184    2.0742 C.3       2 RES2    0.0000
     60 H21        4.2821    1.4106    1.9950 H         2 RES2    0.0000
     61 H22        3.6664    2.4572    3.0334 H         2 RES2    0.0000
     62 C23        2.3186    1.8825    1.5836 C.3       2 RES2    0.0000
     63 H23        1.8464    1.3630    2.2813 H         2 RES2    0.0000
     64 H24        1.8154    2.7222    1.4395 H         2 RES2    0.0000
     65 N8         2.3303    1.1004    0.3209 N.pl3     2 RES2    1.0000
     66 C24        1.8498   -0.1992    0.1185 C.ar      2 RES2    0.0000
@<TRIPOS>BOND
     1    1    3 1
     2    2    4 2
     3    3    6 ar
     4    5   10 2
     5    6    2 1
     6    7    2 2
     7    8    6 ar
     8    9    8 1
     9   11    5 1
    10   12   11 ar
    11   13    5 2
    12   14   12 1
    13   15   14 1
    14   16   14 1
    15   17   16 1
    16   18   17 1
    17   19   17 1
    18   20   17 1
    19   21   20 1
    20   22   20 1
    21   23   20 1
    22   24   23 1
    23   25   23 1
    24   26   23 1
    25   27   26 1
    26   28   26 1
    27   29   26 1
    28   30   29 1
    29   31   29 1
    30   32   16 2
    31   33    3 ar
    32   34   36 1
    33   35   37 2
    34   36   39 ar
    35   38   43 2
    36   39   35 1
    37   40   35 2
    38   41   39 ar
    39   42   41 1
    40   44   38 1
    41   45   44 ar
    42   46   38 2
    43   47   45 1
    44   48   47 1
    45   49   47 1
    46   50   49 1
    47   51   50 1
    48   52   50 1
    49   53   50 1
    50   54   53 1
    51   55   53 1
    52   56   53 1
    53   57   56 1
    54   58   56 1
    55   59   56 1
    56   60   59 1
    57   61   59 1
    58   62   59 1
    59   63   62 1
    60   64   62 1
    61   65   49 2
    62   66   36 ar
    63    8   11 ar
    64   12   33 ar
    65   29   32 1
    66   32   33 1
    67   41   44 ar
    68   45   66 ar
    69   62   65 1
    70   65   66 1
@<TRIPOS>SUBSTRUCTURE
     1 RES1 1
     2 RES2 34

@<TRIPOS>CRYSIN
   9.5446   10.1673   13.9813 108.0690  91.9710 104.3480   2 1

