# MOL2 file generated by ConQuest
# Please check atom types

@<TRIPOS>MOLECULE
YILTEU
    44    48     1
SMALL
USER_CHARGES
****
Generated from CSD

@<TRIPOS>ATOM
      1 O1         2.0326    0.5563   10.4670 O.3       1 RES1    0.0000
      2 O2         3.3314    3.9287   12.3817 O.3       1 RES1    0.0000
      3 O3         5.7746    5.1217   12.4631 O.2       1 RES1    0.0000
      4 O4         6.6371    5.4706   10.4897 O.2       1 RES1    0.0000
      5 O5         5.9224    2.5006    6.9468 O.2       1 RES1    0.0000
      6 O6         4.2209    1.1366    6.9801 O.2       1 RES1    0.0000
      7 N1         2.7419    0.7819    9.2699 N.2       1 RES1   -1.0000
      8 N2         2.5283    1.3488   11.4871 N.2       1 RES1    0.0000
      9 N3         4.9439    2.4203   12.8910 N.pl3     1 RES1    1.0000
     10 N4         5.8990    4.8369   11.2530 N.pl3     1 RES1    0.0000
     11 N5         4.9553    1.9959    7.4985 N.pl3     1 RES1    0.0000
     12 C1         4.2746    3.0350   11.7264 C.3       1 RES1    0.0000
     13 C2         5.1614    3.7299   10.7754 C.2       1 RES1    0.0000
     14 C3         5.3438    3.3476    9.4518 C.2       1 RES1    0.0000
     15 C4         4.6419    2.3400    8.8514 C.2       1 RES1    0.0000
     16 C5         3.6433    1.6958    9.5839 C.2       1 RES1    0.0000
     17 C6         3.4823    2.0313   10.9369 C.2       1 RES1    0.0000
     18 C7         3.4470    3.8341   13.7227 C.2       1 RES1    0.0000
     19 C8         2.6757    4.5912   14.5271 C.2       1 RES1    0.0000
     20 C9         2.6219    4.5960   15.9233 C.2       1 RES1    0.0000
     21 C10        3.3527    3.8312   16.7828 C.2       1 RES1    0.0000
     22 C11        4.3484    2.8859   16.5206 C.2       1 RES1    0.0000
     23 C12        4.8316    2.4815   15.3226 C.2       1 RES1    0.0000
     24 C13        4.4384    2.8773   14.0322 C.2       1 RES1    0.0000
     25 C14        6.0653    1.4797   12.7005 C.3       1 RES1    0.0000
     26 C15        7.3744    2.1795   12.4558 C.ar      1 RES1    0.0000
     27 C16        8.0056    2.8773   13.4749 C.ar      1 RES1    0.0000
     28 C17        9.1805    3.5292   13.2513 C.ar      1 RES1    0.0000
     29 C18        9.7304    3.5292   11.9791 C.ar      1 RES1    0.0000
     30 C19        9.1438    2.8448   10.9629 C.ar      1 RES1    0.0000
     31 C20        7.9726    2.1861   11.2158 C.ar      1 RES1    0.0000
     32 H1         6.0593    3.8523    9.0061 H         1 RES1    0.0000
     33 H2         2.1916    5.1714   14.0929 H         1 RES1    0.0000
     34 H3         1.9602    5.2288   16.3445 H         1 RES1    0.0000
     35 H4         3.0574    3.9479   17.6903 H         1 RES1    0.0000
     36 H5         4.6872    2.3993   17.3723 H         1 RES1    0.0000
     37 H6         5.5282    1.8449   15.3457 H         1 RES1    0.0000
     38 H7         5.9046    0.9272   11.9132 H         1 RES1    0.0000
     39 H8         6.0100    0.9368   13.5713 H         1 RES1    0.0000
     40 H9         7.6291    2.7912   14.3761 H         1 RES1    0.0000
     41 H10        9.6477    3.9574   13.9320 H         1 RES1    0.0000
     42 H11       10.5178    3.9479   11.7910 H         1 RES1    0.0000
     43 H12        9.6569    2.8581    9.9874 H         1 RES1    0.0000
     44 H13        7.5816    1.6824   10.6390 H         1 RES1    0.0000
@<TRIPOS>BOND
     1    1    7 1
     2    2   12 1
     3    3   10 2
     4    4   10 2
     5    5   11 2
     6    6   11 2
     7    7   16 1
     8    8    1 1
     9    9   12 1
    10   10   13 1
    11   11   15 1
    12   12   13 1
    13   13   14 2
    14   14   15 1
    15   15   16 2
    16   16   17 1
    17   17    8 2
    18   18    2 1
    19   19   18 2
    20   20   19 1
    21   21   20 2
    22   22   21 1
    23   23   22 2
    24   24    9 2
    25   25    9 1
    26   26   25 1
    27   27   26 ar
    28   28   27 ar
    29   29   28 ar
    30   30   29 ar
    31   31   26 ar
    32   32   14 1
    33   33   19 1
    34   34   20 1
    35   35   21 1
    36   36   22 1
    37   37   23 1
    38   38   25 1
    39   39   25 1
    40   40   27 1
    41   41   28 1
    42   42   29 1
    43   43   30 1
    44   44   31 1
    45   12   17 1
    46   18   24 1
    47   23   24 1
    48   30   31 ar
@<TRIPOS>SUBSTRUCTURE
     1 RES1 1

@<TRIPOS>CRYSIN
   9.9640    9.5590   19.4560  90.0000  94.6100  90.0000 231 1

