# MOL2 file generated by ConQuest
# Please check atom types

@<TRIPOS>MOLECULE
YIMPOB
    29    29     1
SMALL
USER_CHARGES
****
Generated from CSD

@<TRIPOS>ATOM
      1 H1         0.7374    2.8023   11.2844 H         1 RES1    0.0000
      2 C1         1.2794    1.9329    9.6970 C.2       1 RES1    0.0000
      3 H2         1.5294    2.0881    8.8149 H         1 RES1    0.0000
      4 C2         1.3108    0.5978   10.1668 C.ar      1 RES1    0.0000
      5 C3         0.9998    0.2558   11.5296 C.ar      1 RES1    0.0000
      6 C4         1.0815   -1.1396   11.8703 C.ar      1 RES1    0.0000
      7 H3         0.9018   -1.4069   12.7427 H         1 RES1    0.0000
      8 C5         1.4141   -2.0723   10.9470 C.ar      1 RES1    0.0000
      9 H4         1.4630   -2.9676   11.1954 H         1 RES1    0.0000
     10 C6         1.6848   -1.7101    9.6265 C.ar      1 RES1    0.0000
     11 C7         1.6448   -0.3966    9.2435 C.ar      1 RES1    0.0000
     12 H5         1.8411   -0.1638    8.3635 H         1 RES1    0.0000
     13 C8         0.8030    4.3127    9.8576 C.3       1 RES1    0.0000
     14 H6         1.3121    4.3702    9.0340 H         1 RES1    0.0000
     15 H7        -0.1277    4.4838    9.6438 H         1 RES1    0.0000
     16 C9         1.2774    5.3388   10.7864 C.3       1 RES1    0.0000
     17 H8         2.2017    5.1089   11.0153 H         1 RES1    0.0000
     18 C10        1.3151    6.7156   10.1364 C.3       1 RES1    0.0000
     19 H9         1.4201    7.3881   10.8287 H         1 RES1    0.0000
     20 H10        2.0903    6.7673    9.5549 H         1 RES1    0.0000
     21 N1         0.9285    2.9461   10.4077 N.pl3     1 RES1    1.0000
     22 N2         2.0177   -2.7161    8.6423 N.pl3     1 RES1    0.0000
     23 O1         0.6655    1.1549   12.3741 O.2       1 RES1   -1.0000
     24 O2         0.5288    5.2999   12.0038 O.3       1 RES1    0.0000
     25 H11        0.0256    5.9467   12.0364 H         1 RES1    0.0000
     26 O3         0.1594    7.0102    9.3845 O.3       1 RES1    0.0000
     27 H12        0.2002    6.6279    8.6608 H         1 RES1    0.0000
     28 O4         2.1092   -3.8773    9.0134 O.2       1 RES1    0.0000
     29 O5         2.1806   -2.3854    7.4716 O.2       1 RES1    0.0000
@<TRIPOS>BOND
     1    1   21 1
     2    2    3 1
     3    4    2 1
     4    5    4 ar
     5    6    5 ar
     6    7    6 1
     7    8    6 ar
     8    9    8 1
     9   10    8 ar
    10   11    4 ar
    11   12   11 1
    12   13   14 1
    13   15   13 1
    14   16   13 1
    15   17   16 1
    16   18   16 1
    17   19   18 1
    18   20   18 1
    19   21    2 2
    20   22   10 1
    21   23    5 1
    22   24   16 1
    23   25   24 1
    24   26   18 1
    25   27   26 1
    26   28   22 2
    27   29   22 2
    28   10   11 ar
    29   13   21 1
@<TRIPOS>SUBSTRUCTURE
     1 RES1 1

@<TRIPOS>CRYSIN
   7.0630   14.3710   10.8642  90.0000  92.8880  90.0000  14 1

