# MOL2 file generated by ConQuest
# Please check atom types

@<TRIPOS>MOLECULE
YIMWIC
    27    28     1
SMALL
NO_CHARGES
****
Generated from CSD

@<TRIPOS>ATOM
      1 O1         1.1898    6.0892    3.7334 O.3       1 RES1    0.0000
      2 O2         2.9810    5.7978    5.0146 O.2       1 RES1    0.0000
      3 O3         9.4487    6.2666    4.5855 O.3       1 RES1    0.0000
      4 N1         0.8817    6.2376    2.3291 N.2       1 RES1    0.0000
      5 C1         8.2648    6.1565    3.9448 C.ar      1 RES1    0.0000
      6 C2        10.6366    6.3321    3.8055 C.3       1 RES1    0.0000
      7 H1        11.3967    6.4082    4.3868 H         1 RES1    0.0000
      8 H2        10.5974    7.0975    3.2274 H         1 RES1    0.0000
      9 H3        10.7162    5.5349    3.2759 H         1 RES1    0.0000
     10 C3         2.0220    6.3404    0.2206 C.3       1 RES1    0.0000
     11 H4         1.1223    6.4165   -0.1065 H         1 RES1    0.0000
     12 H5         2.4385    5.5653   -0.1633 H         1 RES1    0.0000
     13 H6         2.5182    7.1252   -0.0237 H         1 RES1    0.0000
     14 C4         2.5456    5.9758    3.9085 C.2       1 RES1    0.0000
     15 C5         7.1280    6.2158    4.7554 C.ar      1 RES1    0.0000
     16 H7         7.2251    6.2989    5.6764 H         1 RES1    0.0000
     17 C6         8.1202    6.0031    2.5702 C.ar      1 RES1    0.0000
     18 H8         8.8697    5.9401    2.0231 H         1 RES1    0.0000
     19 C7         5.8746    6.1534    4.2127 C.ar      1 RES1    0.0000
     20 H9         5.1301    6.1973    4.7678 H         1 RES1    0.0000
     21 C8         2.0016    6.2094    1.6971 C.2       1 RES1    0.0000
     22 C9         6.8496    5.9455    2.0268 C.ar      1 RES1    0.0000
     23 H10        6.7550    5.8523    1.1062 H         1 RES1    0.0000
     24 C10        3.1429    6.0716    2.5734 C.2       1 RES1    0.0000
     25 C11        5.6996    6.0238    2.8252 C.ar      1 RES1    0.0000
     26 C12        4.4317    6.0369    2.1447 C.2       1 RES1    0.0000
     27 H11        4.5111    6.0175    1.2186 H         1 RES1    0.0000
@<TRIPOS>BOND
     1    1    4 1
     2    2   14 2
     3    3    5 1
     4    4   21 2
     5    5   15 ar
     6    6    3 1
     7    7    6 1
     8    8    6 1
     9    9    6 1
    10   10   11 1
    11   12   10 1
    12   13   10 1
    13   14    1 1
    14   15   16 1
    15   17    5 ar
    16   18   17 1
    17   19   15 ar
    18   20   19 1
    19   21   10 1
    20   22   17 ar
    21   23   22 1
    22   24   14 1
    23   25   19 ar
    24   26   24 2
    25   27   26 1
    26   21   24 1
    27   22   25 ar
    28   25   26 1
@<TRIPOS>SUBSTRUCTURE
     1 RES1 1

@<TRIPOS>CRYSIN
  12.8059    6.9143   12.7500  90.0000 111.8900  90.0000  14 1

