# MOL2 file generated by ConQuest
# Please check atom types

@<TRIPOS>MOLECULE
YINFAD
    49    50     1
SMALL
NO_CHARGES
****
Generated from CSD

@<TRIPOS>ATOM
      1 O1         0.1773    1.2462    5.8279 O.3       1 RES1    0.0000
      2 H1         0.5361    0.5106    5.8900 H         1 RES1    0.0000
      3 C1         3.3661   -5.0922    6.9882 C.3       1 RES1    0.0000
      4 H2         4.0095   -4.6540    7.5500 H         1 RES1    0.0000
      5 H3         3.8222   -5.6231    6.3319 H         1 RES1    0.0000
      6 H4         2.8062   -5.6593    7.5238 H         1 RES1    0.0000
      7 C2        -1.2998    2.7732   -0.1278 C.3       1 RES1    0.0000
      8 H5        -1.6649    2.8986   -1.0063 H         1 RES1    0.0000
      9 H6        -0.4034    2.4354   -0.1986 H         1 RES1    0.0000
     10 H7        -1.2896    3.6125    0.3378 H         1 RES1    0.0000
     11 H8         0.3281   -1.5995    3.2990 H         1 RES1    0.0000
     12 H9         3.0143   -2.1146    6.7730 H         1 RES1    0.0000
     13 C3        -0.9267    0.4385    2.4309 C.ar      1 RES1    0.0000
     14 H10       -0.8883   -0.2779    1.8376 H         1 RES1    0.0000
     15 C4        -0.4036    1.3634    4.6098 C.ar      1 RES1    0.0000
     16 N1         0.9376   -1.1418    5.1261 N.2       1 RES1    0.0000
     17 C5        -1.6246    2.6247    3.0041 C.ar      1 RES1    0.0000
     18 H11       -2.0661    3.4091    2.7661 H         1 RES1    0.0000
     19 C6        -1.0709    2.5576    4.2747 C.ar      1 RES1    0.0000
     20 C7         0.3431   -0.9396    4.0113 C.2       1 RES1    0.0000
     21 C8        -1.5654    1.5873    2.0476 C.ar      1 RES1    0.0000
     22 O2         1.5875   -4.5645    5.4744 O.3       1 RES1    0.0000
     23 C9        -0.3257    0.3088    3.6971 C.ar      1 RES1    0.0000
     24 C10       -1.1732    3.7277    5.2687 C.3       1 RES1    0.0000
     25 C11        1.4397   -2.4264    5.4017 C.2       1 RES1    0.0000
     26 N2         0.8794   -3.4959    4.9012 N.2       1 RES1    0.0000
     27 C12       -2.1587    1.7748    0.6432 C.3       1 RES1    0.0000
     28 C13        2.5340   -4.0765    6.3092 C.2       1 RES1    0.0000
     29 C14        2.4733   -2.7422    6.2952 C.2       1 RES1    0.0000
     30 C15       -1.9199    4.9223    4.6807 C.3       1 RES1    0.0000
     31 H12       -1.9542    5.6299    5.3291 H         1 RES1    0.0000
     32 H13       -2.8130    4.6585    4.4470 H         1 RES1    0.0000
     33 H14       -1.4605    5.2300    3.8949 H         1 RES1    0.0000
     34 C16        0.2372    4.2084    5.6538 C.3       1 RES1    0.0000
     35 H15        0.1679    4.9318    6.2820 H         1 RES1    0.0000
     36 H16        0.6975    4.5094    4.8680 H         1 RES1    0.0000
     37 H17        0.7237    3.4837    6.0528 H         1 RES1    0.0000
     38 C17       -1.9354    3.2876    6.5306 C.3       1 RES1    0.0000
     39 H18       -1.9787    4.0191    7.1501 H         1 RES1    0.0000
     40 H19       -1.4771    2.5484    6.9392 H         1 RES1    0.0000
     41 H20       -2.8250    3.0183    6.2899 H         1 RES1    0.0000
     42 C18       -3.5875    2.2899    0.7105 C.3       1 RES1    0.0000
     43 H21       -3.9289    2.4038   -0.1794 H         1 RES1    0.0000
     44 H22       -3.6023    3.1335    1.1700 H         1 RES1    0.0000
     45 H23       -4.1336    1.6583    1.1840 H         1 RES1    0.0000
     46 C19       -2.1866    0.4613   -0.1409 C.3       1 RES1    0.0000
     47 H24       -2.5579    0.6168   -1.0124 H         1 RES1    0.0000
     48 H25       -2.7273   -0.1785    0.3273 H         1 RES1    0.0000
     49 H26       -1.2933    0.1220   -0.2293 H         1 RES1    0.0000
@<TRIPOS>BOND
     1    1    2 1
     2    3    4 1
     3    5    3 1
     4    6    3 1
     5    7    8 1
     6    9    7 1
     7   10    7 1
     8   11   20 1
     9   12   29 1
    10   13   14 1
    11   15    1 1
    12   16   20 2
    13   17   18 1
    14   19   15 ar
    15   20   23 1
    16   21   13 ar
    17   22   26 1
    18   23   13 ar
    19   24   19 1
    20   25   16 1
    21   26   25 2
    22   27    7 1
    23   28    3 1
    24   29   25 1
    25   30   24 1
    26   31   30 1
    27   32   30 1
    28   33   30 1
    29   34   24 1
    30   35   34 1
    31   36   34 1
    32   37   34 1
    33   38   24 1
    34   39   38 1
    35   40   38 1
    36   41   38 1
    37   42   27 1
    38   43   42 1
    39   44   42 1
    40   45   42 1
    41   46   27 1
    42   47   46 1
    43   48   46 1
    44   49   46 1
    45   15   23 ar
    46   17   19 ar
    47   17   21 ar
    48   21   27 1
    49   22   28 1
    50   28   29 2
@<TRIPOS>SUBSTRUCTURE
     1 RES1 1

@<TRIPOS>CRYSIN
   9.0244   22.5920    9.7820  90.0000 116.5480  90.0000 231 1

