# MOL2 file generated by ConQuest
# Please check atom types

@<TRIPOS>MOLECULE
YIPMAM
    65    69     1
SMALL
NO_CHARGES
****
Generated from CSD

@<TRIPOS>ATOM
      1 O1         3.0559    2.6715    9.6222 O.2       1 RES1    0.0000
      2 O2         3.2319    1.3642   11.3218 O.2       1 RES1    0.0000
      3 O3         2.6396   -0.6285    6.7444 O.2       1 RES1    0.0000
      4 O4         3.2509    1.3008    5.7287 O.3       1 RES1    0.0000
      5 O5         4.4784   -0.2095    3.6774 O.2       1 RES1    0.0000
      6 O6         4.6704   -2.8764   -2.6577 O.2       1 RES1    0.0000
      7 O7         3.2945   -1.4377   -3.6886 O.3       1 RES1    0.0000
      8 N1         3.3355    1.5932   10.1281 N.pl3     1 RES1    0.0000
      9 N2         2.9302    0.8055    2.2588 N.am      1 RES1    0.0000
     10 C1         3.7788    0.4507    9.2514 C.3       1 RES1    0.0000
     11 H1         3.0400   -0.2198    9.1869 H         1 RES1    0.0000
     12 C2         5.0450   -0.2393    9.8193 C.3       1 RES1    0.0000
     13 H2         4.9175   -0.7831   10.6466 H         1 RES1    0.0000
     14 C3         5.4601   -1.0159    8.5515 C.3       1 RES1    0.0000
     15 H3         6.3069   -1.5159    8.6628 H         1 RES1    0.0000
     16 H4         4.7482   -1.6165    8.2167 H         1 RES1    0.0000
     17 C4         5.6232    0.2551    7.7034 C.3       1 RES1    0.0000
     18 H5         5.9702    0.1248    6.7743 H         1 RES1    0.0000
     19 C5         6.1321    0.8101    9.8695 C.2       1 RES1    0.0000
     20 H6         6.5018    1.1956   10.6552 H         1 RES1    0.0000
     21 C6         6.4785    1.0978    8.6225 C.2       1 RES1    0.0000
     22 H7         7.1444    1.7208    8.3553 H         1 RES1    0.0000
     23 C7         4.1897    0.9023    7.8255 C.3       1 RES1    0.0000
     24 H8         4.2577    1.8996    7.7879 H         1 RES1    0.0000
     25 C8         3.2638    0.4032    6.7462 C.2       1 RES1    0.0000
     26 C9         2.5225    0.9684    4.5441 C.3       1 RES1    0.0000
     27 H9         1.8278    0.2831    4.7602 H         1 RES1    0.0000
     28 C10        1.8646    2.1696    3.8909 C.3       1 RES1    0.0000
     29 C11        2.7923    3.3820    3.8965 C.3       1 RES1    0.0000
     30 H10        2.3398    4.1418    3.4738 H         1 RES1    0.0000
     31 H11        3.6096    3.1706    3.4001 H         1 RES1    0.0000
     32 H12        3.0234    3.6129    4.8208 H         1 RES1    0.0000
     33 C12        0.5108    2.5207    4.5138 C.3       1 RES1    0.0000
     34 H13        0.1306    3.2982    4.0542 H         1 RES1    0.0000
     35 H14        0.6322    2.7302    5.4619 H         1 RES1    0.0000
     36 H15       -0.0981    1.7580    4.4224 H         1 RES1    0.0000
     37 C13        1.7101    1.6165    2.4503 C.3       1 RES1    0.0000
     38 H16        0.8958    1.0587    2.3693 H         1 RES1    0.0000
     39 H17        1.6647    2.3521    1.7889 H         1 RES1    0.0000
     40 C14        3.4600    0.4255    3.4738 C.2       1 RES1    0.0000
     41 C15        3.2509    0.2188    1.0135 C.ar      1 RES1    0.0000
     42 C16        2.3569    0.3641   -0.0507 C.ar      1 RES1    0.0000
     43 H18        1.5832    0.9051    0.0476 H         1 RES1    0.0000
     44 C17        2.6010   -0.2831   -1.2539 C.ar      1 RES1    0.0000
     45 H19        1.9964   -0.1723   -1.9794 H         1 RES1    0.0000
     46 C18        4.4049   -0.5252    0.8420 C.ar      1 RES1    0.0000
     47 H20        5.0419   -0.5811    1.5463 H         1 RES1    0.0000
     48 C19        4.6317   -1.1900   -0.3552 C.ar      1 RES1    0.0000
     49 H21        5.4141   -1.7189   -0.4591 H         1 RES1    0.0000
     50 C20        3.7175   -1.0876   -1.4086 C.ar      1 RES1    0.0000
     51 C21        3.9597   -1.9005   -2.6240 C.2       1 RES1    0.0000
     52 C22        3.4704   -2.2255   -4.9101 C.3       1 RES1    0.0000
     53 H22        2.8843   -3.0226   -4.8902 H         1 RES1    0.0000
     54 H23        4.4098   -2.5281   -4.9898 H         1 RES1    0.0000
     55 C23        3.1099   -1.3465   -6.0709 C.ar      1 RES1    0.0000
     56 C24        1.8125   -0.8744   -6.2428 C.ar      1 RES1    0.0000
     57 H24        1.1411   -1.0857   -5.6048 H         1 RES1    0.0000
     58 C25        1.4973   -0.0913   -7.3482 C.ar      1 RES1    0.0000
     59 H25        0.6113    0.2319   -7.4630 H         1 RES1    0.0000
     60 C26        2.4728    0.2188   -8.2851 C.ar      1 RES1    0.0000
     61 H26        2.2509    0.7431   -9.0440 H         1 RES1    0.0000
     62 C27        3.7684   -0.2356   -8.1123 C.ar      1 RES1    0.0000
     63 H27        4.4368   -0.0149   -8.7494 H         1 RES1    0.0000
     64 C28        4.0952   -1.0131   -7.0060 C.ar      1 RES1    0.0000
     65 H28        4.9867   -1.3167   -6.8869 H         1 RES1    0.0000
@<TRIPOS>BOND
     1    1    8 2
     2    2    8 2
     3    3   25 2
     4    4   25 1
     5    5   40 2
     6    6   51 2
     7    7   51 1
     8    8   10 1
     9    9   37 1
    10   10   11 1
    11   12   10 1
    12   13   12 1
    13   14   12 1
    14   15   14 1
    15   16   14 1
    16   17   14 1
    17   18   17 1
    18   19   12 1
    19   20   19 1
    20   21   17 1
    21   22   21 1
    22   23   10 1
    23   24   23 1
    24   25   23 1
    25   26    4 1
    26   27   26 1
    27   28   26 1
    28   29   28 1
    29   30   29 1
    30   31   29 1
    31   32   29 1
    32   33   28 1
    33   34   33 1
    34   35   33 1
    35   36   33 1
    36   37   28 1
    37   38   37 1
    38   39   37 1
    39   40    9 1
    40   41    9 1
    41   42   41 ar
    42   43   42 1
    43   44   42 ar
    44   45   44 1
    45   46   41 ar
    46   47   46 1
    47   48   46 ar
    48   49   48 1
    49   50   44 ar
    50   51   50 1
    51   52    7 1
    52   53   52 1
    53   54   52 1
    54   55   52 1
    55   56   55 ar
    56   57   56 1
    57   58   56 ar
    58   59   58 1
    59   60   58 ar
    60   61   60 1
    61   62   60 ar
    62   63   62 1
    63   64   55 ar
    64   65   64 1
    65   17   23 1
    66   19   21 2
    67   26   40 1
    68   48   50 ar
    69   62   64 ar
@<TRIPOS>SUBSTRUCTURE
     1 RES1 1

@<TRIPOS>CRYSIN
   6.1315    9.3117   43.3140  90.0000  90.0000  90.0000  19 1

