# MOL2 file generated by ConQuest
# Please check atom types

@<TRIPOS>MOLECULE
YIPQOF
    49    52     1
SMALL
NO_CHARGES
****
Generated from CSD

@<TRIPOS>ATOM
      1 C1         5.0361    8.4543    0.4570 C.3       1 RES1    0.0000
      2 H1         4.5605    7.7247    0.9485 H         1 RES1    0.0000
      3 C2         5.6216    7.8908   -0.8279 C.3       1 RES1    0.0000
      4 H2         6.2766    7.1781   -0.6202 H         1 RES1    0.0000
      5 H3         6.0861    8.6047   -1.3322 H         1 RES1    0.0000
      6 C3         4.4765    7.3224   -1.6582 C.3       1 RES1    0.0000
      7 H4         4.8432    6.9330   -2.4908 H         1 RES1    0.0000
      8 H5         4.0389    6.5935   -1.1498 H         1 RES1    0.0000
      9 C4         3.4415    8.3678   -2.0151 C.3       1 RES1    0.0000
     10 C5         2.3059    7.7398   -2.8107 C.3       1 RES1    0.0000
     11 C6         2.8871    9.0895   -0.7181 C.3       1 RES1    0.0000
     12 C7         1.9417   10.2134   -1.0866 C.ar      1 RES1    0.0000
     13 C8         2.1629   11.4237   -1.7064 C.ar      1 RES1    0.0000
     14 H6         3.0415   11.6894   -1.9495 H         1 RES1    0.0000
     15 C9         1.0722   12.2501   -1.9690 C.ar      1 RES1    0.0000
     16 H7         1.2108   13.0890   -2.3931 H         1 RES1    0.0000
     17 C10       -0.2047   11.8657   -1.6210 C.ar      1 RES1    0.0000
     18 H8        -0.9363   12.4345   -1.8283 H         1 RES1    0.0000
     19 C11       -0.4400   10.6599   -0.9721 C.ar      1 RES1    0.0000
     20 H9        -1.3176   10.3952   -0.7252 H         1 RES1    0.0000
     21 C12        0.6520    9.8623   -0.7014 C.ar      1 RES1    0.0000
     22 C13       -0.4682    7.9882    0.5809 C.3       1 RES1    0.0000
     23 C14        1.9429    8.1255    0.0228 C.2       1 RES1    0.0000
     24 C15        4.0567    9.5955    0.1805 C.3       1 RES1    0.0000
     25 H10        4.5562   10.2751   -0.3575 H         1 RES1    0.0000
     26 C16        3.6161   10.2936    1.4622 C.ar      1 RES1    0.0000
     27 C17        3.0472    9.6042    2.5263 C.ar      1 RES1    0.0000
     28 H11        2.8926    8.6696    2.4529 H         1 RES1    0.0000
     29 C18        2.7026   10.2712    3.6967 C.ar      1 RES1    0.0000
     30 H12        2.2976    9.7922    4.4096 H         1 RES1    0.0000
     31 C19        2.9428   11.6190    3.8315 C.ar      1 RES1    0.0000
     32 H13        2.7079   12.0681    4.6343 H         1 RES1    0.0000
     33 C20        3.5247   12.3110    2.7956 C.ar      1 RES1    0.0000
     34 H14        3.7081   13.2385    2.8863 H         1 RES1    0.0000
     35 C21        3.8436   11.6509    1.6155 C.ar      1 RES1    0.0000
     36 H15        4.2262   12.1416    0.8974 H         1 RES1    0.0000
     37 N1         6.1888    8.9498    1.2971 N.pl3     1 RES1    0.0000
     38 N2         0.6836    8.6250   -0.0341 N.am      1 RES1    0.0000
     39 O1         6.7242   10.0008    0.9997 O.2       1 RES1    0.0000
     40 O2         6.5560    8.2299    2.2169 O.2       1 RES1    0.0000
     41 O3         4.1259    9.3530   -2.8002 O.3       1 RES1    0.0000
     42 O4         2.2546    7.0631    0.5599 O.2       1 RES1    0.0000
     43 H16        3.5497    9.6501   -3.5152 H         1 RES1    0.0000
     44 H17        1.5906    8.3755   -3.0001 H         1 RES1    0.0000
     45 H18        1.8712    6.9930   -2.3143 H         1 RES1    0.0000
     46 H19        2.6516    7.3803   -3.6246 H         1 RES1    0.0000
     47 H20       -0.1684    7.2247    1.0973 H         1 RES1    0.0000
     48 H21       -0.8793    8.5789    1.1849 H         1 RES1    0.0000
     49 H22       -1.1646    7.7284   -0.0788 H         1 RES1    0.0000
@<TRIPOS>BOND
     1    1    2 1
     2    3    1 1
     3    4    3 1
     4    5    3 1
     5    6    3 1
     6    7    6 1
     7    8    6 1
     8    9    6 1
     9   10    9 1
    10   11    9 1
    11   12   11 1
    12   13   12 ar
    13   14   13 1
    14   15   13 ar
    15   16   15 1
    16   17   15 ar
    17   18   17 1
    18   19   17 ar
    19   20   19 1
    20   21   12 ar
    21   22   38 1
    22   23   11 1
    23   24    1 1
    24   25   24 1
    25   26   24 1
    26   27   26 ar
    27   28   27 1
    28   29   27 ar
    29   30   29 1
    30   31   29 ar
    31   32   31 1
    32   33   31 ar
    33   34   33 1
    34   35   26 ar
    35   36   35 1
    36   37    1 1
    37   38   21 1
    38   39   37 2
    39   40   37 2
    40   41    9 1
    41   42   23 2
    42   43   41 1
    43   44   10 1
    44   45   10 1
    45   46   10 1
    46   47   22 1
    47   48   22 1
    48   49   22 1
    49   11   24 1
    50   19   21 ar
    51   23   38 1
    52   33   35 ar
@<TRIPOS>SUBSTRUCTURE
     1 RES1 1

@<TRIPOS>CRYSIN
  10.1049   12.2556   14.6987  90.0000  96.9150  90.0000 231 1

