# MOL2 file generated by ConQuest
# Please check atom types

@<TRIPOS>MOLECULE
YIPQUL
    46    49     1
SMALL
NO_CHARGES
****
Generated from CSD

@<TRIPOS>ATOM
      1 C1         1.6633   10.5261   15.6949 C.2       1 RES1    0.0000
      2 C2         2.0175   10.1610   14.3172 C.ar      1 RES1    0.0000
      3 C3         2.1420   10.9694   13.2054 C.ar      1 RES1    0.0000
      4 H1         1.9798   11.8841   13.2507 H         1 RES1    0.0000
      5 C4         2.5168   10.3617   12.0194 C.ar      1 RES1    0.0000
      6 H2         2.5957   10.8751   11.2483 H         1 RES1    0.0000
      7 C5         2.7743    9.0101   11.9613 C.ar      1 RES1    0.0000
      8 H3         3.0385    8.6342   11.1532 H         1 RES1    0.0000
      9 C6         2.6520    8.2062   13.0641 C.ar      1 RES1    0.0000
     10 H4         2.8287    7.2948   13.0177 H         1 RES1    0.0000
     11 C7         2.2549    8.8017   14.2529 C.ar      1 RES1    0.0000
     12 C8         1.9916    8.1730   15.5446 C.2       1 RES1    0.0000
     13 C9         1.5468    9.2562   16.5348 C.3       1 RES1    0.0000
     14 C10        2.4733    9.3385   17.7918 C.3       1 RES1    0.0000
     15 C11        3.9275    9.5035   17.3738 C.3       1 RES1    0.0000
     16 H5         4.0251   10.3118   16.8641 H         1 RES1    0.0000
     17 H6         4.1940    8.7529   16.8361 H         1 RES1    0.0000
     18 H7         4.4826    9.5490   18.1561 H         1 RES1    0.0000
     19 C12        2.2746    8.1131   18.6690 C.3       1 RES1    0.0000
     20 H8         2.5888    7.3292   18.1916 H         1 RES1    0.0000
     21 H9         2.8126    8.2084   19.4706 H         1 RES1    0.0000
     22 C13        0.8281    7.8991   19.0692 C.3       1 RES1    0.0000
     23 H10        0.5304    8.6353   19.6253 H         1 RES1    0.0000
     24 H11        0.7494    7.0808   19.5824 H         1 RES1    0.0000
     25 C14       -0.0432    7.8108   17.8291 C.3       1 RES1    0.0000
     26 H12        0.2207    7.0309   17.2985 H         1 RES1    0.0000
     27 C15        0.0642    9.0671   16.9742 C.3       1 RES1    0.0000
     28 H13       -0.1582    9.8251   17.5539 H         1 RES1    0.0000
     29 C16       -0.8953    9.1158   15.8011 C.ar      1 RES1    0.0000
     30 C17       -1.6327   10.2567   15.5837 C.ar      1 RES1    0.0000
     31 H14       -1.5662   10.9682   16.1779 H         1 RES1    0.0000
     32 C18       -2.4750   10.3562   14.4846 C.ar      1 RES1    0.0000
     33 H15       -2.9696   11.1312   14.3489 H         1 RES1    0.0000
     34 C19       -2.5795    9.3250   13.6042 C.ar      1 RES1    0.0000
     35 H16       -3.1383    9.3971   12.8648 H         1 RES1    0.0000
     36 C20       -1.8666    8.1907   13.8110 C.ar      1 RES1    0.0000
     37 H17       -1.9355    7.4866   13.2078 H         1 RES1    0.0000
     38 C21       -1.0387    8.0743   14.9105 C.ar      1 RES1    0.0000
     39 H18       -0.5714    7.2826   15.0518 H         1 RES1    0.0000
     40 N1        -1.4668    7.6485   18.2848 N.pl3     1 RES1    0.0000
     41 O1         1.5144   11.6539   16.1211 O.2       1 RES1    0.0000
     42 O2         2.0683    6.9822   15.7789 O.2       1 RES1    0.0000
     43 O3         2.0680   10.4493   18.6010 O.3       1 RES1    0.0000
     44 H19        2.0713   11.3353   18.0312 H         1 RES1    0.0000
     45 O4        -2.0612    8.6142   18.6989 O.2       1 RES1    0.0000
     46 O5        -1.9561    6.5486   18.2260 O.2       1 RES1    0.0000
@<TRIPOS>BOND
     1    1    2 1
     2    2    3 ar
     3    3    4 1
     4    5    3 ar
     5    6    5 1
     6    7    5 ar
     7    8    7 1
     8    9    7 ar
     9   10    9 1
    10   11    2 ar
    11   12   11 1
    12   13    1 1
    13   14   13 1
    14   15   14 1
    15   16   15 1
    16   17   15 1
    17   18   15 1
    18   19   14 1
    19   20   19 1
    20   21   19 1
    21   22   19 1
    22   23   22 1
    23   24   22 1
    24   25   22 1
    25   26   25 1
    26   27   13 1
    27   28   27 1
    28   29   27 1
    29   30   29 ar
    30   31   30 1
    31   32   30 ar
    32   33   32 1
    33   34   32 ar
    34   35   34 1
    35   36   34 ar
    36   37   36 1
    37   38   29 ar
    38   39   38 1
    39   40   25 1
    40   41    1 2
    41   42   12 2
    42   43   14 1
    43   44   43 1
    44   45   40 2
    45   46   40 2
    46    9   11 ar
    47   12   13 1
    48   25   27 1
    49   36   38 ar
@<TRIPOS>SUBSTRUCTURE
     1 RES1 1

@<TRIPOS>CRYSIN
   8.9660   11.0880   19.1470  90.0000 103.1540  90.0000 231 1

