# MOL2 file generated by ConQuest
# Please check atom types

@<TRIPOS>MOLECULE
YIQZAA
    36    37     1
SMALL
NO_CHARGES
****
Generated from CSD

@<TRIPOS>ATOM
      1 O1        11.0034    0.2151    2.4214 O.3       1 RES1    0.0000
      2 O2         8.4820    1.0922    2.0125 O.3       1 RES1    0.0000
      3 O3         3.2346    2.7740    1.5466 O.2       1 RES1    0.0000
      4 O4         3.2502    1.2813    0.0018 O.2       1 RES1    0.0000
      5 N1         7.0856    2.1361   -0.6433 N.pl3     1 RES1    0.0000
      6 N2         5.4056    0.9921   -1.4178 N.pl3     1 RES1    0.0000
      7 H1         4.6049    0.6846   -1.4796 H         1 RES1    0.0000
      8 N3         5.1272    2.4756    0.4949 N.2       1 RES1    0.0000
      9 N4         3.8302    2.1471    0.6620 N.pl3     1 RES1    0.0000
     10 C1         9.2393    2.6706    0.4013 C.ar      1 RES1    0.0000
     11 C2        10.2963    3.2462   -0.3028 C.ar      1 RES1    0.0000
     12 H2        10.1278    3.9198   -0.9220 H         1 RES1    0.0000
     13 C3        11.5850    2.8206   -0.0874 C.ar      1 RES1    0.0000
     14 H3        12.2822    3.2270   -0.5490 H         1 RES1    0.0000
     15 C4        11.8631    1.8075    0.8001 C.ar      1 RES1    0.0000
     16 H4        12.7391    1.5165    0.9158 H         1 RES1    0.0000
     17 C5        10.8335    1.2181    1.5239 C.ar      1 RES1    0.0000
     18 C6         9.5309    1.6785    1.3098 C.ar      1 RES1    0.0000
     19 C7        12.3244   -0.2572    2.6601 C.3       1 RES1    0.0000
     20 H5        12.7059   -0.5720    1.8378 H         1 RES1    0.0000
     21 H6        12.2979   -0.9765    3.2953 H         1 RES1    0.0000
     22 H7        12.8614    0.4576    3.0097 H         1 RES1    0.0000
     23 C8         8.4433    1.4277    3.4073 C.3       1 RES1    0.0000
     24 H8         9.2851    1.2099    3.8123 H         1 RES1    0.0000
     25 H9         7.7421    0.9308    3.8357 H         1 RES1    0.0000
     26 H10        8.2742    2.3676    3.5058 H         1 RES1    0.0000
     27 C9         7.8280    3.1117    0.1465 C.3       1 RES1    0.0000
     28 H11        7.3773    3.2453    0.9946 H         1 RES1    0.0000
     29 H12        7.8388    3.9601   -0.3225 H         1 RES1    0.0000
     30 C10        7.6626    1.4460   -1.7861 C.3       1 RES1    0.0000
     31 H13        8.3994    0.8768   -1.5153 H         1 RES1    0.0000
     32 H14        7.9765    2.0757   -2.4533 H         1 RES1    0.0000
     33 C11        6.4957    0.6196   -2.3174 C.3       1 RES1    0.0000
     34 H15        6.2889    0.8530   -3.2362 H         1 RES1    0.0000
     35 H16        6.6848   -0.3304   -2.2650 H         1 RES1    0.0000
     36 C12        5.7964    1.8560   -0.5006 C.2       1 RES1    0.0000
@<TRIPOS>BOND
     1    1   17 1
     2    2   18 1
     3    3    9 2
     4    4    9 2
     5    5   27 1
     6    6    7 1
     7    8    9 1
     8   10   11 ar
     9   11   12 1
    10   13   11 ar
    11   14   13 1
    12   15   13 ar
    13   16   15 1
    14   17   15 ar
    15   18   10 ar
    16   19    1 1
    17   20   19 1
    18   21   19 1
    19   22   19 1
    20   23    2 1
    21   24   23 1
    22   25   23 1
    23   26   23 1
    24   27   10 1
    25   28   27 1
    26   29   27 1
    27   30    5 1
    28   31   30 1
    29   32   30 1
    30   33    6 1
    31   34   33 1
    32   35   33 1
    33   36    5 1
    34    6   36 1
    35    8   36 2
    36   17   18 ar
    37   30   33 1
@<TRIPOS>SUBSTRUCTURE
     1 RES1 1

@<TRIPOS>CRYSIN
  11.9490    9.1520   12.3120  90.0000  91.1020  90.0000 231 1

