# MOL2 file generated by ConQuest
# Please check atom types

@<TRIPOS>MOLECULE
YISCIM
    38    39     1
SMALL
NO_CHARGES
****
Generated from CSD

@<TRIPOS>ATOM
      1 O1         4.5496    4.1371    2.2187 O.2       1 RES1    0.0000
      2 O2         7.1449    0.7255    3.9766 O.2       1 RES1    0.0000
      3 O3         5.3750   -2.1438    0.4938 O.3       1 RES1    0.0000
      4 N1         5.4015    3.4779    2.9102 N.3       1 RES1    0.0000
      5 N2         6.6316    1.8743    3.7439 N.pl3     1 RES1    0.0000
      6 C1         5.5617   -0.0213    1.6752 C.ar      1 RES1    0.0000
      7 C2         4.8990   -0.9310    0.8542 C.ar      1 RES1    0.0000
      8 C3         3.6362   -0.6221    0.3516 C.ar      1 RES1    0.0000
      9 C4         3.0359    0.5963    0.6710 C.ar      1 RES1    0.0000
     10 C5         3.6990    1.5059    1.4931 C.ar      1 RES1    0.0000
     11 C6         4.9618    1.1971    1.9956 C.ar      1 RES1    0.0000
     12 C7         5.6497    2.1539    2.8556 C.2       1 RES1    0.0000
     13 C8         6.3931    4.2112    3.7701 C.3       1 RES1    0.0000
     14 C9         6.9577    3.0478    4.6243 C.3       1 RES1    0.0000
     15 C10        6.6394   -2.5537    0.9993 C.3       1 RES1    0.0000
     16 C11        6.2027    2.8131    5.9265 C.3       1 RES1    0.0000
     17 C12        8.4544    3.1062    4.8736 C.3       1 RES1    0.0000
     18 C13        7.4223    4.8188    2.8089 C.3       1 RES1    0.0000
     19 C14        5.7001    5.2994    4.5561 C.3       1 RES1    0.0000
     20 H1         6.5392   -0.2605    2.0648 H         1 RES1    0.0000
     21 H2         3.1231   -1.3263   -0.2844 H         1 RES1    0.0000
     22 H3         2.0587    0.8355    0.2824 H         1 RES1    0.0000
     23 H4         3.2343    2.4493    1.7404 H         1 RES1    0.0000
     24 H5         7.4353   -1.9709    0.5581 H         1 RES1    0.0000
     25 H6         6.7694   -3.5936    0.7373 H         1 RES1    0.0000
     26 H7         6.6646   -2.4470    2.0726 H         1 RES1    0.0000
     27 H8         6.3953    3.6273    6.6073 H         1 RES1    0.0000
     28 H9         6.5816    1.8934    6.3472 H         1 RES1    0.0000
     29 H10        5.1383    2.7222    5.7677 H         1 RES1    0.0000
     30 H11        8.6482    4.0450    5.3713 H         1 RES1    0.0000
     31 H12        9.0240    3.0613    3.9562 H         1 RES1    0.0000
     32 H13        8.7439    2.2898    5.5174 H         1 RES1    0.0000
     33 H14        8.1375    5.4241    3.3426 H         1 RES1    0.0000
     34 H15        6.9999    5.3938    1.9995 H         1 RES1    0.0000
     35 H16        7.9172    3.9451    2.4095 H         1 RES1    0.0000
     36 H17        6.4229    5.7116    5.2418 H         1 RES1    0.0000
     37 H18        4.8941    4.8424    5.1122 H         1 RES1    0.0000
     38 H19        5.3062    6.0878    3.9328 H         1 RES1    0.0000
@<TRIPOS>BOND
     1    1    4 1
     2    2    5 1
     3    3    7 1
     4    4   12 1
     5    5   12 2
     6    6    7 ar
     7    7    8 ar
     8    8    9 ar
     9    9   10 ar
    10   10   11 ar
    11   11    6 ar
    12   12   11 1
    13   13    4 1
    14   14    5 1
    15   15    3 1
    16   16   14 1
    17   17   14 1
    18   18   13 1
    19   19   13 1
    20   20    6 1
    21   21    8 1
    22   22    9 1
    23   23   10 1
    24   24   15 1
    25   25   15 1
    26   26   15 1
    27   27   16 1
    28   28   16 1
    29   29   16 1
    30   30   17 1
    31   31   17 1
    32   32   17 1
    33   33   18 1
    34   34   18 1
    35   35   18 1
    36   36   19 1
    37   37   19 1
    38   38   19 1
    39   13   14 1
@<TRIPOS>SUBSTRUCTURE
     1 RES1 1

@<TRIPOS>CRYSIN
   6.3910   11.2300   10.2280  90.0000 107.7800  90.0000   4 1

