# MOL2 file generated by ConQuest
# Please check atom types

@<TRIPOS>MOLECULE
YISFUB
    55    58     1
SMALL
NO_CHARGES
****
Generated from CSD

@<TRIPOS>ATOM
      1 C1        -1.5408    2.2660   12.8418 C.ar      1 RES1    0.0000
      2 H1        -1.4990    3.2901   12.5017 H         1 RES1    0.0000
      3 C2        -2.3408    1.5527   13.6807 C.ar      1 RES1    0.0000
      4 H2        -3.2041    1.7993   14.2795 H         1 RES1    0.0000
      5 C3        -2.1173    0.1904   13.9191 C.ar      1 RES1    0.0000
      6 H3        -2.8847   -0.0768   14.6306 H         1 RES1    0.0000
      7 C4        -1.1204   -0.4954   13.3056 C.ar      1 RES1    0.0000
      8 H4        -0.7673   -1.5160   13.3167 H         1 RES1    0.0000
      9 C5        -0.2684    0.2041   12.4167 C.ar      1 RES1    0.0000
     10 C6        -0.4857    1.5803   12.2190 C.ar      1 RES1    0.0000
     11 N1         0.5173    2.0470   11.3744 N.pl3     1 RES1    0.0000
     12 H5         0.5020    3.0975   11.1268 H         1 RES1    0.0000
     13 C7         1.3255    0.9794   11.0492 C.2       1 RES1    0.0000
     14 C8         1.5745   -1.4587   11.4502 C.3       1 RES1    0.0000
     15 H6         2.1316   -1.7179   12.3391 H         1 RES1    0.0000
     16 H7         0.8408   -2.2259   11.2488 H         1 RES1    0.0000
     17 C9         0.8888   -0.1502   11.6535 C.2       1 RES1    0.0000
     18 C10        2.5316   -1.3394   10.2619 C.3       1 RES1    0.0000
     19 H8         1.9612   -1.2695    9.3472 H         1 RES1    0.0000
     20 H9         3.1683   -2.2110   10.2231 H         1 RES1    0.0000
     21 N2         3.3561   -0.1388   10.4172 N.3       1 RES1    0.0000
     22 C11        2.5816    1.1089   10.2268 C.3       1 RES1    0.0000
     23 H10        2.3388    1.2592    9.1846 H         1 RES1    0.0000
     24 C12        4.6438   -0.1433    9.7223 C.3       1 RES1    0.0000
     25 H11        5.1163    0.7810   10.0199 H         1 RES1    0.0000
     26 C13        4.5224   -0.0894    8.2181 C.2       1 RES1    0.0000
     27 O1         4.7775    0.8566    7.5528 O.2       1 RES1    0.0000
     28 O2         4.0836   -1.2248    7.6914 O.3       1 RES1    0.0000
     29 C14        3.9336   -1.3016    6.2518 C.3       1 RES1    0.0000
     30 H12        3.5694   -2.2809    5.9783 H         1 RES1    0.0000
     31 H13        4.8898   -1.1284    5.7805 H         1 RES1    0.0000
     32 H14        3.2285   -0.5516    5.9210 H         1 RES1    0.0000
     33 C15        5.5744   -1.2913   10.1769 C.3       1 RES1    0.0000
     34 H15        5.1918   -2.2236    9.7907 H         1 RES1    0.0000
     35 C16        5.6010   -1.4002   11.7108 C.3       1 RES1    0.0000
     36 H16        4.5979   -1.5596   12.0785 H         1 RES1    0.0000
     37 H17        5.9969   -0.4862   12.1303 H         1 RES1    0.0000
     38 H18        6.2275   -2.2305   12.0009 H         1 RES1    0.0000
     39 C17        3.3959    2.3050   10.6796 C.ar      1 RES1    0.0000
     40 C18        3.9347    2.3371   11.9769 C.ar      1 RES1    0.0000
     41 H19        3.6459    1.3842   12.4130 H         1 RES1    0.0000
     42 C19        3.5877    3.3956    9.8480 C.ar      1 RES1    0.0000
     43 H20        3.0826    3.1353    8.9295 H         1 RES1    0.0000
     44 C20        4.3020    4.4862   10.2786 C.ar      1 RES1    0.0000
     45 H21        4.5918    5.4323    9.8461 H         1 RES1    0.0000
     46 C21        4.6479    3.4002   12.4204 C.ar      1 RES1    0.0000
     47 H22        5.1561    3.6571   13.3370 H         1 RES1    0.0000
     48 C22        4.8142    4.4759   11.5555 C.ar      1 RES1    0.0000
     49 N3         5.5510    5.6536   12.0416 N.pl3     1 RES1    0.0000
     50 O3         6.0836    5.5860   13.1319 O.2       1 RES1    0.0000
     51 C23        6.9693   -1.0665    9.6281 C.3       1 RES1    0.0000
     52 H23        7.6163   -1.8704    9.9496 H         1 RES1    0.0000
     53 H24        7.3540   -0.1261    9.9958 H         1 RES1    0.0000
     54 H25        6.9316   -1.0436    8.5488 H         1 RES1    0.0000
     55 O4         5.5724    6.6467   11.3449 O.2       1 RES1    0.0000
@<TRIPOS>BOND
     1    1    2 1
     2    3    1 ar
     3    4    3 1
     4    5    3 ar
     5    6    5 1
     6    7    5 ar
     7    8    7 1
     8    9    7 ar
     9   10    1 ar
    10   11   10 1
    11   12   11 1
    12   13   11 1
    13   14   15 1
    14   16   14 1
    15   17    9 1
    16   18   14 1
    17   19   18 1
    18   20   18 1
    19   21   18 1
    20   22   13 1
    21   23   22 1
    22   24   21 1
    23   25   24 1
    24   26   24 1
    25   27   26 2
    26   28   26 1
    27   29   28 1
    28   30   29 1
    29   31   29 1
    30   32   29 1
    31   33   24 1
    32   34   33 1
    33   35   33 1
    34   36   35 1
    35   37   35 1
    36   38   35 1
    37   39   22 1
    38   40   39 ar
    39   41   40 1
    40   42   39 ar
    41   43   42 1
    42   44   42 ar
    43   45   44 1
    44   46   40 ar
    45   47   46 1
    46   48   44 ar
    47   49   48 1
    48   50   49 2
    49   51   33 1
    50   52   51 1
    51   53   51 1
    52   54   51 1
    53   55   49 2
    54    9   10 ar
    55   13   17 2
    56   14   17 1
    57   21   22 1
    58   46   48 ar
@<TRIPOS>SUBSTRUCTURE
     1 RES1 1

@<TRIPOS>CRYSIN
  10.2040   11.4678   18.4800  90.0000  90.0000  90.0000  19 1

