# MOL2 file generated by ConQuest
# Please check atom types

@<TRIPOS>MOLECULE
YISGOW
    43    46     1
SMALL
NO_CHARGES
****
Generated from CSD

@<TRIPOS>ATOM
      1 C1         0.9316   11.6894    3.0473 C.3       1 RES1    0.0000
      2 C2         0.7376   11.7843    4.5327 C.ar      1 RES1    0.0000
      3 C3         0.8610   10.6534    5.3274 C.ar      1 RES1    0.0000
      4 C4         0.7715   10.7695    6.7164 C.ar      1 RES1    0.0000
      5 C5         0.5656   11.9677    7.3026 C.ar      1 RES1    0.0000
      6 C6         0.4224   13.0924    6.5039 C.ar      1 RES1    0.0000
      7 C7         0.5000   13.0150    5.1189 C.ar      1 RES1    0.0000
      8 C8         0.9266   10.2377    1.2217 C.3       1 RES1    0.0000
      9 C9         0.1989   11.2638    0.4171 C.3       1 RES1    0.0000
     10 C10        0.2518   12.6655    1.0053 C.3       1 RES1    0.0000
     11 C11       -1.0359   13.2721    0.5095 C.3       1 RES1    0.0000
     12 C12       -1.9668   12.0564    0.4958 C.2       1 RES1    0.0000
     13 C13       -0.6897   14.9809   -1.0899 C.2       1 RES1    0.0000
     14 C14       -0.6029   15.2954   -2.5378 C.ar      1 RES1    0.0000
     15 C15       -0.9210   14.3768   -3.5136 C.ar      1 RES1    0.0000
     16 C16       -0.7898   14.7213   -4.8356 C.ar      1 RES1    0.0000
     17 C17       -0.3110   15.9570   -5.1701 C.ar      1 RES1    0.0000
     18 C18        0.0049   16.9044   -4.2002 C.ar      1 RES1    0.0000
     19 C19       -0.1594   16.5748   -2.8939 C.ar      1 RES1    0.0000
     20 N1        -0.1220   16.3065   -6.5944 N.pl3     1 RES1    0.0000
     21 O1         0.6347   10.3863    2.6204 O.3       1 RES1    0.0000
     22 O2         0.0882   12.6293    2.4235 O.3       1 RES1    0.0000
     23 O3        -1.2306   10.9530    0.3954 O.3       1 RES1    0.0000
     24 O4        -3.1537   12.0564    0.5489 O.2       1 RES1    0.0000
     25 O5        -0.9386   13.6840   -0.8686 O.3       1 RES1    0.0000
     26 O6        -0.5148   15.7648   -0.2085 O.2       1 RES1    0.0000
     27 O7         0.4464   17.3500   -6.8580 O.2       1 RES1    0.0000
     28 O8        -0.5197   15.5239   -7.4207 O.2       1 RES1    0.0000
     29 H1         1.8363   11.8966    2.8034 H         1 RES1    0.0000
     30 H2         0.6227   11.2438   -0.4387 H         1 RES1    0.0000
     31 H3         1.0881   13.0886    0.7731 H         1 RES1    0.0000
     32 H4        -1.2926   14.0273    1.0387 H         1 RES1    0.0000
     33 H5         0.9964    9.8059    4.9104 H         1 RES1    0.0000
     34 H6         0.8427    9.9769    7.2593 H         1 RES1    0.0000
     35 H7         0.5310   12.0813    8.2548 H         1 RES1    0.0000
     36 H8         0.2482   13.9461    6.9328 H         1 RES1    0.0000
     37 H9         0.4316   13.8113    4.5582 H         1 RES1    0.0000
     38 H10        1.8631   10.3438    1.0840 H         1 RES1    0.0000
     39 H11        0.6608    9.3752    0.9305 H         1 RES1    0.0000
     40 H12       -1.2320   13.5080   -3.2657 H         1 RES1    0.0000
     41 H13       -1.0254   14.1059   -5.5222 H         1 RES1    0.0000
     42 H14        0.3477   17.7719   -4.4441 H         1 RES1    0.0000
     43 H15        0.0049   17.2277   -2.2073 H         1 RES1    0.0000
@<TRIPOS>BOND
     1    1    2 1
     2    2    3 ar
     3    3    4 ar
     4    4    5 ar
     5    5    6 ar
     6    6    7 ar
     7    7    2 ar
     8    8    9 1
     9    9   10 1
    10   10   11 1
    11   11   12 1
    12   12   23 1
    13   13   14 1
    14   14   15 ar
    15   15   16 ar
    16   16   17 ar
    17   17   18 ar
    18   18   19 ar
    19   19   14 ar
    20   20   17 1
    21   21    1 1
    22   22    1 1
    23   23    9 1
    24   24   12 2
    25   25   11 1
    26   26   13 2
    27   27   20 2
    28   28   20 2
    29   29    1 1
    30   30    9 1
    31   31   10 1
    32   32   11 1
    33   33    3 1
    34   34    4 1
    35   35    5 1
    36   36    6 1
    37   37    7 1
    38   38    8 1
    39   39    8 1
    40   40   15 1
    41   41   16 1
    42   42   18 1
    43   43   19 1
    44    8   21 1
    45   10   22 1
    46   13   25 1
@<TRIPOS>SUBSTRUCTURE
     1 RES1 1

@<TRIPOS>CRYSIN
   7.0520   12.4820   19.6730  90.0000  90.0000  90.0000  19 1

