# MOL2 file generated by ConQuest
# Please check atom types

@<TRIPOS>MOLECULE
YISYOQ
    37    39     1
SMALL
NO_CHARGES
****
Generated from CSD

@<TRIPOS>ATOM
      1 O1         3.4070    5.9901    0.6012 O.3       1 RES1    0.0000
      2 C1         2.4614    7.3521    8.9258 C.3       1 RES1    0.0000
      3 H1         2.2014    7.6763    9.7909 H         1 RES1    0.0000
      4 H2         3.2442    7.8226    8.6302 H         1 RES1    0.0000
      5 H3         2.6541    6.4130    8.9819 H         1 RES1    0.0000
      6 O2        -0.4186    8.2514    6.3123 O.3       1 RES1    0.0000
      7 C2         3.2821    6.3675    1.9132 C.2       1 RES1    0.0000
      8 O3         1.3973    7.5652    7.9972 O.3       1 RES1    0.0000
      9 C3         1.9591    6.2327    2.5268 C.2       1 RES1    0.0000
     10 O4         4.2792    6.7794    2.4599 O.2       1 RES1    0.0000
     11 C4         0.8967    5.9763    1.7408 C.2       1 RES1    0.0000
     12 H4         0.0450    5.9898    2.1143 H         1 RES1    0.0000
     13 C5         1.0409    5.6829    0.3437 C.ar      1 RES1    0.0000
     14 C6        -0.0187    5.3470   -0.5047 C.ar      1 RES1    0.0000
     15 H5        -0.8927    5.4039   -0.1922 H         1 RES1    0.0000
     16 C7         0.2167    4.9333   -1.7932 C.ar      1 RES1    0.0000
     17 H6        -0.4960    4.7176   -2.3513 H         1 RES1    0.0000
     18 C8         1.5151    4.8384   -2.2602 C.ar      1 RES1    0.0000
     19 H7         1.6716    4.5262   -3.1216 H         1 RES1    0.0000
     20 C9         2.3266    5.6289   -0.1746 C.ar      1 RES1    0.0000
     21 C10        2.5784    5.2013   -1.4641 C.ar      1 RES1    0.0000
     22 H8         3.4491    5.1595   -1.7880 H         1 RES1    0.0000
     23 C11       -1.4212    8.7392    5.4177 C.3       1 RES1    0.0000
     24 H9        -2.0902    9.2147    5.9154 H         1 RES1    0.0000
     25 H10       -1.8280    8.0006    4.9588 H         1 RES1    0.0000
     26 H11       -1.0187    9.3304    4.7770 H         1 RES1    0.0000
     27 C12        1.8401    6.4759    3.9824 C.ar      1 RES1    0.0000
     28 C13        2.7328    6.0263    4.9491 C.ar      1 RES1    0.0000
     29 C14        2.6488    6.3820    6.2874 C.ar      1 RES1    0.0000
     30 H12        3.2999    6.0996    6.8884 H         1 RES1    0.0000
     31 C15        1.5972    7.1546    6.7193 C.ar      1 RES1    0.0000
     32 C16        0.6122    7.5494    5.7886 C.ar      1 RES1    0.0000
     33 C17        0.7648    7.2441    4.4538 C.ar      1 RES1    0.0000
     34 H13        0.1345    7.5574    3.8457 H         1 RES1    0.0000
     35 O5         4.8126    5.0728    5.2522 O.2       1 RES1    0.0000
     36 O6         3.5393    4.2361    3.7233 O.2       1 RES1    0.0000
     37 N1         3.7726    5.0543    4.6067 N.pl3     1 RES1    0.0000
@<TRIPOS>BOND
     1    1    7 1
     2    2    3 1
     3    4    2 1
     4    5    2 1
     5    6   23 1
     6    7    9 1
     7    8    2 1
     8    9   11 2
     9   10    7 2
    10   11   12 1
    11   13   11 1
    12   14   13 ar
    13   15   14 1
    14   16   14 ar
    15   17   16 1
    16   18   16 ar
    17   19   18 1
    18   20    1 1
    19   21   18 ar
    20   22   21 1
    21   23   24 1
    22   25   23 1
    23   26   23 1
    24   27    9 1
    25   28   27 ar
    26   29   28 ar
    27   30   29 1
    28   31    8 1
    29   32    6 1
    30   33   27 ar
    31   34   33 1
    32   35   37 2
    33   36   37 2
    34   37   28 1
    35   13   20 ar
    36   20   21 ar
    37   29   31 ar
    38   31   32 ar
    39   32   33 ar
@<TRIPOS>SUBSTRUCTURE
     1 RES1 1

@<TRIPOS>CRYSIN
   6.6935    7.5212   15.3990  76.3980  82.6870  81.0400   2 1

