# MOL2 file generated by ConQuest
# Please check atom types

@<TRIPOS>MOLECULE
YISZIJ
    66    70     1
SMALL
NO_CHARGES
****
Generated from CSD

@<TRIPOS>ATOM
      1 N1         0.8121    8.9876    7.5067 N.3       1 RES1    0.0000
      2 N2         0.4089    9.0300    6.1639 N.2       1 RES1    0.0000
      3 N3         3.3828    6.0908    9.4556 N.pl3     1 RES1    0.0000
      4 O1         3.5223    5.4609   10.4800 O.2       1 RES1    0.0000
      5 O2         3.0431    5.5592    8.4044 O.2       1 RES1    0.0000
      6 C1         1.2440    8.3823    5.4427 C.2       1 RES1    0.0000
      7 C2         2.3455    7.7480    6.2266 C.3       1 RES1    0.0000
      8 C3         1.8316    7.9111    7.6819 C.3       1 RES1    0.0000
      9 C4         1.1210    8.3734    3.9746 C.ar      1 RES1    0.0000
     10 C5         2.1387    7.8396    3.2060 C.ar      1 RES1    0.0000
     11 C6         2.0608    7.7994    1.8287 C.ar      1 RES1    0.0000
     12 C7         0.9384    8.3310    1.2213 C.ar      1 RES1    0.0000
     13 C8        -0.0808    8.8737    1.9656 C.ar      1 RES1    0.0000
     14 C9         0.0016    8.8871    3.3403 C.ar      1 RES1    0.0000
     15 C10        2.9088    8.3734    8.6410 C.ar      1 RES1    0.0000
     16 C11        3.6334    7.5224    9.4646 C.ar      1 RES1    0.0000
     17 C12        4.6243    7.9580   10.3316 C.ar      1 RES1    0.0000
     18 C13        4.9268    9.2869   10.3674 C.ar      1 RES1    0.0000
     19 C14        4.2234   10.1736    9.5822 C.ar      1 RES1    0.0000
     20 C15        3.2295    9.7135    8.7421 C.ar      1 RES1    0.0000
     21 N4         0.3290   12.3178    7.9901 N.2       1 RES1    0.0000
     22 N5         0.2413   12.0475    6.6371 N.3       1 RES1    0.0000
     23 N6        -0.6347    6.7831   10.5490 N.pl3     1 RES1    0.0000
     24 O3        -1.2109    6.5151   11.5491 O.2       1 RES1    0.0000
     25 O4         0.5592    6.9663   10.5094 O.2       1 RES1    0.0000
     26 C16       -0.2858    9.0010    8.4914 C.3       1 RES1    0.0000
     27 C17       -1.0699   10.3031    8.4019 C.3       1 RES1    0.0000
     28 C18       -0.2720   11.5383    8.7983 C.2       1 RES1    0.0000
     29 C19       -1.2197    7.7882    8.3405 C.ar      1 RES1    0.0000
     30 C20       -1.3938    6.7898    9.2919 C.ar      1 RES1    0.0000
     31 C21       -2.2975    5.7513    9.1615 C.ar      1 RES1    0.0000
     32 C22       -3.0331    5.6843    8.0208 C.ar      1 RES1    0.0000
     33 C23       -2.9188    6.6313    7.0374 C.ar      1 RES1    0.0000
     34 C24       -2.0327    7.6765    7.2164 C.ar      1 RES1    0.0000
     35 C25       -0.2356   11.9381   10.2319 C.ar      1 RES1    0.0000
     36 C26        0.2130   13.1933   10.5976 C.ar      1 RES1    0.0000
     37 C27        0.2430   13.5730   11.9174 C.ar      1 RES1    0.0000
     38 C28       -0.1613   12.7153   12.9276 C.ar      1 RES1    0.0000
     39 C29       -0.6327   11.4690   12.5721 C.ar      1 RES1    0.0000
     40 C30       -0.6587   11.0804   11.2383 C.ar      1 RES1    0.0000
     41 H1         2.3545    6.8122    5.9721 H         1 RES1    0.0000
     42 H2         3.2032    8.0853    6.0105 H         1 RES1    0.0000
     43 H3         1.4037    6.9239    7.9543 H         1 RES1    0.0000
     44 H4         2.9159    7.5269    3.6319 H         1 RES1    0.0000
     45 H5         2.8437    7.4376    1.3939 H         1 RES1    0.0000
     46 H6         0.9329    8.2639    0.3069 H         1 RES1    0.0000
     47 H7        -0.9217    9.2020    1.5474 H         1 RES1    0.0000
     48 H8        -0.7521    9.2244    3.8748 H         1 RES1    0.0000
     49 H9         5.0624    7.2365   10.9340 H         1 RES1    0.0000
     50 H10        5.5935    9.6041   10.9595 H         1 RES1    0.0000
     51 H11        4.3941   11.0558    9.6296 H         1 RES1    0.0000
     52 H12        2.7028   10.4081    8.2356 H         1 RES1    0.0000
     53 H13        0.2887   11.1898    6.3941 H         1 RES1    0.0000
     54 H14        0.9390   12.5969    6.1000 H         1 RES1    0.0000
     55 H15        0.2103    8.9787    9.3610 H         1 RES1    0.0000
     56 H16       -1.3501   10.3634    7.5067 H         1 RES1    0.0000
     57 H17       -1.8648   10.2964    8.9518 H         1 RES1    0.0000
     58 H18       -2.4376    5.0700    9.9365 H         1 RES1    0.0000
     59 H19       -3.7073    5.0477    7.8904 H         1 RES1    0.0000
     60 H20       -3.4287    6.5442    6.2790 H         1 RES1    0.0000
     61 H21       -1.9748    8.2639    6.5476 H         1 RES1    0.0000
     62 H22        0.5626   13.8477    9.9493 H         1 RES1    0.0000
     63 H23        0.5753   14.3837   12.0977 H         1 RES1    0.0000
     64 H24       -0.2215   12.9766   14.1694 H         1 RES1    0.0000
     65 H25       -0.9661   10.6761   13.1335 H         1 RES1    0.0000
     66 H26       -1.1190   10.1848   10.9467 H         1 RES1    0.0000
@<TRIPOS>BOND
     1    1    2 1
     2    2    6 2
     3    3    4 2
     4    5    3 2
     5    6    7 1
     6    7    8 1
     7    8    1 1
     8    9    6 1
     9   10    9 ar
    10   11   10 ar
    11   12   11 ar
    12   13   12 ar
    13   14    9 ar
    14   15    8 1
    15   16    3 1
    16   17   16 ar
    17   18   17 ar
    18   19   18 ar
    19   20   15 ar
    20   21   22 1
    21   22   53 1
    22   23   24 2
    23   25   23 2
    24   26    1 1
    25   27   26 1
    26   28   21 2
    27   29   26 1
    28   30   23 1
    29   31   30 ar
    30   32   31 ar
    31   33   32 ar
    32   34   29 ar
    33   35   28 1
    34   36   35 ar
    35   37   36 ar
    36   38   37 ar
    37   39   38 ar
    38   40   35 ar
    39   41    7 1
    40   42    7 1
    41   43    8 1
    42   44   10 1
    43   45   11 1
    44   46   12 1
    45   47   13 1
    46   48   14 1
    47   49   17 1
    48   50   18 1
    49   51   19 1
    50   52   20 1
    51   54   22 1
    52   55   26 1
    53   56   27 1
    54   57   27 1
    55   58   31 1
    56   59   32 1
    57   60   33 1
    58   61   34 1
    59   62   36 1
    60   63   37 1
    61   64   38 1
    62   65   39 1
    63   66   40 1
    64   13   14 ar
    65   15   16 ar
    66   19   20 ar
    67   27   28 1
    68   29   30 ar
    69   33   34 ar
    70   39   40 ar
@<TRIPOS>SUBSTRUCTURE
     1 RES1 1

@<TRIPOS>CRYSIN
   9.4460   22.3350   13.2950  90.0000 105.8700  90.0000  14 1

