# MOL2 file generated by ConQuest
# Please check atom types

@<TRIPOS>MOLECULE
YITBAF
    88    94     2
SMALL
NO_CHARGES
****
Generated from CSD

@<TRIPOS>ATOM
      1 O1         2.4854    4.9700    0.5670 O.2       1 RES1    0.0000
      2 O2         0.7881    0.7663    1.0491 O.3       1 RES1    0.0000
      3 O3         0.1626    0.3270    3.9619 O.3       1 RES1    0.0000
      4 N1        -0.8262    1.0765    3.1937 N.3       1 RES1    0.0000
      5 N2         1.1518    3.1277    0.9030 N.am      1 RES1    0.0000
      6 C1        -0.1432    2.2447    2.6521 C.3       1 RES1    0.0000
      7 C2        -1.0772    2.9044    1.6162 C.3       1 RES1    0.0000
      8 H1        -1.5731    2.2145    1.1075 H         1 RES1    0.0000
      9 H2        -1.7299    3.4972    2.0667 H         1 RES1    0.0000
     10 C3        -0.1705    3.7167    0.6800 C.3       1 RES1    0.0000
     11 H3        -0.4507    3.6167   -0.2638 H         1 RES1    0.0000
     12 H4        -0.1785    4.6770    0.9202 H         1 RES1    0.0000
     13 C4         1.1084    1.9302    1.7658 C.3       1 RES1    0.0000
     14 C5         2.5050    1.9297    2.3499 C.ar      1 RES1    0.0000
     15 C6         3.2037    3.0455    1.9027 C.ar      1 RES1    0.0000
     16 C7         2.2941    3.8480    1.0467 C.2       1 RES1    0.0000
     17 C8         3.1291    1.0024    3.1678 C.ar      1 RES1    0.0000
     18 H5         2.6646    0.2350    3.4815 H         1 RES1    0.0000
     19 C9         4.4534    1.2291    3.5138 C.ar      1 RES1    0.0000
     20 H6         4.8999    0.6015    4.0704 H         1 RES1    0.0000
     21 C10        5.1424    2.3518    3.0668 C.ar      1 RES1    0.0000
     22 H7         6.0480    2.4791    3.3241 H         1 RES1    0.0000
     23 C11        4.5239    3.2869    2.2503 C.ar      1 RES1    0.0000
     24 H8         4.9840    4.0590    1.9438 H         1 RES1    0.0000
     25 C12        0.2064    3.2012    3.7831 C.3       1 RES1    0.0000
     26 H9        -0.6084    3.4394    4.2728 H         1 RES1    0.0000
     27 H10        0.6132    4.0119    3.4110 H         1 RES1    0.0000
     28 H11        0.8398    2.7683    4.3927 H         1 RES1    0.0000
     29 C13       -0.4093    0.0125    5.2340 C.3       1 RES1    0.0000
     30 H12       -1.1592   -0.6252    5.1225 H         1 RES1    0.0000
     31 H13       -0.7568    0.8333    5.6650 H         1 RES1    0.0000
     32 C14        0.6684   -0.5993    6.0796 C.ar      1 RES1    0.0000
     33 C15        1.8246    0.1183    6.3963 C.ar      1 RES1    0.0000
     34 H14        1.9279    1.0068    6.0757 H         1 RES1    0.0000
     35 C16        2.8169   -0.4459    7.1678 C.ar      1 RES1    0.0000
     36 H15        3.6010    0.0532    7.3676 H         1 RES1    0.0000
     37 C17        2.6790   -1.7382    7.6559 C.ar      1 RES1    0.0000
     38 H16        3.3675   -2.1273    8.1828 H         1 RES1    0.0000
     39 C18        1.5368   -2.4501    7.3710 C.ar      1 RES1    0.0000
     40 H17        1.4280   -3.3274    7.7183 H         1 RES1    0.0000
     41 C19        0.5398   -1.8901    6.5764 C.ar      1 RES1    0.0000
     42 H18       -0.2365   -2.3974    6.3709 H         1 RES1    0.0000
     43 O4         4.5268    3.1125   13.9216 O.2       2 RES2    0.0000
     44 O5         6.6310    7.1377   13.9080 O.3       2 RES2    0.0000
     45 O6         7.8701    7.6325   11.0750 O.3       2 RES2    0.0000
     46 N3         8.5694    6.8185   12.0639 N.3       2 RES2    0.0000
     47 N4         6.0928    4.7994   13.8374 N.am      2 RES2    0.0000
     48 C20        7.7175    5.6865   12.3826 C.3       2 RES2    0.0000
     49 C21        8.4142    4.8977   13.5104 C.3       2 RES2    0.0000
     50 H19        9.1119    4.3027   13.1375 H         2 RES2    0.0000
     51 H20        8.8373    5.5169   14.1566 H         2 RES2    0.0000
     52 C22        7.3148    4.0738   14.1939 C.3       2 RES2    0.0000
     53 H21        7.2941    3.1471   13.8479 H         2 RES2    0.0000
     54 H22        7.4436    4.0503   15.1757 H         2 RES2    0.0000
     55 C23        6.3562    6.0376   13.0741 C.3       2 RES2    0.0000
     56 C24        5.0676    6.1973   12.3009 C.ar      2 RES2    0.0000
     57 C25        4.1996    5.1656   12.6299 C.ar      2 RES2    0.0000
     58 C26        4.9022    4.2241   13.5348 C.2       2 RES2    0.0000
     59 C27        4.6617    7.2080   11.4434 C.ar      2 RES2    0.0000
     60 H23        5.2452    7.9184   11.2057 H         2 RES2    0.0000
     61 C28        3.3597    7.1385   10.9439 C.ar      2 RES2    0.0000
     62 H24        3.0594    7.8109   10.3440 H         2 RES2    0.0000
     63 C29        2.4921    6.1142   11.2980 C.ar      2 RES2    0.0000
     64 H25        1.6056    6.1089   10.9554 H         2 RES2    0.0000
     65 C30        2.9065    5.0987   12.1472 C.ar      2 RES2    0.0000
     66 H26        2.3253    4.3864   12.3867 H         2 RES2    0.0000
     67 C31        7.5009    4.8354   11.1347 C.3       2 RES2    0.0000
     68 H27        7.0720    5.3779   10.4399 H         2 RES2    0.0000
     69 H28        6.9262    4.0724   11.3541 H         2 RES2    0.0000
     70 H29        8.3652    4.5095   10.8071 H         2 RES2    0.0000
     71 C32        8.7944    7.8708   10.0121 C.3       2 RES2    0.0000
     72 H30        9.1520    7.0129    9.6725 H         2 RES2    0.0000
     73 H31        9.5515    8.4204   10.3350 H         2 RES2    0.0000
     74 C33        8.0581    8.5928    8.9195 C.ar      2 RES2    0.0000
     75 C34        7.9141    9.9685    8.9455 C.ar      2 RES2    0.0000
     76 H32        8.2826   10.4699    9.6636 H         2 RES2    0.0000
     77 C35        7.2337   10.6165    7.9260 C.ar      2 RES2    0.0000
     78 H33        7.1248   11.5594    7.9535 H         2 RES2    0.0000
     79 C36        6.7148    9.8909    6.8671 C.ar      2 RES2    0.0000
     80 H34        6.2592   10.3360    6.1626 H         2 RES2    0.0000
     81 C37        6.8592    8.5238    6.8391 C.ar      2 RES2    0.0000
     82 H35        6.5073    8.0225    6.1132 H         2 RES2    0.0000
     83 C38        7.5169    7.8817    7.8689 C.ar      2 RES2    0.0000
     84 H36        7.5974    6.9358    7.8546 H         2 RES2    0.0000
     85 H37       -1.0114    0.5165    2.4863 H         1 RES1    0.0000
     86 H38        8.5671    7.3517   12.7898 H         2 RES2    0.0000
     87 H39        1.3824    0.7001    0.3792 H         1 RES1    0.0000
     88 H40        5.9096    7.2787   14.4204 H         2 RES2    0.0000
@<TRIPOS>BOND
     1    1   16 2
     2    2   13 1
     3    3    4 1
     4    4    6 1
     5    5   10 1
     6    6    7 1
     7    7    8 1
     8    9    7 1
     9   10    7 1
    10   11   10 1
    11   12   10 1
    12   13    5 1
    13   14   13 1
    14   15   14 ar
    15   16    5 1
    16   17   14 ar
    17   18   17 1
    18   19   17 ar
    19   20   19 1
    20   21   19 ar
    21   22   21 1
    22   23   15 ar
    23   24   23 1
    24   25    6 1
    25   26   25 1
    26   27   25 1
    27   28   25 1
    28   29    3 1
    29   30   29 1
    30   31   29 1
    31   32   29 1
    32   33   32 ar
    33   34   33 1
    34   35   33 ar
    35   36   35 1
    36   37   35 ar
    37   38   37 1
    38   39   37 ar
    39   40   39 1
    40   41   32 ar
    41   42   41 1
    42   43   58 2
    43   44   55 1
    44   45   46 1
    45   46   48 1
    46   47   52 1
    47   48   49 1
    48   49   50 1
    49   51   49 1
    50   52   49 1
    51   53   52 1
    52   54   52 1
    53   55   47 1
    54   56   55 1
    55   57   56 ar
    56   58   47 1
    57   59   56 ar
    58   60   59 1
    59   61   59 ar
    60   62   61 1
    61   63   61 ar
    62   64   63 1
    63   65   57 ar
    64   66   65 1
    65   67   48 1
    66   68   67 1
    67   69   67 1
    68   70   67 1
    69   71   45 1
    70   72   71 1
    71   73   71 1
    72   74   71 1
    73   75   74 ar
    74   76   75 1
    75   77   75 ar
    76   78   77 1
    77   79   77 ar
    78   80   79 1
    79   81   79 ar
    80   82   81 1
    81   83   74 ar
    82   84   83 1
    83   85    4 1
    84   86   46 1
    85   87    2 1
    86   88   44 1
    87    6   13 1
    88   15   16 1
    89   21   23 ar
    90   39   41 ar
    91   48   55 1
    92   57   58 1
    93   63   65 ar
    94   81   83 ar
@<TRIPOS>SUBSTRUCTURE
     1 RES1 1
     2 RES2 43

@<TRIPOS>CRYSIN
   9.5421   11.3451   15.2978  80.6690  82.8320  87.5980   2 1

