# MOL2 file generated by ConQuest
# Please check atom types

@<TRIPOS>MOLECULE
YITFEO
    43    46     1
SMALL
NO_CHARGES
****
Generated from CSD

@<TRIPOS>ATOM
      1 C1         0.6753    2.2092    3.9794 C.ar      1 RES1    0.0000
      2 H1         0.9215    2.1197    4.8917 H         1 RES1    0.0000
      3 C2        -0.0186    1.1912    3.3600 C.ar      1 RES1    0.0000
      4 H2        -0.2397    0.3989    3.8342 H         1 RES1    0.0000
      5 C3        -0.3848    1.3457    2.0372 C.ar      1 RES1    0.0000
      6 C4        -0.0477    2.4697    1.3121 C.ar      1 RES1    0.0000
      7 H3        -0.2943    2.5494    0.3979 H         1 RES1    0.0000
      8 C5         0.6591    3.4806    1.9467 C.ar      1 RES1    0.0000
      9 H4         0.8997    4.2600    1.4600 H         1 RES1    0.0000
     10 C6         1.0219    3.3692    3.2864 C.ar      1 RES1    0.0000
     11 C7         1.8048    4.4582    4.0291 C.3       1 RES1    0.0000
     12 H5         2.3979    4.0010    4.6928 H         1 RES1    0.0000
     13 C8         2.0711    6.3111    2.4507 C.ar      1 RES1    0.0000
     14 C9         2.6209    6.7435    1.2445 C.ar      1 RES1    0.0000
     15 H6         3.3995    6.3160    0.9088 H         1 RES1    0.0000
     16 C10        2.0571    7.7807    0.5275 C.ar      1 RES1    0.0000
     17 H7         2.4521    8.0657   -0.2877 H         1 RES1    0.0000
     18 C11        0.9123    8.4060    0.9997 C.ar      1 RES1    0.0000
     19 H8         0.5189    9.1142    0.5028 H         1 RES1    0.0000
     20 C12        0.3423    7.9995    2.1972 C.ar      1 RES1    0.0000
     21 H9        -0.4485    8.4214    2.5113 H         1 RES1    0.0000
     22 C13        0.9213    6.9768    2.9389 C.ar      1 RES1    0.0000
     23 C14       -0.4039    7.1393    5.1354 C.2       1 RES1    0.0000
     24 C15       -1.1381    8.4368    4.9611 C.3       1 RES1    0.0000
     25 H10       -1.9031    8.2980    4.3486 H         1 RES1    0.0000
     26 H11       -0.5325    9.0999    4.5449 H         1 RES1    0.0000
     27 C16       -1.6519    8.9899    6.2849 C.3       1 RES1    0.0000
     28 H12       -0.8954    9.3034    6.8232 H         1 RES1    0.0000
     29 H13       -2.1287    8.2857    6.7703 H         1 RES1    0.0000
     30 H14       -2.2620    9.7372    6.1115 H         1 RES1    0.0000
     31 C17        0.3487    5.3100    6.0344 C.2       1 RES1    0.0000
     32 C18        0.5456    4.2913    7.1040 C.3       1 RES1    0.0000
     33 H15        1.3818    3.8057    6.9433 H         1 RES1    0.0000
     34 H16       -0.2038    3.6597    7.0965 H         1 RES1    0.0000
     35 H17        0.5893    4.7370    7.9757 H         1 RES1    0.0000
     36 C19        0.8903    5.3664    4.7939 C.2       1 RES1    0.0000
     37 N1        -1.1668    0.2837    1.3901 N.pl3     1 RES1    0.0000
     38 N2         2.6530    5.2821    3.1790 N.pl3     1 RES1    0.0000
     39 H18        3.2470    4.8131    2.7694 H         1 RES1    0.0000
     40 N3         0.4197    6.5379    4.2034 N.pl3     1 RES1    0.0000
     41 N4        -0.4678    6.4104    6.2314 N.2       1 RES1    0.0000
     42 O1        -1.4169    0.3941    0.1965 O.2       1 RES1    0.0000
     43 O2        -1.5515   -0.6528    2.0811 O.2       1 RES1    0.0000
@<TRIPOS>BOND
     1    1    2 1
     2    3    1 ar
     3    4    3 1
     4    5    3 ar
     5    6    5 ar
     6    7    6 1
     7    8    6 ar
     8    9    8 1
     9   10    1 ar
    10   11   10 1
    11   12   11 1
    12   13   14 ar
    13   14   15 1
    14   16   14 ar
    15   17   16 1
    16   18   16 ar
    17   19   18 1
    18   20   18 ar
    19   21   20 1
    20   22   13 ar
    21   23   24 1
    22   24   25 1
    23   26   24 1
    24   27   24 1
    25   28   27 1
    26   29   27 1
    27   30   27 1
    28   31   32 1
    29   32   33 1
    30   34   32 1
    31   35   32 1
    32   36   11 1
    33   37    5 1
    34   38   11 1
    35   39   38 1
    36   40   22 1
    37   41   23 2
    38   42   37 2
    39   43   37 2
    40    8   10 ar
    41   13   38 1
    42   20   22 ar
    43   23   40 1
    44   31   36 2
    45   31   41 1
    46   36   40 1
@<TRIPOS>SUBSTRUCTURE
     1 RES1 1

@<TRIPOS>CRYSIN
   8.6940   20.5600    9.2110  90.0000 103.3390  90.0000 231 1

