# MOL2 file generated by ConQuest
# Please check atom types

@<TRIPOS>MOLECULE
YITJES
    31    30     1
SMALL
NO_CHARGES
****
Generated from CSD

@<TRIPOS>ATOM
      1 O1         5.4457    1.6886    4.8131 O.2       1 RES1    0.0000
      2 O2         8.4441    3.0522    6.6420 O.3       1 RES1    0.0000
      3 O3         8.8007    5.2418    6.2244 O.2       1 RES1    0.0000
      4 O4         6.0323    3.7849    4.9844 O.2       1 RES1    0.0000
      5 O5         7.2700    0.5050    6.5739 O.2       1 RES1    0.0000
      6 O6         8.2722    2.0346    3.8376 O.2       1 RES1    0.0000
      7 N1        10.4759    1.8119    3.7742 N.3       1 RES1    0.0000
      8 O7         9.2148    1.1354    2.0834 O.2       1 RES1    0.0000
      9 N2        10.2221    3.5897    5.4122 N.am      1 RES1    0.0000
     10 O8         4.9527    3.4432    8.6896 O.2       1 RES1    0.0000
     11 O9        12.2180    3.9569    4.4973 O.2       1 RES1    0.0000
     12 O10       11.0024    5.6789    4.9908 O.2       1 RES1    0.0000
     13 N3        11.2196    4.4876    4.9431 N.pl3     1 RES1    0.0000
     14 N4         9.2583    1.6479    3.2078 N.pl3     1 RES1    0.0000
     15 N5         4.8373    2.8945    7.6219 N.pl3     1 RES1    0.0000
     16 O11        3.8069    2.5876    7.0652 O.2       1 RES1    0.0000
     17 O12        5.7060    0.5299    8.0786 O.2       1 RES1    0.0000
     18 N6         6.3811    1.0300    7.2047 N.pl3     1 RES1    0.0000
     19 N7         5.8589    2.6611    5.4126 N.pl3     1 RES1    0.0000
     20 C1        11.6414    1.3112    3.0443 C.3       1 RES1    0.0000
     21 C2        10.4990    2.1612    5.1779 C.3       1 RES1    0.0000
     22 C3         6.1386    2.5086    6.9114 C.3       1 RES1    0.0000
     23 C4         7.2747    3.3822    7.3966 C.3       1 RES1    0.0000
     24 C5         9.1105    4.0981    6.0988 C.2       1 RES1    0.0000
     25 H1         7.0404    4.2883    7.2755 H         1 RES1    0.0000
     26 H2         7.4037    3.1782    8.3236 H         1 RES1    0.0000
     27 H3        11.3600    1.9487    5.4787 H         1 RES1    0.0000
     28 H4         9.8288    1.6793    5.6557 H         1 RES1    0.0000
     29 H5        11.5611    0.3606    2.9129 H         1 RES1    0.0000
     30 H6        12.4326    1.6043    3.5527 H         1 RES1    0.0000
     31 H7        11.6833    1.7380    2.1779 H         1 RES1    0.0000
@<TRIPOS>BOND
     1    1   19 2
     2    2   23 1
     3    3   24 2
     4    4   19 2
     5    5   18 2
     6    6   14 2
     7    7   14 1
     8    8   14 2
     9    9   13 1
    10   10   15 2
    11   11   13 2
    12   12   13 2
    13   15   16 2
    14   17   18 2
    15   18   22 1
    16   19   22 1
    17   20    7 1
    18   21    7 1
    19   22   15 1
    20   23   22 1
    21   24    2 1
    22   25   23 1
    23   26   23 1
    24   27   21 1
    25   28   21 1
    26   29   20 1
    27   30   20 1
    28   31   20 1
    29    9   21 1
    30    9   24 1
@<TRIPOS>SUBSTRUCTURE
     1 RES1 1

@<TRIPOS>CRYSIN
   9.3625   20.2565    6.8065  90.0000  90.7680  90.0000  14 1

