# MOL2 file generated by ConQuest
# Please check atom types

@<TRIPOS>MOLECULE
YITKAP
    14    13     1
SMALL
NO_CHARGES
****
Generated from CSD

@<TRIPOS>ATOM
      1 O1         1.1983    2.8677    9.4496 O.2       1 RES1    0.0000
      2 O2        -0.8595    2.5456    8.7747 O.2       1 RES1    0.0000
      3 O3         2.8979    0.4330   10.8951 O.2       1 RES1    0.0000
      4 N1         2.6643    0.4596    8.5394 N.2       1 RES1    0.0000
      5 N2         0.8182    1.6996    7.6058 N.3       1 RES1    0.0000
      6 N3         0.3557    2.4001    8.6625 N.pl3     1 RES1    0.0000
      7 C1         2.2401    1.4458    7.5519 C.3       1 RES1    0.0000
      8 C2        -0.1664    0.9585    6.8241 C.3       1 RES1    0.0000
      9 C3         2.7649    0.5280    9.7334 C.2       1 RES1    0.0000
     10 H1         2.4125    1.0766    6.6979 H         1 RES1    0.0000
     11 H2         2.6967    2.2842    7.6832 H         1 RES1    0.0000
     12 H3        -0.7636    1.5552    6.3840 H         1 RES1    0.0000
     13 H4        -0.7050    0.3957    7.3891 H         1 RES1    0.0000
     14 H5         0.3475    0.4198    6.1672 H         1 RES1    0.0000
@<TRIPOS>BOND
     1    1    6 2
     2    2    6 2
     3    3    9 2
     4    4    7 1
     5    5    6 1
     6    7    5 1
     7    8    5 1
     8    9    4 2
     9   10    7 1
    10   11    7 1
    11   12    8 1
    12   13    8 1
    13   14    8 1
@<TRIPOS>SUBSTRUCTURE
     1 RES1 1

@<TRIPOS>CRYSIN
   6.0097    8.9122   10.5638  90.0000  99.2530  90.0000  14 1

