# MOL2 file generated by ConQuest
# Please check atom types

@<TRIPOS>MOLECULE
YITLEU
    39    42     1
SMALL
NO_CHARGES
****
Generated from CSD

@<TRIPOS>ATOM
      1 C1         8.4952   12.3228    1.9153 C.2       1 RES1    0.0000
      2 C2         7.7059   12.9742    3.0193 C.3       1 RES1    0.0000
      3 H1         8.1018   12.7317    3.8934 H         1 RES1    0.0000
      4 H2         6.7759   12.6363    3.0009 H         1 RES1    0.0000
      5 C3         7.6953   14.5078    2.8719 C.3       1 RES1    0.0000
      6 C4         9.0595   15.0854    3.1760 C.ar      1 RES1    0.0000
      7 C5         9.7577   15.1475    4.3680 C.ar      1 RES1    0.0000
      8 H3         9.3808   14.8007    5.1677 H         1 RES1    0.0000
      9 C6        11.0234   15.7290    4.3737 C.ar      1 RES1    0.0000
     10 H4        11.5147   15.7868    5.1853 H         1 RES1    0.0000
     11 C7        11.5718   16.2245    3.1991 C.ar      1 RES1    0.0000
     12 H5        12.4444   16.5983    3.2135 H         1 RES1    0.0000
     13 C8        10.8711   16.1838    2.0060 C.ar      1 RES1    0.0000
     14 H6        11.2464   16.5328    1.2066 H         1 RES1    0.0000
     15 C9         9.6080   15.6197    2.0117 C.ar      1 RES1    0.0000
     16 C10        7.5159   14.8285    1.3634 C.3       1 RES1    0.0000
     17 H7         6.7354   15.4431    1.2608 H         1 RES1    0.0000
     18 C11        6.5937   15.1130    3.7401 C.3       1 RES1    0.0000
     19 H8         6.7510   14.8798    4.6788 H         1 RES1    0.0000
     20 H9         5.7246   14.7598    3.4573 H         1 RES1    0.0000
     21 H10        6.5981   16.0882    3.6415 H         1 RES1    0.0000
     22 C12        9.0523   15.7605   -0.4078 C.3       1 RES1    0.0000
     23 H11        9.5743   16.5874   -0.4807 H         1 RES1    0.0000
     24 H12        8.2359   15.8414   -0.9425 H         1 RES1    0.0000
     25 H13        9.5867   15.0080   -0.7394 H         1 RES1    0.0000
     26 C13        9.4776   11.2429    2.1675 C.ar      1 RES1    0.0000
     27 C14       10.1664   11.1569    3.3728 C.ar      1 RES1    0.0000
     28 H14        9.9861   11.7852    4.0626 H         1 RES1    0.0000
     29 C15       11.1138   10.1671    3.5808 C.ar      1 RES1    0.0000
     30 H15       11.5833   10.1240    4.4052 H         1 RES1    0.0000
     31 C16       11.3728    9.2414    2.5865 C.ar      1 RES1    0.0000
     32 H16       12.0294    8.5665    2.7206 H         1 RES1    0.0000
     33 C17       10.6740    9.3023    1.3977 C.ar      1 RES1    0.0000
     34 H17       10.8377    8.6538    0.7218 H         1 RES1    0.0000
     35 C18        9.7440   10.2946    1.1822 C.ar      1 RES1    0.0000
     36 H18        9.2810   10.3327    0.3548 H         1 RES1    0.0000
     37 N1         8.3202   12.6627    0.6965 N.2       1 RES1    0.0000
     38 N2         8.7042   15.5324    0.9706 N.3       1 RES1    0.0000
     39 O1         7.2847   13.6575    0.5574 O.3       1 RES1    0.0000
@<TRIPOS>BOND
     1    1    2 1
     2    2    3 1
     3    4    2 1
     4    5    2 1
     5    6    5 1
     6    7    6 ar
     7    8    7 1
     8    9    7 ar
     9   10    9 1
    10   11    9 ar
    11   12   11 1
    12   13   11 ar
    13   14   13 1
    14   15    6 ar
    15   16    5 1
    16   17   16 1
    17   18    5 1
    18   19   18 1
    19   20   18 1
    20   21   18 1
    21   22   23 1
    22   24   22 1
    23   25   22 1
    24   26    1 1
    25   27   26 ar
    26   28   27 1
    27   29   27 ar
    28   30   29 1
    29   31   29 ar
    30   32   31 1
    31   33   31 ar
    32   34   33 1
    33   35   26 ar
    34   36   35 1
    35   37    1 2
    36   38   15 1
    37   39   16 1
    38   13   15 ar
    39   16   38 1
    40   22   38 1
    41   33   35 ar
    42   37   39 1
@<TRIPOS>SUBSTRUCTURE
     1 RES1 1

@<TRIPOS>CRYSIN
  31.1967   13.6387   13.5421  90.0000  90.0000  90.0000  43 1

