# MOL2 file generated by ConQuest
# Please check atom types

@<TRIPOS>MOLECULE
YITMAR
   134   144     2
SMALL
NO_CHARGES
****
Generated from CSD

@<TRIPOS>ATOM
      1 N1         0.6865    5.7114    5.0710 N.3       1 RES1    0.0000
      2 C1         0.4622    2.3579   11.8845 C.ar      1 RES1    0.0000
      3 O1         4.0278    6.1890    3.9776 O.2       1 RES1    0.0000
      4 O2        -3.0519   -0.2790   13.4713 O.2       1 RES1    0.0000
      5 C2        -0.1697    3.4069    5.2765 C.2       1 RES1    0.0000
      6 N2        -0.6863    4.0704    8.8307 N.2       1 RES1    0.0000
      7 O3        -1.1747   -0.3771   14.4725 O.2       1 RES1    0.0000
      8 C3         1.8476    7.2013    3.7548 C.ar      1 RES1    0.0000
      9 C4         3.5490    6.2229    8.3600 C.ar      1 RES1    0.0000
     10 H1         3.7676    7.0170    8.7911 H         1 RES1    0.0000
     11 C5         0.5925    6.8239    4.2647 C.ar      1 RES1    0.0000
     12 N3         0.1497    3.7362    9.8868 N.pl3     1 RES1    0.0000
     13 H2         0.9372    4.0767    9.9537 H         1 RES1    0.0000
     14 C6        -1.2315    2.4210    5.6591 C.ar      1 RES1    0.0000
     15 C7        -0.4723    4.8859    5.4269 C.3       1 RES1    0.0000
     16 H3        -1.1678    5.0914    4.7668 H         1 RES1    0.0000
     17 C8        -1.3528    1.0363   12.6642 C.ar      1 RES1    0.0000
     18 N4         1.8435    2.7398   12.0801 N.pl3     1 RES1    0.0000
     19 O4         2.4968    2.1584   12.9237 O.2       1 RES1    0.0000
     20 O5         2.3220    3.6332   11.3873 O.2       1 RES1    0.0000
     21 C9        -0.2235    4.8867    7.9761 C.2       1 RES1    0.0000
     22 H4         0.6298    5.2408    8.0804 H         1 RES1    0.0000
     23 C10        2.0643    5.1752    5.0294 C.3       1 RES1    0.0000
     24 C11        2.6789    5.0778    6.4204 C.ar      1 RES1    0.0000
     25 C12       -0.3612    8.6950    3.1556 C.ar      1 RES1    0.0000
     26 H5        -1.1055    9.2055    2.9329 H         1 RES1    0.0000
     27 C13       -1.6390    2.3829   10.7207 C.ar      1 RES1    0.0000
     28 H6        -2.1806    2.6802   10.0250 H         1 RES1    0.0000
     29 C14        1.9877    8.3463    2.9689 C.ar      1 RES1    0.0000
     30 H7         2.8238    8.5969    2.6497 H         1 RES1    0.0000
     31 C15        3.4924    3.8539    8.3288 C.ar      1 RES1    0.0000
     32 H8         3.6539    3.0392    8.7480 H         1 RES1    0.0000
     33 C16       -2.1510    1.4992   11.6240 C.ar      1 RES1    0.0000
     34 H9        -3.0310    1.2087   11.5458 H         1 RES1    0.0000
     35 C17        2.8230    6.2331    4.1938 C.2       1 RES1    0.0000
     36 C18       -0.3104    2.8611   10.8064 C.ar      1 RES1    0.0000
     37 C19        3.7930    5.0231    8.9760 C.ar      1 RES1    0.0000
     38 H10        4.1613    5.0032    9.8300 H         1 RES1    0.0000
     39 C20       -1.0577    5.2704    6.8071 C.3       1 RES1    0.0000
     40 H11       -1.1916    6.2315    6.8277 H         1 RES1    0.0000
     41 H12       -1.9283    4.8522    6.8990 H         1 RES1    0.0000
     42 C21        0.9548    2.9655    4.7415 C.2       1 RES1    0.0000
     43 H13        1.0726    2.0459    4.6618 H         1 RES1    0.0000
     44 C22        2.9498    3.8767    7.0531 C.ar      1 RES1    0.0000
     45 H14        2.7651    3.0755    6.6177 H         1 RES1    0.0000
     46 C23        2.9765    6.2585    7.0944 C.ar      1 RES1    0.0000
     47 H15        2.7905    7.0770    6.6946 H         1 RES1    0.0000
     48 C24       -0.0565    1.4540   12.7988 C.ar      1 RES1    0.0000
     49 H16        0.4704    1.1353   13.4960 H         1 RES1    0.0000
     50 C25       -0.5423    7.5793    3.9485 C.ar      1 RES1    0.0000
     51 H17       -1.3852    7.3390    4.2605 H         1 RES1    0.0000
     52 C26       -2.3845    2.3055    4.9125 C.ar      1 RES1    0.0000
     53 H18       -2.5455    2.8972    4.2136 H         1 RES1    0.0000
     54 N5        -1.8992    0.0747   13.6056 N.pl3     1 RES1    0.0000
     55 C27        2.0528    3.8624    4.2549 C.3       1 RES1    0.0000
     56 H19        1.9261    4.0452    3.3098 H         1 RES1    0.0000
     57 H20        2.9069    3.4159    4.3637 H         1 RES1    0.0000
     58 C28        0.8841    9.0946    2.6741 C.ar      1 RES1    0.0000
     59 H21        0.9630    9.8630    2.1565 H         1 RES1    0.0000
     60 C29       -3.3023    1.3130    5.2000 C.ar      1 RES1    0.0000
     61 H22       -4.0646    1.2228    4.6750 H         1 RES1    0.0000
     62 C30       -1.0486    1.5492    6.7053 C.ar      1 RES1    0.0000
     63 H23       -0.2786    1.6182    7.2234 H         1 RES1    0.0000
     64 C31       -1.9687    0.5833    7.0046 C.ar      1 RES1    0.0000
     65 H24       -1.8251    0.0074    7.7203 H         1 RES1    0.0000
     66 C32       -3.0986    0.4667    6.2483 C.ar      1 RES1    0.0000
     67 H25       -3.7274   -0.1884    6.4489 H         1 RES1    0.0000
     68 N6        -0.1643    4.8988   18.2108 N.3       2 RES2    0.0000
     69 O6        -3.4837    5.5592   19.2641 O.2       2 RES2    0.0000
     70 N7         0.3560    5.5579   13.4154 N.pl3     2 RES2    0.0000
     71 H26       -0.3671    5.1052   13.3104 H         2 RES2    0.0000
     72 C33       -1.6536    3.1456   19.0372 C.3       2 RES2    0.0000
     73 H27       -1.4944    3.3286   19.9768 H         2 RES2    0.0000
     74 H28       -2.5420    2.7659   18.9492 H         2 RES2    0.0000
     75 C34       -2.2321    5.5131   16.0737 C.ar      2 RES2    0.0000
     76 H29       -1.8892    6.3093   16.4102 H         2 RES2    0.0000
     77 O7         3.4124    9.6482    9.7754 O.2       2 RES2    0.0000
     78 C35       -2.1628    4.3475   16.8398 C.ar      2 RES2    0.0000
     79 O8        -1.8039    5.5474   11.8567 O.2       2 RES2    0.0000
     80 N8         2.2926    9.2111    9.6198 N.pl3     2 RES2    0.0000
     81 N9        -1.3808    6.4977   11.2109 N.pl3     2 RES2    0.0000
     82 C36        1.1473    6.7035   19.3198 C.ar      2 RES2    0.0000
     83 H30        1.9771    6.4087   19.0224 H         2 RES2    0.0000
     84 C37        1.5133    1.5019   17.5925 C.ar      2 RES2    0.0000
     85 C38       -0.0179    6.0182   18.9982 C.ar      2 RES2    0.0000
     86 N10        1.1364    5.4239   14.5531 N.2       2 RES2    0.0000
     87 C39        0.7873    6.4368   12.4759 C.ar      2 RES2    0.0000
     88 C40       -2.6567    3.1708   16.3035 C.ar      2 RES2    0.0000
     89 H31       -2.6125    2.3848   16.8002 H         2 RES2    0.0000
     90 C41       -1.2597    6.4728   19.4833 C.ar      2 RES2    0.0000
     91 C42        1.6672    4.3629   16.5943 C.3       2 RES2    0.0000
     92 H32        2.1378    5.1990   16.7346 H         2 RES2    0.0000
     93 H33        2.3351    3.6825   16.4177 H         2 RES2    0.0000
     94 C43       -2.8079    5.4895   14.8138 C.ar      2 RES2    0.0000
     95 H34       -2.8685    6.2754   14.3211 H         2 RES2    0.0000
     96 C44        0.8219    4.5086   15.3765 C.2       2 RES2    0.0000
     97 H35        0.0933    3.9518   15.2250 H         2 RES2    0.0000
     98 C45        0.5018    7.7984   10.4625 C.ar      2 RES2    0.0000
     99 H36       -0.0327    8.0879    9.7587 H         2 RES2    0.0000
    100 C46        1.0304    7.8479   20.1027 C.ar      2 RES2    0.0000
    101 H37        1.8003    8.3204   20.3200 H         2 RES2    0.0000
    102 C47       -1.5679    4.4420   18.2389 C.3       2 RES2    0.0000
    103 C48       -2.2796    5.5551   19.0544 C.2       2 RES2    0.0000
    104 C49       -3.2934    4.3089   14.2829 C.ar      2 RES2    0.0000
    105 H38       -3.6678    4.2935   13.4323 H         2 RES2    0.0000
    106 O9         1.6014    9.4986    8.6713 O.2       2 RES2    0.0000
    107 C50       -0.6343    2.1680   18.5324 C.2       2 RES2    0.0000
    108 H39       -0.8243    1.2597   18.5929 H         2 RES2    0.0000
    109 C51       -3.2156    3.1501   15.0352 C.ar      2 RES2    0.0000
    110 H40       -3.5412    2.3516   14.6868 H         2 RES2    0.0000
    111 C52        0.5263    2.5350   18.0024 C.2       2 RES2    0.0000
    112 C53        0.9474    3.9946   17.9058 C.3       2 RES2    0.0000
    113 H41        1.6063    4.1305   18.6192 H         2 RES2    0.0000
    114 O10       -2.0744    7.1281   10.4244 O.2       2 RES2    0.0000
    115 C54        2.7317    1.3721   18.2342 C.ar      2 RES2    0.0000
    116 H42        2.9656    1.9727   18.9042 H         2 RES2    0.0000
    117 C55        2.5852    7.8450   11.6332 C.ar      2 RES2    0.0000
    118 H43        3.4536    8.1698   11.7071 H         2 RES2    0.0000
    119 C56       -1.3459    7.6275   20.2675 C.ar      2 RES2    0.0000
    120 H44       -2.1697    7.9273   20.5769 H         2 RES2    0.0000
    121 C57        2.0985    6.9591   12.5522 C.ar      2 RES2    0.0000
    122 H45        2.6491    6.6895   13.2523 H         2 RES2    0.0000
    123 C58       -0.1980    8.3117   20.5739 C.ar      2 RES2    0.0000
    124 H46       -0.2383    9.0824   21.0926 H         2 RES2    0.0000
    125 C59        3.2610   -0.5333   16.8958 C.ar      2 RES2    0.0000
    126 H47        3.8528   -1.2074   16.6502 H         2 RES2    0.0000
    127 C60        0.0082    6.8976   11.3885 C.ar      2 RES2    0.0000
    128 C61        1.1778    0.5884   16.6112 C.ar      2 RES2    0.0000
    129 H48        0.3584    0.6591   16.1776 H         2 RES2    0.0000
    130 C62        1.7712    8.2551   10.5898 C.ar      2 RES2    0.0000
    131 C63        2.0443   -0.4248   16.2693 C.ar      2 RES2    0.0000
    132 H49        1.8049   -1.0380   15.6132 H         2 RES2    0.0000
    133 C64        3.6043    0.3575   17.8897 C.ar      2 RES2    0.0000
    134 H50        4.4214    0.2766   18.3266 H         2 RES2    0.0000
@<TRIPOS>BOND
     1    1   11 1
     2    2   18 1
     3    3   35 2
     4    4   54 2
     5    5   14 1
     6    6   12 1
     7    7   54 2
     8    8   11 ar
     9    9   10 1
    10   11   50 ar
    11   12   13 1
    12   14   52 ar
    13   15    1 1
    14   16   15 1
    15   17   33 ar
    16   18   19 2
    17   20   18 2
    18   21    6 2
    19   22   21 1
    20   23    1 1
    21   24   23 1
    22   25   26 1
    23   27   28 1
    24   29    8 ar
    25   30   29 1
    26   31   32 1
    27   33   27 ar
    28   34   33 1
    29   35    8 1
    30   36    2 ar
    31   37    9 ar
    32   38   37 1
    33   39   15 1
    34   40   39 1
    35   41   39 1
    36   42    5 2
    37   43   42 1
    38   44   24 ar
    39   45   44 1
    40   46    9 ar
    41   47   46 1
    42   48    2 ar
    43   49   48 1
    44   50   25 ar
    45   51   50 1
    46   52   53 1
    47   54   17 1
    48   55   23 1
    49   56   55 1
    50   57   55 1
    51   58   25 ar
    52   59   58 1
    53   60   52 ar
    54   61   60 1
    55   62   14 ar
    56   63   62 1
    57   64   62 ar
    58   65   64 1
    59   66   60 ar
    60   67   66 1
    61   68   85 1
    62   69  103 2
    63   70   71 1
    64   72   73 1
    65   74   72 1
    66   75   76 1
    67   77   80 2
    68   78   75 ar
    69   79   81 2
    70   80  106 2
    71   81  114 2
    72   82   83 1
    73   84  111 1
    74   85   82 ar
    75   86   70 1
    76   87   70 1
    77   88   78 ar
    78   89   88 1
    79   90   85 ar
    80   91   92 1
    81   93   91 1
    82   94   75 ar
    83   95   94 1
    84   96   86 2
    85   97   96 1
    86   98   99 1
    87  100   82 ar
    88  101  100 1
    89  102   68 1
    90  103   90 1
    91  104   94 ar
    92  105  104 1
    93  107   72 1
    94  108  107 1
    95  109   88 ar
    96  110  109 1
    97  111  107 2
    98  112   68 1
    99  113  112 1
   100  115   84 ar
   101  116  115 1
   102  117  118 1
   103  119   90 ar
   104  120  119 1
   105  121   87 ar
   106  122  121 1
   107  123  100 ar
   108  124  123 1
   109  125  126 1
   110  127   81 1
   111  128   84 ar
   112  129  128 1
   113  130   80 1
   114  131  125 ar
   115  132  131 1
   116  133  115 ar
   117  134  133 1
   118    5   15 1
   119   12   36 1
   120   17   48 ar
   121   21   39 1
   122   23   35 1
   123   24   46 ar
   124   27   36 ar
   125   29   58 ar
   126   31   37 ar
   127   31   44 ar
   128   42   55 1
   129   64   66 ar
   130   72  102 1
   131   78  102 1
   132   87  127 ar
   133   91   96 1
   134   91  112 1
   135   98  127 ar
   136   98  130 ar
   137  102  103 1
   138  104  109 ar
   139  111  112 1
   140  117  121 ar
   141  117  130 ar
   142  119  123 ar
   143  125  133 ar
   144  128  131 ar
@<TRIPOS>SUBSTRUCTURE
     1 RES1 1
     2 RES2 68

@<TRIPOS>CRYSIN
   7.9810    8.9970   19.1833  78.8550  84.9300  88.7150   1 1

