# MOL2 file generated by ConQuest
# Please check atom types

@<TRIPOS>MOLECULE
YIVGUG
    83    70     3
SMALL
USER_CHARGES
****
Generated from CSD

@<TRIPOS>ATOM
      1 O1        -0.9047    4.8636    3.0508 O.2       1 RES1   -1.0000
      2 O2         3.2909    6.8701    7.8392 O.2       1 RES1    0.0000
      3 N1        -0.6084    4.7154    4.2601 N.pl3     1 RES1    1.0000
      4 N2         0.3543    5.4555    4.7577 N.2       1 RES1    0.0000
      5 N3         0.0409    4.4339    6.9239 N.2       1 RES1    0.0000
      6 N4         1.6528    6.0783    6.4999 N.am      1 RES1    0.0000
      7 N5         1.9301    5.1739    8.6652 N.am      1 RES1    0.0000
      8 C1        -1.3163    3.7727    5.0335 C.ar      1 RES1    0.0000
      9 C2        -2.2991    2.9680    4.4476 C.ar      1 RES1    0.0000
     10 C3        -2.9338    2.0543    5.2467 C.ar      1 RES1    0.0000
     11 C4        -2.6142    1.9448    6.6035 C.ar      1 RES1    0.0000
     12 C5        -1.6526    2.7353    7.1805 C.ar      1 RES1    0.0000
     13 C6        -0.9601    3.6693    6.3847 C.ar      1 RES1    0.0000
     14 C7         0.6304    5.2614    6.0891 C.2       1 RES1    0.0000
     15 C8         2.3345    6.0986    7.7146 C.2       1 RES1    0.0000
     16 C9         2.7061    4.9272    9.8755 C.3       1 RES1    0.0000
     17 C10        2.3006    5.7656   11.0686 C.3       1 RES1    0.0000
     18 C11        3.0905    5.3821   12.3152 C.3       1 RES1    0.0000
     19 C12        2.7707    6.2728   13.4934 C.3       1 RES1    0.0000
     20 N6         1.9261    5.6872    8.6883 Du        3 SUP3    0.0000
     21 C13        2.6689    5.8234    9.9851 Du        3 SUP3    0.0000
     22 C14        2.3637    4.7117   10.9143 Du        3 SUP3    0.0000
     23 C15        3.1364    4.8675   12.2625 Du        3 SUP3    0.0000
     24 C16        2.7247    6.0143   13.0708 Du        3 SUP3    0.0000
     25 O3         7.4273    9.4491    9.0358 O.2       2 RES2   -1.0000
     26 O4         2.7269    7.8220    4.5573 O.2       2 RES2    0.0000
     27 N7         6.9844    9.7094    7.8913 N.pl3     2 RES2    1.0000
     28 N8         5.9462    9.0354    7.4591 N.2       2 RES2    0.0000
     29 N9         6.0439   10.2135    5.3534 N.2       2 RES2    0.0000
     30 N10        4.4467    8.5650    5.8344 N.am      2 RES2    0.0000
     31 N11        4.1211    9.3654    3.6662 N.am      2 RES2    0.0000
     32 C17        7.6302   10.6853    7.1117 C.ar      2 RES2    0.0000
     33 C18        8.7423   11.3757    7.6074 C.ar      2 RES2    0.0000
     34 C19        9.3576   12.2962    6.7986 C.ar      2 RES2    0.0000
     35 C20        8.8742   12.5326    5.5036 C.ar      2 RES2    0.0000
     36 C21        7.7799   11.8601    5.0218 C.ar      2 RES2    0.0000
     37 C22        7.1249   10.9035    5.8254 C.ar      2 RES2    0.0000
     38 C23        5.5253    9.3362    6.1873 C.2       2 RES2    0.0000
     39 C24        3.7101    8.5666    4.6445 C.2       2 RES2    0.0000
     40 C25        3.3938    9.5282    2.4153 C.3       2 RES2    0.0000
     41 C26        3.9562    8.6960    1.2777 C.3       2 RES2    0.0000
     42 C27        3.3384    9.0685   -0.0632 C.3       2 RES2    0.0000
     43 C28        3.8778    8.2665   -1.2288 C.3       2 RES2    0.0000
     44 H1        -1.4563    2.6537    8.1064 H         1 RES1    0.0000
     45 H2         3.6613    5.0992    9.6785 H         1 RES1    0.0000
     46 H3         2.6185    3.9719   10.1168 H         1 RES1    0.0000
     47 H4         1.3338    5.6424   11.2423 H         1 RES1    0.0000
     48 H5         2.4546    6.7210   10.8640 H         1 RES1    0.0000
     49 H6         2.8856    4.4430   12.5535 H         1 RES1    0.0000
     50 H7         4.0589    5.4418   12.1164 H         1 RES1    0.0000
     51 H8         2.9431    7.2078   13.2516 H         1 RES1    0.0000
     52 H9         3.3339    6.0220   14.2550 H         1 RES1    0.0000
     53 H10        1.8271    6.1661   13.7365 H         1 RES1    0.0000
     54 H11        1.9522    6.6100    5.8972 H         1 RES1    0.0000
     55 H12        1.1855    4.7234    8.5350 H         1 RES1    0.0000
     56 H13       -2.5188    3.0529    3.5275 H         1 RES1    0.0000
     57 H14       -3.5993    1.4875    4.8746 H         1 RES1    0.0000
     58 H15       -3.0734    1.3084    7.1389 H         1 RES1    0.0000
     59 H16        1.1480    5.2744    8.6847 Du        3 SUP3    0.0000
     60 H17        3.6420    5.8390    9.8031 Du        3 SUP3    0.0000
     61 H18        2.4249    6.6821   10.4125 Du        3 SUP3    0.0000
     62 H19        2.6141    3.8511   10.4904 Du        3 SUP3    0.0000
     63 H20        1.3916    4.6922   11.0939 Du        3 SUP3    0.0000
     64 H21        3.0101    4.0420   12.7954 Du        3 SUP3    0.0000
     65 H22        4.1022    4.9512   12.0649 Du        3 SUP3    0.0000
     66 H23        3.0609    6.8378   12.6624 Du        3 SUP3    0.0000
     67 H24        3.0912    5.9227   13.9760 Du        3 SUP3    0.0000
     68 H25        1.7466    6.0474   13.1175 Du        3 SUP3    0.0000
     69 H26        4.1333    8.0683    6.4599 H         2 RES2    0.0000
     70 H27        4.7922    9.8732    3.8652 H         2 RES2    0.0000
     71 H28        9.0637   11.2108    8.4859 H         2 RES2    0.0000
     72 H29       10.1134   12.7761    7.1161 H         2 RES2    0.0000
     73 H30        9.3117   13.1694    4.9500 H         2 RES2    0.0000
     74 H31        7.4627   12.0382    4.1442 H         2 RES2    0.0000
     75 H32        3.4141   10.4826    2.1541 H         2 RES2    0.0000
     76 H33        2.4478    9.2755    2.5600 H         2 RES2    0.0000
     77 H34        3.7854    7.7373    1.4596 H         2 RES2    0.0000
     78 H35        4.9360    8.8277    1.2321 H         2 RES2    0.0000
     79 H36        2.3587    8.9367   -0.0108 H         2 RES2    0.0000
     80 H37        3.5036   10.0289   -0.2347 H         2 RES2    0.0000
     81 H38        4.8464    8.3993   -1.2968 H         2 RES2    0.0000
     82 H39        3.4477    8.5648   -2.0571 H         2 RES2    0.0000
     83 H40        3.6879    7.3148   -1.0860 H         2 RES2    0.0000
@<TRIPOS>BOND
     1    1    3 1
     2    2   15 2
     3    3    4 2
     4    4   14 1
     5    5   13 1
     6    6   14 1
     7    7   15 1
     8    8    3 1
     9    9    8 ar
    10   10    9 ar
    11   11   10 ar
    12   12   11 ar
    13   13    8 ar
    14   14    5 2
    15   15    6 1
    16   16    7 1
    17   17   16 1
    18   18   17 1
    19   19   18 1
    20   25   27 1
    21   26   39 2
    22   27   28 2
    23   28   38 1
    24   29   37 1
    25   30   38 1
    26   31   39 1
    27   32   27 1
    28   33   32 ar
    29   34   33 ar
    30   35   34 ar
    31   36   35 ar
    32   37   32 ar
    33   38   29 2
    34   39   30 1
    35   40   31 1
    36   41   40 1
    37   42   41 1
    38   43   42 1
    39   44   12 1
    40   45   16 1
    41   46   16 1
    42   47   17 1
    43   48   17 1
    44   49   18 1
    45   50   18 1
    46   51   19 1
    47   52   19 1
    48   53   19 1
    49   54    6 1
    50   55    7 1
    51   56    9 1
    52   57   10 1
    53   58   11 1
    54   69   30 1
    55   70   31 1
    56   71   33 1
    57   72   34 1
    58   73   35 1
    59   74   36 1
    60   75   40 1
    61   76   40 1
    62   77   41 1
    63   78   41 1
    64   79   42 1
    65   80   42 1
    66   81   43 1
    67   82   43 1
    68   83   43 1
    69   12   13 ar
    70   36   37 ar
@<TRIPOS>SUBSTRUCTURE
     1 RES1 1
     2 RES2 25
     3 SUP3 20

@<TRIPOS>CRYSIN
  10.9164   19.4699   12.7850  90.0000 110.5180  90.0000  14 1

