# MOL2 file generated by ConQuest
# Please check atom types

@<TRIPOS>MOLECULE
YIWYEI
    29    30     1
SMALL
NO_CHARGES
****
Generated from CSD

@<TRIPOS>ATOM
      1 O1         4.1138    1.9837   10.8142 O.3       1 RES1    0.0000
      2 O2         3.3508   -0.5502   10.8165 O.2       1 RES1    0.0000
      3 N1         3.0323    1.5395   10.0548 N.am      1 RES1    0.0000
      4 C1         2.7351    0.2370   10.1025 C.2       1 RES1    0.0000
      5 C2         1.6447   -0.1773    9.2351 C.1       1 RES1    0.0000
      6 C3         0.8196   -0.6132    8.5154 C.1       1 RES1    0.0000
      7 C4         2.4524    2.5687    9.2521 C.ar      1 RES1    0.0000
      8 C5         3.2188    3.1653    8.2801 C.ar      1 RES1    0.0000
      9 C6         2.6802    4.1977    7.5365 C.ar      1 RES1    0.0000
     10 C7         1.3990    4.5971    7.7571 C.ar      1 RES1    0.0000
     11 C8         0.6296    3.9889    8.7200 C.ar      1 RES1    0.0000
     12 C9         1.1549    2.9647    9.4875 C.ar      1 RES1    0.0000
     13 C10       -0.2054   -1.0706    7.6229 C.ar      1 RES1    0.0000
     14 C11       -1.3985   -0.3762    7.5252 C.ar      1 RES1    0.0000
     15 C12       -2.3771   -0.7805    6.6407 C.ar      1 RES1    0.0000
     16 C13       -2.1660   -1.8942    5.8551 C.ar      1 RES1    0.0000
     17 C14       -0.9944   -2.5968    5.9506 C.ar      1 RES1    0.0000
     18 C15       -0.0104   -2.1974    6.8294 C.ar      1 RES1    0.0000
     19 H1         4.5583    1.1766   11.2099 H         1 RES1    0.0000
     20 H2         4.1081    2.8670    8.1516 H         1 RES1    0.0000
     21 H3         3.2242    4.6402    6.8783 H         1 RES1    0.0000
     22 H4         1.0361    5.3693    7.2762 H         1 RES1    0.0000
     23 H5        -0.2870    4.2424    8.9020 H         1 RES1    0.0000
     24 H6         0.6342    2.5355   10.1412 H         1 RES1    0.0000
     25 H7        -1.4554    0.3977    8.0265 H         1 RES1    0.0000
     26 H8        -3.2240   -0.2154    6.6054 H         1 RES1    0.0000
     27 H9        -2.8497   -2.2041    5.2184 H         1 RES1    0.0000
     28 H10       -0.8437   -3.5298    5.4799 H         1 RES1    0.0000
     29 H11        0.8494   -2.6847    6.8896 H         1 RES1    0.0000
@<TRIPOS>BOND
     1    1    3 1
     2    2    4 2
     3    3    4 1
     4    4    5 1
     5    5    6 3
     6    6   13 1
     7    7    3 1
     8    8    7 ar
     9    9    8 ar
    10   10    9 ar
    11   11   10 ar
    12   12    7 ar
    13   13   14 ar
    14   14   15 ar
    15   15   16 ar
    16   16   17 ar
    17   17   18 ar
    18   18   13 ar
    19   19    1 1
    20   20    8 1
    21   21    9 1
    22   22   10 1
    23   23   11 1
    24   24   12 1
    25   25   14 1
    26   26   15 1
    27   27   16 1
    28   28   17 1
    29   29   18 1
    30   11   12 ar
@<TRIPOS>SUBSTRUCTURE
     1 RES1 1

@<TRIPOS>CRYSIN
   6.4310   16.5720   11.4950  90.0000  98.4900  90.0000  14 1

