# MOL2 file generated by ConQuest
# Please check atom types

@<TRIPOS>MOLECULE
YIXHOC
    47    49     1
SMALL
NO_CHARGES
****
Generated from CSD

@<TRIPOS>ATOM
      1 O1         5.8560    0.5729   11.1458 O.2       1 RES1    0.0000
      2 O2         6.6024    2.3311   10.5426 O.2       1 RES1    0.0000
      3 O3         4.5566   -0.0056   15.9172 O.2       1 RES1    0.0000
      4 O4         8.6087    5.2800   13.8263 O.2       1 RES1    0.0000
      5 O5         7.9947    5.0946   15.8858 O.2       1 RES1    0.0000
      6 O6         4.8988    1.8424   17.2223 O.3       1 RES1    0.0000
      7 O7         6.5559    3.7859   20.5494 O.3       1 RES1    0.0000
      8 O8         6.0349    1.7357   19.7726 O.3       1 RES1    0.0000
      9 N1         7.9811    4.8082   14.7258 N.pl3     1 RES1    0.0000
     10 N2         6.2520    1.7413   11.3763 N.pl3     1 RES1    0.0000
     11 C1         6.3693    2.1176   12.7727 C.ar      1 RES1    0.0000
     12 C2         5.7833    1.8761   15.0701 C.ar      1 RES1    0.0000
     13 C3         8.8312    2.1569   19.5960 C.3       1 RES1    0.0000
     14 C4         6.5063    2.9545   15.3724 C.ar      1 RES1    0.0000
     15 C5         3.8802    1.5334   20.8188 C.3       1 RES1    0.0000
     16 C6         5.0022    1.1065   16.0893 C.2       1 RES1    0.0000
     17 C7         4.6638    1.9884   19.5796 C.3       1 RES1    0.0000
     18 C8         6.6595    2.3086   20.7874 C.3       1 RES1    0.0000
     19 C9         5.6895    1.4099   13.7545 C.ar      1 RES1    0.0000
     20 C10        8.0564    2.0053   20.8532 C.3       1 RES1    0.0000
     21 C11        8.6343    3.8757   19.3221 C.3       1 RES1    0.0000
     22 C12        7.1161    3.2185   13.0555 C.ar      1 RES1    0.0000
     23 C13        5.9095    2.0839   22.1149 C.3       1 RES1    0.0000
     24 C14        4.2283    1.1571   18.3268 C.3       1 RES1    0.0000
     25 C15        4.4330    2.2580   21.9862 C.3       1 RES1    0.0000
     26 C16        7.2069    4.1397   19.3371 C.3       1 RES1    0.0000
     27 C17        7.1863    3.5780   14.3891 C.ar      1 RES1    0.0000
     28 H1         8.4602    1.6385   18.8896 H         1 RES1    0.0000
     29 H2         9.7416    1.9210   19.7158 H         1 RES1    0.0000
     30 H3         8.9902    4.1122   18.4675 H         1 RES1    0.0000
     31 H4         9.0706    4.3706   19.9941 H         1 RES1    0.0000
     32 H5         7.5593    3.7151   12.3506 H         1 RES1    0.0000
     33 H6         8.4767    2.5681   21.5342 H         1 RES1    0.0000
     34 H7         8.1723    1.1037   21.1271 H         1 RES1    0.0000
     35 H8         7.0606    5.0873   19.1545 H         1 RES1    0.0000
     36 H9         6.7783    3.6735   18.5843 H         1 RES1    0.0000
     37 H10        6.2241    2.7349   22.7840 H         1 RES1    0.0000
     38 H11        6.0817    1.2262   22.4562 H         1 RES1    0.0000
     39 H12        4.0176    1.9890   22.7929 H         1 RES1    0.0000
     40 H13        4.2564    3.1983   21.8530 H         1 RES1    0.0000
     41 H14        4.0068    0.5668   20.9745 H         1 RES1    0.0000
     42 H15        2.9427    1.6711   20.7500 H         1 RES1    0.0000
     43 H16        4.4939    2.9158   19.4045 H         1 RES1    0.0000
     44 H17        4.5090    0.2286   18.4166 H         1 RES1    0.0000
     45 H18        3.2620    1.1307   18.2341 H         1 RES1    0.0000
     46 H19        6.5515    3.2888   16.2929 H         1 RES1    0.0000
     47 H20        5.1159    0.6347   13.5180 H         1 RES1    0.0000
@<TRIPOS>BOND
     1    1   10 2
     2    2   10 2
     3    3   16 2
     4    4    9 2
     5    5    9 2
     6    6   16 1
     7    7   18 1
     8    8   17 1
     9    9   27 1
    10   10   11 1
    11   11   19 ar
    12   12   14 ar
    13   13   20 1
    14   14   27 ar
    15   15   17 1
    16   16   12 1
    17   17   24 1
    18   18    8 1
    19   19   12 ar
    20   20   18 1
    21   21   13 1
    22   22   11 ar
    23   23   18 1
    24   24    6 1
    25   25   15 1
    26   26    7 1
    27   27   22 ar
    28   28   13 1
    29   29   13 1
    30   30   21 1
    31   31   21 1
    32   32   22 1
    33   33   20 1
    34   34   20 1
    35   35   26 1
    36   36   26 1
    37   37   23 1
    38   38   23 1
    39   39   25 1
    40   40   25 1
    41   41   15 1
    42   42   15 1
    43   43   17 1
    44   44   24 1
    45   45   24 1
    46   46   14 1
    47   47   19 1
    48   21   26 1
    49   23   25 1
@<TRIPOS>SUBSTRUCTURE
     1 RES1 1

@<TRIPOS>CRYSIN
  10.8010    5.6170   15.0560  90.0000  96.2400  90.0000   4 1

