# MOL2 file generated by ConQuest
# Please check atom types

@<TRIPOS>MOLECULE
YIXNUP
    20    21     1
SMALL
NO_CHARGES
****
Generated from CSD

@<TRIPOS>ATOM
      1 N1         5.4228    1.8493    8.3148 N.3       1 RES1    0.0000
      2 C1         6.7492    2.0713    8.1326 C.2       1 RES1    0.0000
      3 H1         7.1007    2.3664    7.3237 H         1 RES1    0.0000
      4 N2         7.4976    1.8368    9.1829 N.2       1 RES1    0.0000
      5 C2         6.8145    0.9994   11.4628 C.ar      1 RES1    0.0000
      6 H2         7.6701    0.9994   11.8275 H         1 RES1    0.0000
      7 C3         5.7396    0.5951   12.2031 C.ar      1 RES1    0.0000
      8 H3         5.8618    0.3043   13.0782 H         1 RES1    0.0000
      9 C4         4.4467    0.6178   11.6423 C.ar      1 RES1    0.0000
     10 C5         4.1856    1.0328   10.3481 C.ar      1 RES1    0.0000
     11 H4         3.3248    1.0536    9.9949 H         1 RES1    0.0000
     12 C6         5.2908    1.4129    9.6191 C.ar      1 RES1    0.0000
     13 C7         6.6004    1.4133   10.1426 C.ar      1 RES1    0.0000
     14 C8         4.3630    2.0509    7.3484 C.3       1 RES1    0.0000
     15 H5         4.4057    2.9475    7.0088 H         1 RES1    0.0000
     16 H6         3.5125    1.9094    7.7712 H         1 RES1    0.0000
     17 H7         4.4674    1.4290    6.6249 H         1 RES1    0.0000
     18 N3         3.3177    0.2139   12.4690 N.pl3     1 RES1    0.0000
     19 O1         2.1830    0.4127   12.0665 O.2       1 RES1    0.0000
     20 O2         3.5457   -0.3254   13.5516 O.2       1 RES1    0.0000
@<TRIPOS>BOND
     1    1    2 1
     2    2    3 1
     3    4    2 2
     4    5    6 1
     5    7    5 ar
     6    8    7 1
     7    9    7 ar
     8   10    9 ar
     9   11   10 1
    10   12    1 1
    11   13    4 1
    12   14    1 1
    13   15   14 1
    14   16   14 1
    15   17   14 1
    16   18    9 1
    17   19   18 2
    18   20   18 2
    19    5   13 ar
    20   10   12 ar
    21   12   13 ar
@<TRIPOS>SUBSTRUCTURE
     1 RES1 1

@<TRIPOS>CRYSIN
  12.8520    7.0430   17.6900  90.0000  90.0000  90.0000  61 1

