# MOL2 file generated by ConQuest
# Please check atom types

@<TRIPOS>MOLECULE
YIXPAY
    68    70     2
SMALL
NO_CHARGES
****
Generated from CSD

@<TRIPOS>ATOM
      1 O1         1.7932    3.9252    8.4654 O.3       1 RES1    0.0000
      2 O2         3.2487    5.8502   12.3008 O.3       1 RES1    0.0000
      3 O3         4.2730    3.8749   12.2887 O.2       1 RES1    0.0000
      4 N1         2.8791    3.6142    9.3761 N.3       1 RES1    0.0000
      5 C1         0.9439    2.7526    8.4630 C.3       1 RES1    0.0000
      6 H1         1.3794    2.0250    7.9324 H         1 RES1    0.0000
      7 C2         0.9113    2.3590    9.9380 C.3       1 RES1    0.0000
      8 H2         0.8970    1.3743   10.0405 H         1 RES1    0.0000
      9 H3         0.1152    2.7399   10.3877 H         1 RES1    0.0000
     10 C3         2.2089    2.9520   10.5226 C.3       1 RES1    0.0000
     11 H4         2.7878    2.2174   10.8751 H         1 RES1    0.0000
     12 C4         1.9602    3.9806   11.6144 C.3       1 RES1    0.0000
     13 H5         1.4123    4.7296   11.2403 H         1 RES1    0.0000
     14 C5         1.2360    3.3894   12.8357 C.3       1 RES1    0.0000
     15 H6         1.7398    2.6191   13.1721 H         1 RES1    0.0000
     16 H7         0.3358    3.1022   12.5731 H         1 RES1    0.0000
     17 H8         1.1701    4.0696   13.5372 H         1 RES1    0.0000
     18 C6         3.2826    4.5233   12.0821 C.2       1 RES1    0.0000
     19 C7         4.4614    6.4183   12.8321 C.3       1 RES1    0.0000
     20 H9         4.7474    5.9022   13.6146 H         1 RES1    0.0000
     21 H10        4.2985    7.3481   13.0966 H         1 RES1    0.0000
     22 H11        5.1619    6.3911   12.1486 H         1 RES1    0.0000
     23 C8        -0.3888    3.0826    7.8641 C.ar      1 RES1    0.0000
     24 C9        -0.9914    2.1868    6.9971 C.ar      1 RES1    0.0000
     25 H12       -0.5341    1.3910    6.7506 H         1 RES1    0.0000
     26 C10       -2.2511    2.4405    6.4880 C.ar      1 RES1    0.0000
     27 H13       -2.6561    1.8169    5.8962 H         1 RES1    0.0000
     28 C11       -2.9278    3.5969    6.8370 C.ar      1 RES1    0.0000
     29 H14       -3.7956    3.7674    6.4898 H         1 RES1    0.0000
     30 C12       -2.3275    4.5042    7.6950 C.ar      1 RES1    0.0000
     31 H15       -2.7850    5.3017    7.9342 H         1 RES1    0.0000
     32 C13       -1.0645    4.2534    8.2058 C.ar      1 RES1    0.0000
     33 H16       -0.6574    4.8816    8.7904 H         1 RES1    0.0000
     34 H17        3.3281    2.9647    8.9037 H         1 RES1    0.0000
     35 O4         5.4177    1.7522   17.4389 O.3       2 RES2    0.0000
     36 O5         8.7397   -0.0618   15.1194 O.3       2 RES2    0.0000
     37 O6         9.6269    1.9239   15.5507 O.2       2 RES2    0.0000
     38 N2         6.8337    2.0903   17.3146 N.3       2 RES2    0.0000
     39 C14        4.7115    2.9421   17.0268 C.3       2 RES2    0.0000
     40 H18        4.7495    3.6223   17.7589 H         2 RES2    0.0000
     41 C15        5.5209    3.4461   15.8162 C.3       2 RES2    0.0000
     42 H19        5.5792    4.4343   15.8144 H         2 RES2    0.0000
     43 H20        5.1138    3.1444   14.9654 H         2 RES2    0.0000
     44 C16        6.9166    2.8058   16.0231 C.3       2 RES2    0.0000
     45 H21        7.6062    3.5276   16.0878 H         2 RES2    0.0000
     46 C17        7.3098    1.8279   14.9205 C.3       2 RES2    0.0000
     47 H22        6.6450    1.0818   14.8881 H         2 RES2    0.0000
     48 C18        7.3864    2.4966   13.5462 C.3       2 RES2    0.0000
     49 H23        6.4990    2.8289   13.2944 H         2 RES2    0.0000
     50 H24        7.6910    1.8435   12.8807 H         2 RES2    0.0000
     51 H25        8.0174    3.2450   13.5804 H         2 RES2    0.0000
     52 C19        8.6736    1.2656   15.2353 C.2       2 RES2    0.0000
     53 C20       10.0667   -0.6207   15.3342 C.3       2 RES2    0.0000
     54 H26       10.6870   -0.2554   14.6687 H         2 RES2    0.0000
     55 H27       10.0282   -1.5962   15.2442 H         2 RES2    0.0000
     56 H28       10.3772   -0.3872   16.2335 H         2 RES2    0.0000
     57 C21        3.2762    2.6122   16.7210 C.ar      2 RES2    0.0000
     58 C22        2.9261    1.4193   16.1220 C.ar      2 RES2    0.0000
     59 H29        3.5929    0.7663   15.9440 H         2 RES2    0.0000
     60 C23        1.6096    1.1708   15.7803 C.ar      2 RES2    0.0000
     61 H30        1.3786    0.3548   15.3522 H         2 RES2    0.0000
     62 C24        0.6252    2.1065   16.0609 C.ar      2 RES2    0.0000
     63 H31       -0.2782    1.9366   15.8216 H         2 RES2    0.0000
     64 C25        0.9666    3.2791   16.6850 C.ar      2 RES2    0.0000
     65 H32        0.2942    3.9182   16.8865 H         2 RES2    0.0000
     66 C26        2.2915    3.5397   17.0232 C.ar      2 RES2    0.0000
     67 H33        2.5194    4.3517   17.4621 H         2 RES2    0.0000
     68 H34        6.9049    2.7220   18.0053 H         2 RES2    0.0000
@<TRIPOS>BOND
     1    1    4 1
     2    2   18 1
     3    3   18 2
     4    4   10 1
     5    5    1 1
     6    6    5 1
     7    7    5 1
     8    8    7 1
     9    9    7 1
    10   10    7 1
    11   11   10 1
    12   12   10 1
    13   13   12 1
    14   14   12 1
    15   15   14 1
    16   16   14 1
    17   17   14 1
    18   18   12 1
    19   19    2 1
    20   20   19 1
    21   21   19 1
    22   22   19 1
    23   23    5 1
    24   24   23 ar
    25   25   24 1
    26   26   24 ar
    27   27   26 1
    28   28   26 ar
    29   29   28 1
    30   30   28 ar
    31   31   30 1
    32   32   23 ar
    33   33   32 1
    34   34    4 1
    35   35   38 1
    36   36   52 1
    37   37   52 2
    38   38   44 1
    39   39   35 1
    40   40   39 1
    41   41   39 1
    42   42   41 1
    43   43   41 1
    44   44   41 1
    45   45   44 1
    46   46   44 1
    47   47   46 1
    48   48   46 1
    49   49   48 1
    50   50   48 1
    51   51   48 1
    52   52   46 1
    53   53   36 1
    54   54   53 1
    55   55   53 1
    56   56   53 1
    57   57   39 1
    58   58   57 ar
    59   59   58 1
    60   60   58 ar
    61   61   60 1
    62   62   60 ar
    63   63   62 1
    64   64   62 ar
    65   65   64 1
    66   66   57 ar
    67   67   66 1
    68   68   38 1
    69   30   32 ar
    70   64   66 ar
@<TRIPOS>SUBSTRUCTURE
     1 RES1 1
     2 RES2 35

@<TRIPOS>CRYSIN
  12.2830    5.7791   18.7551  90.0000 106.4510  90.0000   4 1

