# MOL2 file generated by ConQuest
# Please check atom types

@<TRIPOS>MOLECULE
YIYLEZ
   122   108     3
SMALL
NO_CHARGES
****
Generated from CSD

@<TRIPOS>ATOM
      1 N1         0.0700    2.2566    1.1591 N.pl3     1 RES1    0.0000
      2 O1         0.2843    2.3575   -0.0883 O.2       1 RES1    0.0000
      3 C1        -0.5838    3.4542    1.8070 C.3       1 RES1    0.0000
      4 C2        -1.6355    2.9225    2.7952 C.3       1 RES1    0.0000
      5 N2        -0.9561    1.9467    3.7306 N.pl3     1 RES1    0.0000
      6 O2        -1.4424    1.9041    4.9019 O.2       1 RES1    0.0000
      7 C3         0.5466    4.2299    2.4787 C.3       1 RES1    0.0000
      8 H1         1.1760    4.5312    1.8050 H         1 RES1    0.0000
      9 H2         1.0017    3.6540    3.1112 H         1 RES1    0.0000
     10 H3         0.1795    4.9973    2.9457 H         1 RES1    0.0000
     11 O3         0.1942   -0.0731    5.3434 O.2       1 RES1    0.0000
     12 N3         1.8649   -1.9093    4.3385 N.3       1 RES1    0.0000
     13 H4         1.7739   -1.8617    5.2025 H         1 RES1    0.0000
     14 C4        -1.2203    4.2868    0.7128 C.3       1 RES1    0.0000
     15 H5        -1.9356    3.7809    0.2952 H         1 RES1    0.0000
     16 H6        -0.5523    4.5107    0.0470 H         1 RES1    0.0000
     17 H7        -1.5815    5.1019    1.0960 H         1 RES1    0.0000
     18 O4         1.8086    0.2867    0.1926 O.2       1 RES1    0.0000
     19 N4         2.7892   -1.6640    1.7589 N.pl3     1 RES1    0.0000
     20 H8         2.9314   -1.7147    0.9014 H         1 RES1    0.0000
     21 C5        -2.7460    2.1280    2.1125 C.3       1 RES1    0.0000
     22 H9        -2.3547    1.4214    1.5746 H         1 RES1    0.0000
     23 H10       -3.2632    2.7182    1.5433 H         1 RES1    0.0000
     24 H11       -3.3256    1.7392    2.7869 H         1 RES1    0.0000
     25 C6        -2.2180    4.0549    3.6527 C.3       1 RES1    0.0000
     26 H12       -1.4955    4.5480    4.0708 H         1 RES1    0.0000
     27 H13       -2.7924    3.6788    4.3369 H         1 RES1    0.0000
     28 H14       -2.7342    4.6530    3.0911 H         1 RES1    0.0000
     29 C7        -0.0142    1.1366    3.2781 C.2       1 RES1    0.0000
     30 C8         0.5050    0.0560    4.1564 C.2       1 RES1    0.0000
     31 C9         1.4211   -0.9016    3.5467 C.2       1 RES1    0.0000
     32 C10        2.5002   -3.0831    3.7216 C.3       1 RES1    0.0000
     33 C11        1.4153   -3.9348    3.0390 C.3       1 RES1    0.0000
     34 H15        0.7915   -4.2603    3.7062 H         1 RES1    0.0000
     35 H16        1.8308   -4.6885    2.5901 H         1 RES1    0.0000
     36 H17        0.9403   -3.3937    2.3888 H         1 RES1    0.0000
     37 C12        3.1555   -3.8780    4.8388 C.3       1 RES1    0.0000
     38 H18        2.4745   -4.1958    5.4508 H         1 RES1    0.0000
     39 H19        3.7806   -3.3103    5.3166 H         1 RES1    0.0000
     40 H20        3.6306   -4.6351    4.4622 H         1 RES1    0.0000
     41 C13        3.5413   -2.5279    2.6838 C.3       1 RES1    0.0000
     42 C14        4.1821   -3.6424    1.8600 C.3       1 RES1    0.0000
     43 H21        4.8153   -3.2587    1.2324 H         1 RES1    0.0000
     44 H22        3.4933   -4.1203    1.3711 H         1 RES1    0.0000
     45 H23        4.6444   -4.2569    2.4514 H         1 RES1    0.0000
     46 C15        4.6288   -1.7044    3.3548 C.3       1 RES1    0.0000
     47 H24        5.2498   -1.3817    2.6840 H         1 RES1    0.0000
     48 H25        5.1034   -2.2573    3.9947 H         1 RES1    0.0000
     49 H26        4.2266   -0.9508    3.8135 H         1 RES1    0.0000
     50 C16        1.8697   -0.7845    2.2499 C.2       1 RES1    0.0000
     51 C17        1.3910    0.2354    1.3400 C.2       1 RES1    0.0000
     52 C18        0.4301    1.2350    1.9025 C.2       1 RES1    0.0000
     53 N5         0.2245   -6.3853    9.6030 N.pl3     2 RES2    0.0000
     54 O5         0.1815   -6.6796   10.8432 O.2       2 RES2    0.0000
     55 C19        1.2778   -7.0910    8.7522 C.3       2 RES2    0.0000
     56 C20        1.6468   -8.3000    9.5193 C.3       2 RES2    0.0000
     57 H27        0.8665   -8.8720    9.6155 H         2 RES2    0.0000
     58 H28        1.9652   -8.0417   10.3961 H         2 RES2    0.0000
     59 H29        2.3437   -8.7815    9.0496 H         2 RES2    0.0000
     60 C21        2.5562   -6.4424    8.7231 C.3       2 RES2    0.0000
     61 H30        3.2533   -6.9840    8.3205 H         2 RES2    0.0000
     62 H31        2.8138   -6.2121    9.6312 H         2 RES2    0.0000
     63 H32        2.4374   -5.6312    8.2064 H         2 RES2    0.0000
     64 C22        0.8744   -7.2706    7.5533 C.3       2 RES2    0.0000
     65 C23        1.6659   -8.0321    6.4752 C.3       2 RES2    0.0000
     66 H33        2.4975   -7.5748    6.2963 H         2 RES2    0.0000
     67 H34        1.1377   -8.0832    5.6633 H         2 RES2    0.0000
     68 H35        1.8530   -8.9342    6.7906 H         2 RES2    0.0000
     69 O6         0.2664   -6.0114    5.5579 O.2       2 RES2    0.0000
     70 N6         0.2351   -6.0743    6.8371 N.pl3     2 RES2    0.0000
     71 O7        -0.1672   -3.3993    5.9796 O.2       2 RES2    0.0000
     72 N7        -1.7877   -1.7679    7.3708 N.3       2 RES2    0.0000
     73 H36       -1.6718   -1.6181    6.5222 H         2 RES2    0.0000
     74 O8        -1.7103   -4.8132   10.9488 O.2       2 RES2    0.0000
     75 N8        -2.7053   -2.5528    9.8396 N.pl3     2 RES2    0.0000
     76 H37       -2.8249   -2.6800   10.6914 H         2 RES2    0.0000
     77 C24       -0.2026   -5.1145    7.6255 C.2       2 RES2    0.0000
     78 C25       -0.5424   -3.7905    7.0825 C.2       2 RES2    0.0000
     79 C26       -1.3896   -2.9464    7.9103 C.2       2 RES2    0.0000
     80 C27       -2.4110   -0.7460    8.2131 C.3       2 RES2    0.0000
     81 C28       -3.0680    0.2595    7.2865 C.3       2 RES2    0.0000
     82 H38       -2.3892    0.6877    6.7414 H         2 RES2    0.0000
     83 H39       -3.5301    0.9309    7.8127 H         2 RES2    0.0000
     84 H40       -3.7036   -0.1954    6.7123 H         2 RES2    0.0000
     85 C29       -1.2980   -0.0628    9.0199 C.3       2 RES2    0.0000
     86 H41       -0.6846    0.3816    8.4122 H         2 RES2    0.0000
     87 H42       -0.8166   -0.7282    9.5350 H         2 RES2    0.0000
     88 H43       -1.6884    0.5913    9.6200 H         2 RES2    0.0000
     89 C30       -3.4522   -1.4895    9.1373 C.3       2 RES2    0.0000
     90 C31       -4.0425   -0.5612   10.1962 C.3       2 RES2    0.0000
     91 H44       -4.6731   -1.0547   10.7428 H         2 RES2    0.0000
     92 H45       -4.4991    0.1764    9.7609 H         2 RES2    0.0000
     93 H46       -3.3298   -0.2154   10.7562 H         2 RES2    0.0000
     94 C32       -4.5754   -2.1221    8.3321 C.3       2 RES2    0.0000
     95 H47       -5.1917   -2.5696    8.9333 H         2 RES2    0.0000
     96 H48       -4.2038   -2.7672    7.7099 H         2 RES2    0.0000
     97 H49       -5.0477   -1.4332    7.8396 H         2 RES2    0.0000
     98 C33       -1.8338   -3.3298    9.1532 C.2       2 RES2    0.0000
     99 C34       -1.3402   -4.5364    9.8186 C.2       2 RES2    0.0000
    100 C35       -0.4032   -5.3765    9.0380 C.2       2 RES2    0.0000
    101 C36       -0.8208   -8.1971    7.7367 C.3       2 RES2    0.0000
    102 H50       -1.3380   -7.6768    8.3719 H         2 RES2    0.0000
    103 H51       -0.6185   -9.0646    8.1192 H         2 RES2    0.0000
    104 H52       -1.3391   -8.3162    6.9225 H         2 RES2    0.0000
    105 C37        2.4928   -6.1515    8.4882 Du        3 SUP3    0.0000
    106 H53        3.1547   -6.6197    7.9514 Du        3 SUP3    0.0000
    107 H54        2.8920   -5.8910    9.3337 Du        3 SUP3    0.0000
    108 H55        2.1965   -5.3600    8.0140 Du        3 SUP3    0.0000
    109 C38        0.5007   -7.4499    7.4057 Du        3 SUP3    0.0000
    110 C39        1.3144   -8.2488    6.4193 Du        3 SUP3    0.0000
    111 H56        2.1721   -7.8191    6.2851 Du        3 SUP3    0.0000
    112 H57        0.8399   -8.2988    5.5761 Du        3 SUP3    0.0000
    113 H58        1.4521   -9.1450    6.7660 Du        3 SUP3    0.0000
    114 C40        1.0134   -7.3735    8.7544 Du        3 SUP3    0.0000
    115 C41        1.3356   -8.6427    9.5059 Du        3 SUP3    0.0000
    116 H59        0.5403   -9.1957    9.5641 Du        3 SUP3    0.0000
    117 H60        1.6403   -8.4186   10.4006 Du        3 SUP3    0.0000
    118 H61        2.0325   -9.1274    9.0384 Du        3 SUP3    0.0000
    119 C42       -0.7597   -8.1696    7.4571 Du        3 SUP3    0.0000
    120 H62       -1.4067   -7.7328    8.0364 Du        3 SUP3    0.0000
    121 H63       -0.6436   -9.0890    7.7434 Du        3 SUP3    0.0000
    122 H64       -1.0863   -8.1541    6.5423 Du        3 SUP3    0.0000
@<TRIPOS>BOND
     1    1    2 1
     2    3    1 1
     3    4    3 1
     4    5    4 1
     5    6    5 1
     6    7    3 1
     7    8    7 1
     8    9    7 1
     9   10    7 1
    10   11   30 2
    11   12   13 1
    12   14    3 1
    13   15   14 1
    14   16   14 1
    15   17   14 1
    16   18   51 2
    17   19   20 1
    18   21    4 1
    19   22   21 1
    20   23   21 1
    21   24   21 1
    22   25    4 1
    23   26   25 1
    24   27   25 1
    25   28   25 1
    26   29    5 1
    27   30   29 1
    28   31   12 1
    29   32   12 1
    30   33   32 1
    31   34   33 1
    32   35   33 1
    33   36   33 1
    34   37   32 1
    35   38   37 1
    36   39   37 1
    37   40   37 1
    38   41   19 1
    39   42   41 1
    40   43   42 1
    41   44   42 1
    42   45   42 1
    43   46   41 1
    44   47   46 1
    45   48   46 1
    46   49   46 1
    47   50   19 1
    48   51   50 1
    49   52    1 1
    50   53   54 1
    51   55   53 1
    52   56   55 1
    53   57   56 1
    54   58   56 1
    55   59   56 1
    56   60   55 1
    57   61   60 1
    58   62   60 1
    59   63   60 1
    60   64   55 1
    61   65   64 1
    62   66   65 1
    63   67   65 1
    64   68   65 1
    65   69   70 1
    66   70   64 1
    67   71   78 2
    68   72   73 1
    69   74   99 2
    70   75   76 1
    71   77   70 1
    72   78   77 1
    73   79   72 1
    74   80   72 1
    75   81   80 1
    76   82   81 1
    77   83   81 1
    78   84   81 1
    79   85   80 1
    80   86   85 1
    81   87   85 1
    82   88   85 1
    83   89   75 1
    84   90   89 1
    85   91   90 1
    86   92   90 1
    87   93   90 1
    88   94   89 1
    89   95   94 1
    90   96   94 1
    91   97   94 1
    92   98   75 1
    93   99   98 1
    94  100   53 1
    95  101   64 1
    96  102  101 1
    97  103  101 1
    98  104  101 1
    99   29   52 2
   100   30   31 1
   101   31   50 2
   102   32   41 1
   103   51   52 1
   104   77  100 2
   105   78   79 1
   106   79   98 2
   107   80   89 1
   108   99  100 1
@<TRIPOS>SUBSTRUCTURE
     1 RES1 1
     2 RES2 53
     3 SUP3 105

@<TRIPOS>CRYSIN
   6.8040   11.6850   22.5220  83.4400  88.4190  89.2180   2 1

