# MOL2 file generated by ConQuest
# Please check atom types

@<TRIPOS>MOLECULE
YIZGUK
    77    81     1
SMALL
NO_CHARGES
****
Generated from CSD

@<TRIPOS>ATOM
      1 O1         0.9403    2.4002    6.0712 O.3       1 RES1    0.0000
      2 O2         4.5469    1.6337    2.9640 O.3       1 RES1    0.0000
      3 O3         1.3062    1.7975    2.0878 O.2       1 RES1    0.0000
      4 N1         1.7314    3.3931    5.4036 N.3       1 RES1    0.0000
      5 C1         2.6316    2.6288    4.5095 C.3       1 RES1    0.0000
      6 H1         2.6841    3.0898    3.6463 H         1 RES1    0.0000
      7 C2         1.9421    1.2505    4.2990 C.3       1 RES1    0.0000
      8 H2         2.4613    0.5404    4.7309 H         1 RES1    0.0000
      9 C3         0.5993    1.4582    5.0362 C.3       1 RES1    0.0000
     10 H3        -0.0438    1.8713    4.4236 H         1 RES1    0.0000
     11 C4         0.8891    4.3829    4.8033 C.ar      1 RES1    0.0000
     12 C5        -0.4038    4.5802    5.2554 C.ar      1 RES1    0.0000
     13 H4        -0.7565    4.0230    5.9105 H         1 RES1    0.0000
     14 C6        -1.1720    5.6082    4.7327 C.ar      1 RES1    0.0000
     15 H5        -2.0403    5.7354    5.0421 H         1 RES1    0.0000
     16 C7        -0.6695    6.4425    3.7640 C.ar      1 RES1    0.0000
     17 H6        -1.1934    7.1238    3.4112 H         1 RES1    0.0000
     18 C8         0.6097    6.2563    3.3256 C.ar      1 RES1    0.0000
     19 H7         0.9544    6.8180    2.6694 H         1 RES1    0.0000
     20 C9         1.4021    5.2444    3.8419 C.ar      1 RES1    0.0000
     21 H8         2.2782    5.1419    3.5454 H         1 RES1    0.0000
     22 C10        4.0289    2.4880    5.0706 C.ar      1 RES1    0.0000
     23 C11        5.0060    1.9751    4.2087 C.ar      1 RES1    0.0000
     24 C12        6.3128    1.8533    4.6473 C.ar      1 RES1    0.0000
     25 H9         6.9688    1.5323    4.0713 H         1 RES1    0.0000
     26 C13        6.6421    2.2091    5.9407 C.ar      1 RES1    0.0000
     27 H10        7.5237    2.1152    6.2219 H         1 RES1    0.0000
     28 C14        5.7081    2.6951    6.8275 C.ar      1 RES1    0.0000
     29 C15        4.3884    2.8299    6.3489 C.ar      1 RES1    0.0000
     30 H11        3.7367    3.1630    6.9227 H         1 RES1    0.0000
     31 C16        5.4471    1.0659    2.0330 C.3       1 RES1    0.0000
     32 H12        4.9764    0.8464    1.2265 H         1 RES1    0.0000
     33 H13        5.8332    0.2695    2.4059 H         1 RES1    0.0000
     34 H14        6.1430    1.6973    1.8348 H         1 RES1    0.0000
     35 C17        6.0566    3.1145    8.2606 C.3       1 RES1    0.0000
     36 C18        7.5080    3.0085    8.5717 C.3       1 RES1    0.0000
     37 H15        8.0090    3.5415    7.9496 H         1 RES1    0.0000
     38 H16        7.7848    2.0910    8.5030 H         1 RES1    0.0000
     39 H17        7.6684    3.3234    9.4645 H         1 RES1    0.0000
     40 C19        5.7993    4.7846    8.3656 C.3       1 RES1    0.0000
     41 H18        5.0275    5.0238    7.8475 H         1 RES1    0.0000
     42 H19        6.5687    5.2494    8.0281 H         1 RES1    0.0000
     43 H20        5.6571    5.0298    9.2840 H         1 RES1    0.0000
     44 C20        5.1577    2.5725    9.2448 C.3       1 RES1    0.0000
     45 H21        4.2318    2.7390    9.0053 H         1 RES1    0.0000
     46 H22        5.3329    2.9419   10.1239 H         1 RES1    0.0000
     47 C21        5.4705    1.1522    9.1918 C.3       1 RES1    0.0000
     48 H23        4.9683    0.7389    8.4853 H         1 RES1    0.0000
     49 H24        5.2424    0.7434   10.0297 H         1 RES1    0.0000
     50 H25        6.4097    1.0387    9.0250 H         1 RES1    0.0000
     51 C22        1.7462    0.9398    2.8315 C.2       1 RES1    0.0000
     52 C23        2.0600   -0.4118    2.3441 C.2       1 RES1    0.0000
     53 H26        2.4413   -1.0296    2.9263 H         1 RES1    0.0000
     54 C24        1.8111   -0.7692    1.0891 C.2       1 RES1    0.0000
     55 H27        1.4422   -0.1060    0.5506 H         1 RES1    0.0000
     56 C25        2.0367   -2.0516    0.4400 C.ar      1 RES1    0.0000
     57 C26        1.4957   -2.2681   -0.8199 C.ar      1 RES1    0.0000
     58 H28        1.0335   -1.5807   -1.2428 H         1 RES1    0.0000
     59 C27        1.6303   -3.4855   -1.4573 C.ar      1 RES1    0.0000
     60 H29        1.2410   -3.6232   -2.2911 H         1 RES1    0.0000
     61 C28        2.3406   -4.4923   -0.8530 C.ar      1 RES1    0.0000
     62 H30        2.4428   -5.3130   -1.2801 H         1 RES1    0.0000
     63 C29        2.9006   -4.2864    0.3829 C.ar      1 RES1    0.0000
     64 H31        3.3883   -4.9678    0.7867 H         1 RES1    0.0000
     65 C30        2.7465   -3.0812    1.0304 C.ar      1 RES1    0.0000
     66 H32        3.1226   -2.9601    1.8721 H         1 RES1    0.0000
     67 C31       -0.0245    0.2371    5.6619 C.ar      1 RES1    0.0000
     68 C32       -0.6396   -0.7041    4.8510 C.ar      1 RES1    0.0000
     69 H33       -0.6697   -0.5663    3.9326 H         1 RES1    0.0000
     70 C33       -1.2061   -1.8381    5.3828 C.ar      1 RES1    0.0000
     71 H34       -1.5946   -2.4680    4.8196 H         1 RES1    0.0000
     72 C34       -1.1990   -2.0410    6.7133 C.ar      1 RES1    0.0000
     73 H35       -1.5910   -2.8056    7.0685 H         1 RES1    0.0000
     74 C35       -0.6142   -1.1189    7.5493 C.ar      1 RES1    0.0000
     75 H36       -0.6200   -1.2552    8.4696 H         1 RES1    0.0000
     76 C36       -0.0097    0.0257    7.0147 C.ar      1 RES1    0.0000
     77 H37        0.4023    0.6405    7.5779 H         1 RES1    0.0000
@<TRIPOS>BOND
     1    1    4 1
     2    2   23 1
     3    3   51 2
     4    4    5 1
     5    5    6 1
     6    7    5 1
     7    8    7 1
     8    9    1 1
     9   10    9 1
    10   11    4 1
    11   12   11 ar
    12   13   12 1
    13   14   12 ar
    14   15   14 1
    15   16   14 ar
    16   17   16 1
    17   18   16 ar
    18   19   18 1
    19   20   11 ar
    20   21   20 1
    21   22    5 1
    22   23   22 ar
    23   24   23 ar
    24   25   24 1
    25   26   24 ar
    26   27   26 1
    27   28   26 ar
    28   29   22 ar
    29   30   29 1
    30   31    2 1
    31   32   31 1
    32   33   31 1
    33   34   31 1
    34   35   28 1
    35   36   35 1
    36   37   36 1
    37   38   36 1
    38   39   36 1
    39   40   35 1
    40   41   40 1
    41   42   40 1
    42   43   40 1
    43   44   35 1
    44   45   44 1
    45   46   44 1
    46   47   44 1
    47   48   47 1
    48   49   47 1
    49   50   47 1
    50   51    7 1
    51   52   51 1
    52   53   52 1
    53   54   52 2
    54   55   54 1
    55   56   54 1
    56   57   56 ar
    57   58   57 1
    58   59   57 ar
    59   60   59 1
    60   61   59 ar
    61   62   61 1
    62   63   61 ar
    63   64   63 1
    64   65   56 ar
    65   66   65 1
    66   67    9 1
    67   68   67 ar
    68   69   68 1
    69   70   68 ar
    70   71   70 1
    71   72   70 ar
    72   73   72 1
    73   74   72 ar
    74   75   74 1
    75   76   67 ar
    76   77   76 1
    77    7    9 1
    78   18   20 ar
    79   28   29 ar
    80   63   65 ar
    81   74   76 ar
@<TRIPOS>SUBSTRUCTURE
     1 RES1 1

@<TRIPOS>CRYSIN
  10.1970   15.1410   19.7430  90.0000  96.3000  90.0000 231 1

