# MOL2 file generated by ConQuest
# Please check atom types

@<TRIPOS>MOLECULE
YIZHOF
    50    49     2
SMALL
NO_CHARGES
****
Generated from CSD

@<TRIPOS>ATOM
      1 O1         5.0573    9.6054    1.4583 O.3       1 RES1    0.0000
      2 N1         4.3973   10.8444    1.2158 N.3       1 RES1    0.0000
      3 C1         5.1779   11.8075    1.9860 C.3       1 RES1    0.0000
      4 H1         4.6206   12.5774    2.2248 H         1 RES1    0.0000
      5 C2         5.5838   11.0365    3.2508 C.3       1 RES1    0.0000
      6 H2         6.5199   11.2254    3.4708 H         1 RES1    0.0000
      7 C3         5.4259    9.5592    2.8553 C.3       1 RES1    0.0000
      8 H3         4.7061    9.1467    3.3783 H         1 RES1    0.0000
      9 C4         2.9786   10.7651    1.4234 C.ar      1 RES1    0.0000
     10 C5         2.2229   11.9177    1.3460 C.ar      1 RES1    0.0000
     11 H4         2.6396   12.7459    1.2733 H         1 RES1    0.0000
     12 C6         0.8381   11.8361    1.3781 C.ar      1 RES1    0.0000
     13 H5         0.3276   12.6118    1.3413 H         1 RES1    0.0000
     14 C7         0.2188   10.6146    1.4621 C.ar      1 RES1    0.0000
     15 H6        -0.7098   10.5639    1.4697 H         1 RES1    0.0000
     16 C8         0.9659    9.4765    1.5357 C.ar      1 RES1    0.0000
     17 H7         0.5443    8.6501    1.5980 H         1 RES1    0.0000
     18 C9         2.3419    9.5418    1.5178 C.ar      1 RES1    0.0000
     19 H8         2.8422    8.7607    1.5697 H         1 RES1    0.0000
     20 C10        6.4005   12.2711    1.2035 C.ar      1 RES1    0.0000
     21 C11        7.3230   13.1011    1.8246 C.ar      1 RES1    0.0000
     22 H9         7.1897   13.3675    2.7062 H         1 RES1    0.0000
     23 C12        8.4451   13.5361    1.1299 C.ar      1 RES1    0.0000
     24 H10        9.0622   14.0924    1.5480 H         1 RES1    0.0000
     25 C13        8.6430   13.1519   -0.1642 C.ar      1 RES1    0.0000
     26 H11        9.4017   13.4346   -0.6202 H         1 RES1    0.0000
     27 C14        7.7365   12.3544   -0.7891 C.ar      1 RES1    0.0000
     28 H12        7.8667   12.1116   -1.6773 H         1 RES1    0.0000
     29 C15        6.6198   11.9032   -0.1057 C.ar      1 RES1    0.0000
     30 H13        6.0115   11.3468   -0.5352 H         1 RES1    0.0000
     31 N2         4.6968   11.3669    4.4421 N.pl3     1 RES1    0.0000
     32 O2         4.1264   12.4632    4.4826 O.2       1 RES1    0.0000
     33 O3         4.7255   10.5476    5.3661 O.2       1 RES1    0.0000
     34 C16        6.6882    8.7501    2.9884 C.ar      1 RES1    0.0000
     35 C17        7.5367    8.5468    1.9209 C.ar      1 RES1    0.0000
     36 H14        7.3352    8.9256    1.0959 H         1 RES1    0.0000
     37 C18        8.6803    7.7875    2.0587 C.ar      1 RES1    0.0000
     38 H15        9.2425    7.6407    1.3337 H         1 RES1    0.0000
     39 C19        8.9688    7.2528    3.2839 C.ar      1 RES1    0.0000
     40 C20        8.1606    7.4467    4.3684 C.ar      1 RES1    0.0000
     41 H16        8.3822    7.0788    5.1934 H         1 RES1    0.0000
     42 C21        7.0132    8.1934    4.2202 C.ar      1 RES1    0.0000
     43 H17        6.4507    8.3257    4.9489 H         1 RES1    0.0000
     44 N3        10.1686    6.4094    3.4292 N.pl3     1 RES1    0.0000
     45 O4        10.7978    6.1328    2.4164 O.2       1 RES1    0.0000
     46 O5        10.4452    5.9842    4.5346 O.2       1 RES1    0.0000
     47 O6         4.7760   12.5846    4.6422 Du        2 SUP2    0.0000
     48 O7         3.9144   10.5965    5.0122 Du        2 SUP2    0.0000
     49 O8         5.3088   11.0568    5.4747 Du        2 SUP2    0.0000
     50 O9         3.5133   11.7256    4.3939 Du        2 SUP2    0.0000
@<TRIPOS>BOND
     1    1    2 1
     2    2    3 1
     3    3    4 1
     4    5    3 1
     5    6    5 1
     6    7    1 1
     7    8    7 1
     8    9    2 1
     9   10    9 ar
    10   11   10 1
    11   12   10 ar
    12   13   12 1
    13   14   12 ar
    14   15   14 1
    15   16   14 ar
    16   17   16 1
    17   18    9 ar
    18   19   18 1
    19   20    3 1
    20   21   20 ar
    21   22   21 1
    22   23   21 ar
    23   24   23 1
    24   25   23 ar
    25   26   25 1
    26   27   25 ar
    27   28   27 1
    28   29   20 ar
    29   30   29 1
    30   31    5 1
    31   32   31 2
    32   33   31 2
    33   34    7 1
    34   35   34 ar
    35   36   35 1
    36   37   35 ar
    37   38   37 1
    38   39   37 ar
    39   40   39 ar
    40   41   40 1
    41   42   34 ar
    42   43   42 1
    43   44   39 1
    44   45   44 2
    45   46   44 2
    46    5    7 1
    47   16   18 ar
    48   27   29 ar
    49   40   42 ar
@<TRIPOS>SUBSTRUCTURE
     1 RES1 1
     2 SUP2 47

@<TRIPOS>CRYSIN
  11.1400   18.1230   10.1100  90.0000 110.9900  90.0000 231 1

