# MOL2 file generated by ConQuest
# Please check atom types

@<TRIPOS>MOLECULE
YOCSEP
    60    65     1
SMALL
NO_CHARGES
****
Generated from CSD

@<TRIPOS>ATOM
      1 O1         9.9307    9.8841    3.5194 O.3       1 RES1    0.0000
      2 O2         7.2878   10.8762    2.3271 O.3       1 RES1    0.0000
      3 N1         3.3167   14.6493    1.3894 N.pl3     1 RES1    0.0000
      4 C1         7.1847   10.0476    5.9802 C.ar      1 RES1    0.0000
      5 C2         7.2649    8.9358    3.6948 C.ar      1 RES1    0.0000
      6 C3         7.8976    9.7178    4.7930 C.ar      1 RES1    0.0000
      7 C4         6.2536   11.7500    2.0866 C.ar      1 RES1    0.0000
      8 C5         9.1900   10.1307    4.6798 C.ar      1 RES1    0.0000
      9 C6         5.8386    9.6928    6.1940 C.ar      1 RES1    0.0000
     10 H1         5.3772    9.2293    5.5318 H         1 RES1    0.0000
     11 C7         4.9379   11.4570    2.3383 C.ar      1 RES1    0.0000
     12 H2         4.7012   10.6162    2.6598 H         1 RES1    0.0000
     13 C8         7.3333    6.8116    4.9875 C.ar      1 RES1    0.0000
     14 H3         7.6294    7.2718    5.7401 H         1 RES1    0.0000
     15 O3         3.6616   15.7313    0.9479 O.2       1 RES1    0.0000
     16 C9         7.0521    7.5219    3.8101 C.ar      1 RES1    0.0000
     17 C10        4.3458   13.6408    1.6433 C.ar      1 RES1    0.0000
     18 C11        6.2941    7.4862    1.4992 C.ar      1 RES1    0.0000
     19 H4         5.9671    7.0163    0.7657 H         1 RES1    0.0000
     20 C12        6.9788    9.5253    2.4979 C.ar      1 RES1    0.0000
     21 C13       10.1492    8.5661    3.1746 C.ar      1 RES1    0.0000
     22 N2        10.6677    4.6325    1.8995 N.pl3     1 RES1    0.0000
     23 C14        5.6517   13.9440    1.3980 C.ar      1 RES1    0.0000
     24 H5         5.8852   14.7892    1.0854 H         1 RES1    0.0000
     25 C15        6.4838    8.8185    1.4006 C.ar      1 RES1    0.0000
     26 H6         6.2870    9.2616    0.6072 H         1 RES1    0.0000
     27 C16        5.1965   10.0165    7.3588 C.ar      1 RES1    0.0000
     28 H7         4.3095    9.7677    7.4837 H         1 RES1    0.0000
     29 C17       10.3965    7.5847    4.1082 C.ar      1 RES1    0.0000
     30 H8        10.4349    7.7978    5.0133 H         1 RES1    0.0000
     31 O4         2.1513   14.3575    1.6244 O.2       1 RES1    0.0000
     32 C18        6.5831    6.7997    2.6893 C.ar      1 RES1    0.0000
     33 C19        6.6259   12.9930    1.6146 C.ar      1 RES1    0.0000
     34 H9         7.5196   13.1865    1.4454 H         1 RES1    0.0000
     35 C20        7.8540   10.7844    6.9953 C.ar      1 RES1    0.0000
     36 C21        9.8373   10.8650    5.6648 C.ar      1 RES1    0.0000
     37 H10       10.7154   11.1422    5.5372 H         1 RES1    0.0000
     38 C22        3.9713   12.4055    2.1144 C.ar      1 RES1    0.0000
     39 H11        3.0766   12.2140    2.2783 H         1 RES1    0.0000
     40 C23       10.5868    6.2814    3.6887 C.ar      1 RES1    0.0000
     41 H12       10.7576    5.6046    4.3027 H         1 RES1    0.0000
     42 C24        9.1905   11.1739    6.8080 C.ar      1 RES1    0.0000
     43 H13        9.6317   11.6483    7.4743 H         1 RES1    0.0000
     44 C25       10.5192    6.0092    2.3495 C.ar      1 RES1    0.0000
     45 C26        6.4517    5.3929    2.7914 C.ar      1 RES1    0.0000
     46 H14        6.1609    4.9074    2.0540 H         1 RES1    0.0000
     47 O5        10.7886    3.7518    2.7123 O.2       1 RES1    0.0000
     48 C27        7.1530   11.0881    8.1782 C.ar      1 RES1    0.0000
     49 H15        7.5871   11.5565    8.8539 H         1 RES1    0.0000
     50 C28       10.3364    6.9882    1.4186 C.ar      1 RES1    0.0000
     51 H16       10.3385    6.7806    0.5118 H         1 RES1    0.0000
     52 C29       10.1497    8.2816    1.8326 C.ar      1 RES1    0.0000
     53 H17       10.0241    8.9589    1.2090 H         1 RES1    0.0000
     54 C30        6.7398    4.7491    3.9386 C.ar      1 RES1    0.0000
     55 H18        6.6449    3.8257    3.9884 H         1 RES1    0.0000
     56 O6        10.6685    4.4219    0.7046 O.2       1 RES1    0.0000
     57 C31        7.1775    5.4589    5.0442 C.ar      1 RES1    0.0000
     58 H19        7.3677    5.0067    5.8354 H         1 RES1    0.0000
     59 C32        5.8676   10.7167    8.3569 C.ar      1 RES1    0.0000
     60 H20        5.4292   10.9288    9.1494 H         1 RES1    0.0000
@<TRIPOS>BOND
     1    1    8 1
     2    2    7 1
     3    3   15 2
     4    4    6 ar
     5    5    6 1
     6    6    8 ar
     7    7   11 ar
     8    8   36 ar
     9    9    4 ar
    10   10    9 1
    11   11   12 1
    12   13   14 1
    13   16    5 ar
    14   17    3 1
    15   18   19 1
    16   20    2 1
    17   21    1 1
    18   22   44 1
    19   23   17 ar
    20   24   23 1
    21   25   18 ar
    22   26   25 1
    23   27    9 ar
    24   28   27 1
    25   29   21 ar
    26   30   29 1
    27   31    3 2
    28   32   16 ar
    29   33    7 ar
    30   34   33 1
    31   35    4 ar
    32   36   37 1
    33   38   11 ar
    34   39   38 1
    35   40   29 ar
    36   41   40 1
    37   42   35 ar
    38   43   42 1
    39   44   40 ar
    40   45   32 ar
    41   46   45 1
    42   47   22 2
    43   48   35 ar
    44   49   48 1
    45   50   44 ar
    46   51   50 1
    47   52   21 ar
    48   53   52 1
    49   54   45 ar
    50   55   54 1
    51   56   22 2
    52   57   13 ar
    53   58   57 1
    54   59   27 ar
    55   60   59 1
    56    5   20 ar
    57   13   16 ar
    58   17   38 ar
    59   18   32 ar
    60   20   25 ar
    61   23   33 ar
    62   36   42 ar
    63   48   59 ar
    64   50   52 ar
    65   54   57 ar
@<TRIPOS>SUBSTRUCTURE
     1 RES1 1

@<TRIPOS>CRYSIN
   7.6159   24.8100   13.5022  90.0000  95.7900  90.0000  14 1

