# MOL2 file generated by ConQuest
# Please check atom types

@<TRIPOS>MOLECULE
YOCWIX
   140   140     4
SMALL
NO_CHARGES
****
Generated from CSD

@<TRIPOS>ATOM
      1 O1        -1.7341   10.2900    7.5142 O.2       1 RES1    0.0000
      2 O2        -3.2733   11.1301    8.7946 O.2       1 RES1    0.0000
      3 O3        -7.9114   10.4860    7.5476 O.2       1 RES1    0.0000
      4 O4        -8.3727    9.3195    5.7763 O.2       1 RES1    0.0000
      5 O5        -1.7687   12.5234    3.4954 O.3       1 RES1    0.0000
      6 H1        -1.3515   11.8487    3.8935 H         1 RES1    0.0000
      7 O6        -0.0140    8.6171    2.4954 O.3       1 RES1    0.0000
      8 H2         0.5576    8.0441    2.7060 H         1 RES1    0.0000
      9 N1        -2.9006   10.5689    7.7644 N.pl3     1 RES1    0.0000
     10 N2        -7.5840    9.8840    6.5283 N.pl3     1 RES1    0.0000
     11 N3        -2.8441    9.7323    2.6772 N.3       1 RES1    0.0000
     12 C1        -4.4310    9.4450    4.5556 C.ar      1 RES1    0.0000
     13 C2        -3.4844    9.8313    5.5036 C.ar      1 RES1    0.0000
     14 H3        -2.5789    9.8435    5.2897 H         1 RES1    0.0000
     15 C3        -3.9130   10.1968    6.7668 C.ar      1 RES1    0.0000
     16 C4        -5.2422   10.2264    7.1484 C.ar      1 RES1    0.0000
     17 H4        -5.5075   10.4906    8.0000 H         1 RES1    0.0000
     18 C5        -6.1482    9.8387    6.1831 C.ar      1 RES1    0.0000
     19 C6        -5.7848    9.4446    4.9047 C.ar      1 RES1    0.0000
     20 H5        -6.4316    9.1842    4.2893 H         1 RES1    0.0000
     21 C7        -3.9880    8.9728    3.1884 C.3       1 RES1    0.0000
     22 H6        -3.7483    8.0335    3.2386 H         1 RES1    0.0000
     23 H7        -4.7292    9.0583    2.5678 H         1 RES1    0.0000
     24 C8        -3.2733   11.0607    2.2152 C.3       1 RES1    0.0000
     25 H8        -3.9718   11.3909    2.8025 H         1 RES1    0.0000
     26 H9        -3.6483   10.9806    1.3242 H         1 RES1    0.0000
     27 C9        -2.1367   12.0606    2.1868 C.3       1 RES1    0.0000
     28 H10       -1.3642   11.6494    1.7675 H         1 RES1    0.0000
     29 H11       -2.3982   12.8219    1.6438 H         1 RES1    0.0000
     30 C10       -2.1975    8.9713    1.5858 C.3       1 RES1    0.0000
     31 H12       -1.7312    9.5893    1.0004 H         1 RES1    0.0000
     32 H13       -2.8813    8.5246    1.0623 H         1 RES1    0.0000
     33 C11       -1.2202    7.9457    2.1021 C.3       1 RES1    0.0000
     34 H14       -1.6015    7.4778    2.8615 H         1 RES1    0.0000
     35 H15       -1.0260    7.2946    1.4091 H         1 RES1    0.0000
     36 O7         0.3500    4.3752    7.7572 O.2       2 RES2    0.0000
     37 O8        -0.7755    3.7041    9.4813 O.2       2 RES2    0.0000
     38 O9        -5.3695    2.5098    8.9650 O.2       2 RES2    0.0000
     39 O10       -6.2372    2.2592    6.9948 O.2       2 RES2    0.0000
     40 O11        0.4112    0.3418    4.2580 O.3       2 RES2    0.0000
     41 H16        1.0682   -0.1717    4.1526 H         2 RES2    0.0000
     42 O12        1.0256    4.2782    2.4341 O.3       2 RES2    0.0000
     43 H17        0.9880    3.8372    3.1853 H         2 RES2    0.0000
     44 N4        -0.6419    3.8768    8.2728 N.pl3     2 RES2    0.0000
     45 N5        -5.3019    2.5138    7.7408 N.pl3     2 RES2    0.0000
     46 N6        -1.3339    2.5225    3.2321 N.3       2 RES2    0.0000
     47 C12       -2.6583    3.2192    5.1901 C.ar      2 RES2    0.0000
     48 C13       -1.5826    3.5340    6.0222 C.ar      2 RES2    0.0000
     49 H18       -0.7588    3.7671    5.6596 H         2 RES2    0.0000
     50 C14       -1.7596    3.4938    7.3935 C.ar      2 RES2    0.0000
     51 C15       -2.9565    3.1531    7.9890 C.ar      2 RES2    0.0000
     52 H19       -3.0544    3.1276    8.9140 H         2 RES2    0.0000
     53 C16       -4.0013    2.8510    7.1384 C.ar      2 RES2    0.0000
     54 C17       -3.8782    2.8730    5.7563 C.ar      2 RES2    0.0000
     55 H20       -4.6041    2.6581    5.2163 H         2 RES2    0.0000
     56 C18       -2.4941    3.3032    3.6862 C.3       2 RES2    0.0000
     57 H21       -3.2968    2.9680    3.2559 H         2 RES2    0.0000
     58 H22       -2.3801    4.2303    3.4257 H         2 RES2    0.0000
     59 C19       -1.6702    1.0928    3.3062 C.3       2 RES2    0.0000
     60 H23       -2.3132    0.8899    2.6096 H         2 RES2    0.0000
     61 H24       -2.0997    0.9203    4.1598 H         2 RES2    0.0000
     62 C20       -0.4950    0.1555    3.1612 C.3       2 RES2    0.0000
     63 H25       -0.8086   -0.7631    3.1479 H         2 RES2    0.0000
     64 H26       -0.0374    0.3318    2.3246 H         2 RES2    0.0000
     65 C21       -0.9500    2.9210    1.8633 C.3       2 RES2    0.0000
     66 H27       -1.7458    2.9608    1.3098 H         2 RES2    0.0000
     67 H28       -0.3618    2.2455    1.4898 H         2 RES2    0.0000
     68 C22       -0.2529    4.2602    1.8210 C.3       2 RES2    0.0000
     69 H29       -0.1562    4.5301    0.8939 H         2 RES2    0.0000
     70 H30       -0.8158    4.9162    2.2598 H         2 RES2    0.0000
     71 O13        8.5242    1.8408    0.4710 O.2       3 RES3    0.0000
     72 O14        7.1709    1.8580    2.1579 O.2       3 RES3    0.0000
     73 O15        2.4307    1.2274    1.3539 O.2       3 RES3    0.0000
     74 O16        1.7075    1.0564   -0.6719 O.2       3 RES3    0.0000
     75 O17        8.4579   -0.4506   -3.4499 O.3       3 RES3    0.0000
     76 H31        8.9777    0.2280   -3.4574 H         3 RES3    0.0000
     77 O18        9.0507    3.7451   -4.5532 O.3       3 RES3    0.0000
     78 H32        9.0346    4.3139   -3.8921 H         3 RES3    0.0000
     79 N7         7.3956    1.8499    0.9529 N.pl3     3 RES3    0.0000
     80 N8         2.5975    1.2465    0.1477 N.pl3     3 RES3    0.0000
     81 N9         6.7438    1.9094   -4.1987 N.3       3 RES3    0.0000
     82 C23        5.3758    2.1743   -2.1742 C.ar      3 RES3    0.0000
     83 C24        6.4583    2.1585   -1.2972 C.ar      3 RES3    0.0000
     84 H33        7.3134    2.3631   -1.6020 H         3 RES3    0.0000
     85 C25        6.2468    1.8357    0.0314 C.ar      3 RES3    0.0000
     86 C26        5.0011    1.5224    0.5496 C.ar      3 RES3    0.0000
     87 H34        4.8763    1.3182    1.4480 H         3 RES3    0.0000
     88 C27        3.9588    1.5328   -0.3529 C.ar      3 RES3    0.0000
     89 C28        4.1169    1.8405   -1.6962 C.ar      3 RES3    0.0000
     90 H35        3.3860    1.8234   -2.2713 H         3 RES3    0.0000
     91 C29        5.5791    2.5849   -3.6134 C.3       3 RES3    0.0000
     92 H36        4.7861    2.3634   -4.1267 H         3 RES3    0.0000
     93 H37        5.7061    3.5457   -3.6589 H         3 RES3    0.0000
     94 C30        6.4298    0.4919   -4.4196 C.3       3 RES3    0.0000
     95 H38        5.8607    0.4147   -5.2019 H         3 RES3    0.0000
     96 H39        5.9316    0.1581   -3.6574 H         3 RES3    0.0000
     97 C31        7.6527   -0.3666   -4.6181 C.3       3 RES3    0.0000
     98 H40        7.3741   -1.2589   -4.8766 H         3 RES3    0.0000
     99 H41        8.1827    0.0001   -5.3430 H         3 RES3    0.0000
    100 C32        7.1420    2.5488   -5.4531 C.3       3 RES3    0.0000
    101 H42        6.3523    2.6746   -6.0022 H         3 RES3    0.0000
    102 H43        7.7400    1.9522   -5.9302 H         3 RES3    0.0000
    103 C33        7.8238    3.8752   -5.2799 C.3       3 RES3    0.0000
    104 H44        8.0072    4.2584   -6.1519 H         3 RES3    0.0000
    105 H45        7.2320    4.4807   -4.8061 H         3 RES3    0.0000
    106 O19        2.3500    4.2268   -0.8358 O.2       4 RES4    0.0000
    107 O20        3.4523    5.6706   -2.0156 O.2       4 RES4    0.0000
    108 O21        7.6780    7.4204   -0.1373 O.2       4 RES4    0.0000
    109 O22        8.7358    5.9727    1.0980 O.2       4 RES4    0.0000
    110 O23        1.9996    6.8252    3.0774 O.3       4 RES4    0.0000
    111 H46        1.7939    6.0003    2.9075 H         4 RES4    0.0000
    112 O24        1.2433    2.9333    4.8262 O.3       4 RES4    0.0000
    113 H47        0.9063    2.1396    4.6362 H         4 RES4    0.0000
    114 N10        3.2987    4.9879   -1.0053 N.pl3     4 RES4    0.0000
    115 N11        7.7213    6.4054    0.5491 N.pl3     4 RES4    0.0000
    116 N12        3.6128    4.6458    4.2670 N.3       4 RES4    0.0000
    117 C34        5.0263    4.5193    2.2687 C.ar      4 RES4    0.0000
    118 C35        4.0426    4.5035    1.2825 C.ar      4 RES4    0.0000
    119 H48        3.2133    4.1180    1.4480 H         4 RES4    0.0000
    120 C36        4.3211    5.0713    0.0499 C.ar      4 RES4    0.0000
    121 C37        5.5137    5.7138   -0.2454 C.ar      4 RES4    0.0000
    122 H49        5.6643    6.1348   -1.0608 H         4 RES4    0.0000
    123 C38        6.4598    5.6841    0.7554 C.ar      4 RES4    0.0000
    124 C39        6.2566    5.0915    1.9898 C.ar      4 RES4    0.0000
    125 H50        6.9367    5.0781    2.6240 H         4 RES4    0.0000
    126 C40        4.7428    3.9501    3.6384 C.3       4 RES4    0.0000
    127 H51        4.5378    3.0048    3.5610 H         4 RES4    0.0000
    128 H52        5.5312    4.0414    4.1972 H         4 RES4    0.0000
    129 C41        3.8718    6.0822    4.4616 C.3       4 RES4    0.0000
    130 H53        4.4837    6.3971    3.7784 H         4 RES4    0.0000
    131 H54        4.2890    6.2232    5.3257 H         4 RES4    0.0000
    132 C42        2.5821    6.8688    4.3881 C.3       4 RES4    0.0000
    133 H55        1.9512    6.5076    5.0306 H         4 RES4    0.0000
    134 H56        2.7569    7.7923    4.6290 H         4 RES4    0.0000
    135 C43        3.2576    4.0088    5.5384 C.3       4 RES4    0.0000
    136 H57        2.6976    4.6171    6.0468 H         4 RES4    0.0000
    137 H58        4.0678    3.8589    6.0497 H         4 RES4    0.0000
    138 C44        2.5334    2.6972    5.3843 C.3       4 RES4    0.0000
    139 H59        3.0398    2.1091    4.8032 H         4 RES4    0.0000
    140 H60        2.4433    2.2670    6.2498 H         4 RES4    0.0000
@<TRIPOS>BOND
     1    1    9 2
     2    2    9 2
     3    3   10 2
     4    4   10 2
     5    5    6 1
     6    7    8 1
     7    9   15 1
     8   10   18 1
     9   11   21 1
    10   12   13 ar
    11   13   14 1
    12   15   13 ar
    13   16   15 ar
    14   17   16 1
    15   18   16 ar
    16   19   12 ar
    17   20   19 1
    18   21   12 1
    19   22   21 1
    20   23   21 1
    21   24   11 1
    22   25   24 1
    23   26   24 1
    24   27    5 1
    25   28   27 1
    26   29   27 1
    27   30   11 1
    28   31   30 1
    29   32   30 1
    30   33    7 1
    31   34   33 1
    32   35   33 1
    33   36   44 2
    34   37   44 2
    35   38   45 2
    36   39   45 2
    37   40   41 1
    38   42   43 1
    39   44   50 1
    40   45   53 1
    41   46   56 1
    42   47   48 ar
    43   48   49 1
    44   50   48 ar
    45   51   50 ar
    46   52   51 1
    47   53   51 ar
    48   54   47 ar
    49   55   54 1
    50   56   47 1
    51   57   56 1
    52   58   56 1
    53   59   46 1
    54   60   59 1
    55   61   59 1
    56   62   40 1
    57   63   62 1
    58   64   62 1
    59   65   46 1
    60   66   65 1
    61   67   65 1
    62   68   42 1
    63   69   68 1
    64   70   68 1
    65   71   79 2
    66   72   79 2
    67   73   80 2
    68   74   80 2
    69   75   76 1
    70   77   78 1
    71   79   85 1
    72   80   88 1
    73   81   91 1
    74   82   83 ar
    75   83   84 1
    76   85   83 ar
    77   86   85 ar
    78   87   86 1
    79   88   86 ar
    80   89   82 ar
    81   90   89 1
    82   91   82 1
    83   92   91 1
    84   93   91 1
    85   94   81 1
    86   95   94 1
    87   96   94 1
    88   97   75 1
    89   98   97 1
    90   99   97 1
    91  100   81 1
    92  101  100 1
    93  102  100 1
    94  103   77 1
    95  104  103 1
    96  105  103 1
    97  106  114 2
    98  107  114 2
    99  108  115 2
   100  109  115 2
   101  110  111 1
   102  112  113 1
   103  114  120 1
   104  115  123 1
   105  116  126 1
   106  117  118 ar
   107  118  119 1
   108  120  118 ar
   109  121  120 ar
   110  122  121 1
   111  123  121 ar
   112  124  117 ar
   113  125  124 1
   114  126  117 1
   115  127  126 1
   116  128  126 1
   117  129  116 1
   118  130  129 1
   119  131  129 1
   120  132  110 1
   121  133  132 1
   122  134  132 1
   123  135  116 1
   124  136  135 1
   125  137  135 1
   126  138  112 1
   127  139  138 1
   128  140  138 1
   129   18   19 ar
   130   24   27 1
   131   30   33 1
   132   53   54 ar
   133   59   62 1
   134   65   68 1
   135   88   89 ar
   136   94   97 1
   137  100  103 1
   138  123  124 ar
   139  129  132 1
   140  135  138 1
@<TRIPOS>SUBSTRUCTURE
     1 RES1 1
     2 RES2 36
     3 RES3 71
     4 RES4 106

@<TRIPOS>CRYSIN
  12.8042   14.7498   15.1282 104.1410  96.3710 106.3340   2 1

