# MOL2 file generated by ConQuest
# Please check atom types

@<TRIPOS>MOLECULE
YODBUO
    56    56     3
SMALL
NO_CHARGES
****
Generated from CSD

@<TRIPOS>ATOM
      1 O1        -1.3595    4.6619    1.8420 O.2       1 RES1    0.0000
      2 N1        -0.6226    4.2930    0.8923 N.pl3     1 RES1    0.0000
      3 C1         0.0000    5.0994    0.0000 C.2       1 RES1    0.0000
      4 C2         0.0000    6.5553    0.0000 C.ar      1 RES1    0.0000
      5 C3        -0.3878    7.2659    1.1388 C.ar      1 RES1    0.0000
      6 C4        -0.3774    8.6499    1.1190 C.ar      1 RES1    0.0000
      7 C5         0.0000    9.3445    0.0000 C.ar      1 RES1    0.0000
      8 C6        -0.3040    2.8611    0.5942 C.3       1 RES1    0.0000
      9 C7        -1.1216    1.9349    1.3666 C.3       1 RES1    0.0000
     10 C8         1.4360    2.6908    1.3270 C.3       1 RES1    0.0000
     11 C9         0.0000   10.7871    0.0000 C.1       1 RES1    0.0000
     12 N2         0.0000   11.9315    0.0000 N.1       1 RES1    0.0000
     13 O2         3.1970    9.9859    1.0715 O.2       2 RES2    0.0000
     14 N3         4.2505   10.3719    0.4753 N.pl3     2 RES2    0.0000
     15 C10        5.2410    9.6000    0.0000 C.2       2 RES2    0.0000
     16 C11        5.2410    8.1362    0.0000 C.ar      2 RES2    0.0000
     17 C12        4.0565    7.4602   -0.1386 C.ar      2 RES2    0.0000
     18 C13        4.0461    6.0310   -0.1684 C.ar      2 RES2    0.0000
     19 C14        5.2410    5.3922    0.0000 C.ar      2 RES2    0.0000
     20 C15        4.4706   11.8250    0.1070 C.3       2 RES2    0.0000
     21 C16        3.6897   12.0406   -1.1587 C.3       2 RES2    0.0000
     22 C17        4.0041   12.7113    1.2379 C.3       2 RES2    0.0000
     23 C18        5.2410    3.9124    0.0000 C.1       2 RES2    0.0000
     24 N4         5.2410    2.8026    0.0000 N.1       2 RES2    0.0000
     25 H1        -0.7337    6.7336    1.9806 H         1 RES1    0.0000
     26 H2        -0.6289    9.1289    1.8816 H         1 RES1    0.0000
     27 H3         3.0398    8.1708   -0.3961 H         2 RES2    0.0000
     28 H4         2.7253    2.6083   -0.3961 Du        3 SUP3    0.0000
     29 H5         3.5639   13.2809   -1.1884 Du        3 SUP3    0.0000
     30 H6         3.9832   12.8817   -1.4854 H         2 RES2    0.0000
     31 H7         3.0398   12.1364   -1.0893 H         2 RES2    0.0000
     32 H8         4.5073   12.5889    2.2777 H         2 RES2    0.0000
     33 H9         3.2494   12.7752    1.0893 H         2 RES2    0.0000
     34 H10        4.2976   13.7067    0.9903 H         2 RES2    0.0000
     35 N1C        0.6226    4.2930   -0.8923 N.3       1 RES1    0.0000
     36 O1C        1.3595    4.6619   -1.8420 O.2       1 RES1    0.0000
     37 C6C        0.3040    2.8611   -0.5942 C.3       1 RES1    0.0000
     38 C7C        1.1216    1.9349   -1.3666 C.3       1 RES1    0.0000
     39 C8C       -1.4360    2.6908   -1.3270 C.3       1 RES1    0.0000
     40 C4C        0.3774    8.6499   -1.1190 C.ar      1 RES1    0.0000
     41 C3C        0.3878    7.2659   -1.1388 C.ar      1 RES1    0.0000
     42 H1C        0.7337    6.7336   -1.9806 H         1 RES1    0.0000
     43 H2C        0.6289    9.1289   -1.8816 H         1 RES1    0.0000
     44 N3C        6.2315   10.3719   -0.4753 N.3       2 RES2    0.0000
     45 O2C        7.2850    9.9859   -1.0715 O.2       2 RES2    0.0000
     46 C15C       6.0114   11.8250   -0.1070 C.3       2 RES2    0.0000
     47 C16C       6.7923   12.0406    1.1587 C.3       2 RES2    0.0000
     48 H6C        6.4988   12.8817    1.4854 H         2 RES2    0.0000
     49 H7C        7.4422   12.1364    1.0893 H         2 RES2    0.0000
     50 C17C       6.4779   12.7113   -1.2379 C.3       2 RES2    0.0000
     51 H8C        5.9747   12.5889   -2.2777 H         2 RES2    0.0000
     52 H9C        7.2326   12.7752   -1.0893 H         2 RES2    0.0000
     53 H10C       6.1844   13.7067   -0.9903 H         2 RES2    0.0000
     54 C13C       6.4359    6.0310    0.1684 C.ar      2 RES2    0.0000
     55 C12C       6.4255    7.4602    0.1386 C.ar      2 RES2    0.0000
     56 H3C        7.4422    8.1708    0.3961 H         2 RES2    0.0000
@<TRIPOS>BOND
     1    1    2 1
     2    2    3 2
     3    3    4 1
     4    4    5 ar
     5    5    6 ar
     6    6    7 ar
     7    7   11 1
     8    8    2 1
     9    9    8 1
    10   10    8 1
    11   11   12 3
    12   13   14 1
    13   14   15 2
    14   15   16 1
    15   16   17 ar
    16   17   18 ar
    17   18   19 ar
    18   19   23 1
    19   20   14 1
    20   21   20 1
    21   22   20 1
    22   23   24 3
    23   25    5 1
    24   26    6 1
    25   27   17 1
    26   30   21 1
    27   31   21 1
    28   32   22 1
    29   33   22 1
    30   34   22 1
    31   35    3 1
    32   36   35 1
    33   37    8 1
    34   38   37 1
    35   39   37 1
    36   40    7 ar
    37   41    4 ar
    38   42   41 1
    39   43   40 1
    40   44   15 1
    41   45   44 1
    42   46   20 1
    43   47   46 1
    44   48   47 1
    45   49   47 1
    46   50   46 1
    47   51   50 1
    48   52   50 1
    49   53   50 1
    50   54   19 ar
    51   55   16 ar
    52   56   55 1
    53   35   37 1
    54   40   41 ar
    55   44   46 1
    56   54   55 ar
@<TRIPOS>SUBSTRUCTURE
     1 RES1 1
     2 RES2 13
     3 SUP3 28

@<TRIPOS>CRYSIN
  10.4820   26.6150    9.9030  90.0000  90.0000  90.0000  45 3

