# MOL2 file generated by ConQuest
# Please check atom types

@<TRIPOS>MOLECULE
YODHIJ01
    44    46     2
SMALL
NO_CHARGES
****
Generated from CSD

@<TRIPOS>ATOM
      1 C1         1.0765    3.3013    3.6724 C.2       1 RES1    0.0000
      2 C2         5.5642    0.0617    2.4138 C.2       2 RES2    0.0000
      3 C3         7.0400   -0.0673    2.4138 C.2       2 RES2    0.0000
      4 C4         0.4901    4.6603    3.6736 C.2       1 RES1    0.0000
      5 C5         6.9798   -0.1645    4.8409 C.ar      2 RES2    0.0000
      6 C6         0.4126    4.5684    1.2452 C.ar      1 RES1    0.0000
      7 C7         7.6358   -0.3572    6.0484 C.ar      2 RES2    0.0000
      8 C8         0.0256    5.1386    0.0402 C.ar      1 RES1    0.0000
      9 C9         6.9685   -0.1745    7.2327 C.ar      2 RES2    0.0000
     10 C10        0.4031    4.5612   -1.1478 C.ar      1 RES1    0.0000
     11 C11        1.1612    3.4081   -1.1478 C.ar      1 RES1    0.0000
     12 C12        5.6380    0.1716    7.2315 C.ar      2 RES2    0.0000
     13 C13        1.5373    2.8263    0.0390 C.ar      1 RES1    0.0000
     14 C14        4.9633    0.3499    6.0459 C.ar      2 RES2    0.0000
     15 C15        1.1503    3.3941    1.2464 C.ar      1 RES1    0.0000
     16 C16        5.6251    0.1560    4.8421 C.ar      2 RES2    0.0000
     17 N1         1.1886    2.6925    4.8032 N.2       1 RES1    0.0000
     18 N2         4.9505   -0.0216    1.2830 N.2       2 RES2    0.0000
     19 O1         3.5531    0.1599    1.4728 O.3       2 RES2    0.0000
     20 O2         1.8022    1.4224    4.6108 O.3       1 RES1    0.0000
     21 N3         7.6508    0.0222    1.2854 N.2       2 RES2    0.0000
     22 N4         0.3786    5.2664    4.8007 N.2       1 RES1    0.0000
     23 O3         9.0459   -0.1615    1.4741 O.3       2 RES2    0.0000
     24 O4        -0.2360    6.5344    4.6108 O.3       1 RES1    0.0000
     25 N5         0.0835    5.1605    2.4758 N.pl3     1 RES1    0.0000
     26 N6         7.6432   -0.2959    3.6115 N.pl3     2 RES2    0.0000
     27 N7         4.9597    0.2895    3.6139 N.pl3     2 RES2    0.0000
     28 N8         1.4828    2.8020    2.4746 N.pl3     1 RES1    0.0000
     29 H1         8.5505   -0.6173    6.0545 H         2 RES2    0.0000
     30 H2        -0.5022    5.9286    0.0377 H         1 RES1    0.0000
     31 H3         7.4261   -0.2881    8.0580 H         2 RES2    0.0000
     32 H4         0.1423    4.9572   -1.9719 H         1 RES1    0.0000
     33 H5         1.4236    3.0148   -1.9719 H         1 RES1    0.0000
     34 H6         5.1804    0.2893    8.0556 H         2 RES2    0.0000
     35 H7         2.0626    2.0351    0.0329 H         1 RES1    0.0000
     36 H8         4.0481    0.6036    6.0520 H         2 RES2    0.0000
     37 H9         3.2083    0.1485    0.6792 H         2 RES2    0.0000
     38 H10        1.8096    1.0882    5.4093 H         1 RES1    0.0000
     39 H11        9.3625   -0.0714    0.7060 H         2 RES2    0.0000
     40 H12       -0.0735    6.8162    5.3911 H         1 RES1    0.0000
     41 H13       -0.2294    6.1779    2.3724 H         1 RES1    0.0000
     42 H14        8.7196   -0.2744    3.7064 H         2 RES2    0.0000
     43 H15        3.9183    0.3802    3.6578 H         2 RES2    0.0000
     44 H16        1.7742    1.8304    2.4673 H         1 RES1    0.0000
@<TRIPOS>BOND
     1    1    4 1
     2    2    3 1
     3    3   21 2
     4    4   22 2
     5    5    7 ar
     6    6    8 ar
     7    7    9 ar
     8    8   10 ar
     9    9   12 ar
    10   10   11 ar
    11   11   13 ar
    12   12   14 ar
    13   13   15 ar
    14   14   16 ar
    15   15    6 ar
    16   16    5 ar
    17   17    1 2
    18   18    2 2
    19   19   18 1
    20   20   17 1
    21   21   23 1
    22   22   24 1
    23   23   39 1
    24   24   40 1
    25   25    4 1
    26   26    3 1
    27   27    2 1
    28   28    1 1
    29   29    7 1
    30   30    8 1
    31   31    9 1
    32   32   10 1
    33   33   11 1
    34   34   12 1
    35   35   13 1
    36   36   14 1
    37   37   19 1
    38   38   20 1
    39   41   25 1
    40   42   26 1
    41   43   27 1
    42   44   28 1
    43    5   26 1
    44    6   25 1
    45   15   28 1
    46   16   27 1
@<TRIPOS>SUBSTRUCTURE
     1 RES1 1
     2 RES2 2

@<TRIPOS>CRYSIN
   8.3998    8.3888   13.1290 102.6860 102.6660 108.3160   2 1

