# MOL2 file generated by ConQuest
# Please check atom types

@<TRIPOS>MOLECULE
YODHUV
    46    46     2
SMALL
NO_CHARGES
****
Generated from CSD

@<TRIPOS>ATOM
      1 O1         1.4835    4.9652    5.0642 O.2       1 RES1    0.0000
      2 O2         0.4091    6.6874    4.4145 O.2       1 RES1    0.0000
      3 N1         0.2804    5.8487    8.7863 N.3       1 RES1    0.0000
      4 N2         1.3917    4.3092    7.5255 N.pl3     1 RES1    0.0000
      5 H1         1.6346    4.0157    6.7544 H         1 RES1    0.0000
      6 N3         1.8458    4.3725    9.8895 N.3       1 RES1    0.0000
      7 N4         0.4015    6.2831    6.5534 N.2       1 RES1    0.0000
      8 N5         0.7814    5.9580    5.3295 N.pl3     1 RES1    0.0000
      9 C1         3.0435    5.2388    9.8204 C.3       1 RES1    0.0000
     10 H2         3.0815    5.7948   10.6012 H         1 RES1    0.0000
     11 H3         2.9938    5.7918    9.0364 H         1 RES1    0.0000
     12 H4         3.8316    4.6931    9.7778 H         1 RES1    0.0000
     13 C2        -0.4685    7.1019    8.9737 C.3       1 RES1    0.0000
     14 H5        -0.6367    7.5047    8.1189 H         1 RES1    0.0000
     15 H6         0.0459    7.7034    9.5164 H         1 RES1    0.0000
     16 H7        -1.3039    6.9147    9.4087 H         1 RES1    0.0000
     17 C3         0.7191    5.4538    7.5955 C.2       1 RES1    0.0000
     18 C4         1.7334    3.5305    8.7172 C.3       1 RES1    0.0000
     19 H8         1.0495    2.8598    8.8683 H         1 RES1    0.0000
     20 H9         2.5753    3.0705    8.5692 H         1 RES1    0.0000
     21 C5         0.6276    5.1004   10.0270 C.3       1 RES1    0.0000
     22 H10        0.7104    5.7256   10.7644 H         1 RES1    0.0000
     23 H11       -0.0910    4.4823   10.2393 H         1 RES1    0.0000
     24 O3        -0.1956    2.2357    1.9700 O.2       2 RES2    0.0000
     25 O4         1.6945    1.2649    2.1630 O.2       2 RES2    0.0000
     26 N6        -2.7685    2.7412    6.1079 N.3       2 RES2    0.0000
     27 N7        -1.8278    2.1566    3.9706 N.3       2 RES2    0.0000
     28 H12       -1.7964    2.3721    3.1392 H         2 RES2    0.0000
     29 N8        -0.8158    1.3119    5.8401 N.pl3     2 RES2    0.0000
     30 N9         0.4355    1.3278    3.9577 N.2       2 RES2    0.0000
     31 N10        0.6138    1.6177    2.6792 N.pl3     2 RES2    0.0000
     32 C6        -2.0533    4.0254    6.2036 C.3       2 RES2    0.0000
     33 H13       -1.8924    4.2355    7.1267 H         2 RES2    0.0000
     34 H14       -2.5852    4.7171    5.8064 H         2 RES2    0.0000
     35 H15       -1.2152    3.9616    5.7396 H         2 RES2    0.0000
     36 C7         0.2869    0.6409    6.5333 C.3       2 RES2    0.0000
     37 H16        0.9955    0.4636    5.9109 H         2 RES2    0.0000
     38 H17       -0.0262   -0.1866    6.9064 H         2 RES2    0.0000
     39 H18        0.6128    1.2071    7.2376 H         2 RES2    0.0000
     40 C8        -1.9756    1.6692    6.6482 C.3       2 RES2    0.0000
     41 H19       -2.5392    0.8850    6.7471 H         2 RES2    0.0000
     42 H20       -1.6708    1.9236    7.5336 H         2 RES2    0.0000
     43 C9        -3.0365    2.3902    4.7144 C.3       2 RES2    0.0000
     44 H21       -3.5870    1.5924    4.6879 H         2 RES2    0.0000
     45 H22       -3.5343    3.1096    4.2955 H         2 RES2    0.0000
     46 C10       -0.7600    1.6132    4.5439 C.2       2 RES2    0.0000
@<TRIPOS>BOND
     1    1    8 2
     2    2    8 2
     3    3   13 1
     4    4    5 1
     5    6    9 1
     6    7    8 1
     7    9   10 1
     8   11    9 1
     9   12    9 1
    10   13   14 1
    11   15   13 1
    12   16   13 1
    13   17    3 1
    14   18    4 1
    15   19   18 1
    16   20   18 1
    17   21    3 1
    18   22   21 1
    19   23   21 1
    20   24   31 2
    21   25   31 2
    22   26   32 1
    23   27   28 1
    24   29   36 1
    25   30   31 1
    26   32   33 1
    27   34   32 1
    28   35   32 1
    29   36   37 1
    30   38   36 1
    31   39   36 1
    32   40   26 1
    33   41   40 1
    34   42   40 1
    35   43   26 1
    36   44   43 1
    37   45   43 1
    38   46   27 1
    39    4   17 1
    40    6   18 1
    41    6   21 1
    42    7   17 2
    43   27   43 1
    44   29   40 1
    45   29   46 1
    46   30   46 2
@<TRIPOS>SUBSTRUCTURE
     1 RES1 1
     2 RES2 24

@<TRIPOS>CRYSIN
   6.6490   30.1030    8.2940  90.0000 104.1900  90.0000 231 1

