# MOL2 file generated by ConQuest
# Please check atom types

@<TRIPOS>MOLECULE
YODHIJ
    22    23     1
SMALL
NO_CHARGES
****
Generated from CSD

@<TRIPOS>ATOM
      1 O1         4.6666   -0.6211   10.6977 O.3       1 RES1    0.0000
      2 H1         4.4633   -0.8315   11.4977 H         1 RES1    0.0000
      3 N1         5.3356    0.6189   10.8881 N.2       1 RES1    0.0000
      4 N2         5.5948    0.4500    8.5584 N.pl3     1 RES1    0.0000
      5 H2         5.2940   -0.3552    8.5520 H         1 RES1    0.0000
      6 C1         5.7678    1.0640    9.7580 C.2       1 RES1    0.0000
      7 C2         5.8799    1.0582    7.3322 C.ar      1 RES1    0.0000
      8 C3         5.6479    0.4117    6.1259 C.ar      1 RES1    0.0000
      9 H3         5.3215   -0.4586    6.1201 H         1 RES1    0.0000
     10 C4         5.8986    1.0561    4.9396 C.ar      1 RES1    0.0000
     11 H4         5.7364    0.6219    4.1336 H         1 RES1    0.0000
     12 O1F        7.6222    4.0234   10.6977 O.3       1 RES1    0.0000
     13 H1F        7.8255    4.2338   11.4977 H         1 RES1    0.0000
     14 N1F        6.9532    2.7833   10.8881 N.2       1 RES1    0.0000
     15 N2F        6.6939    2.9522    8.5584 N.pl3     1 RES1    0.0000
     16 H2F        6.9948    3.7574    8.5520 H         1 RES1    0.0000
     17 C1F        6.5209    2.3383    9.7580 C.2       1 RES1    0.0000
     18 C2F        6.4088    2.3440    7.3322 C.ar      1 RES1    0.0000
     19 C3F        6.6408    2.9906    6.1259 C.ar      1 RES1    0.0000
     20 H3F        6.9672    3.8609    6.1201 H         1 RES1    0.0000
     21 C4F        6.3902    2.3462    4.9396 C.ar      1 RES1    0.0000
     22 H4F        6.5524    2.7803    4.1336 H         1 RES1    0.0000
@<TRIPOS>BOND
     1    1    2 1
     2    3    1 1
     3    4    5 1
     4    6    3 2
     5    7    4 1
     6    8    7 ar
     7    9    8 1
     8   10    8 ar
     9   11   10 1
    10   12   13 1
    11   14   12 1
    12   15   16 1
    13   17    6 1
    14   18    7 ar
    15   19   18 ar
    16   20   19 1
    17   21   10 ar
    18   22   21 1
    19    4    6 1
    20   14   17 2
    21   15   17 1
    22   15   18 1
    23   19   21 ar
@<TRIPOS>SUBSTRUCTURE
     1 RES1 1

@<TRIPOS>CRYSIN
   9.8310   13.6090   24.3440  90.0000  90.0000  90.0000  70 1

