# MOL2 file generated by ConQuest
# Please check atom types

@<TRIPOS>MOLECULE
YODKIN
    43    43     1
SMALL
NO_CHARGES
****
Generated from CSD

@<TRIPOS>ATOM
      1 C1         3.3393    4.2944    4.5748 C.ar      1 RES1    0.0000
      2 C2         4.0384    4.2306    3.3558 C.ar      1 RES1    0.0000
      3 C3         3.7361    3.2209    2.4543 C.ar      1 RES1    0.0000
      4 H1         4.1916    3.1727    1.6456 H         1 RES1    0.0000
      5 C4         2.7529    2.2778    2.7531 C.ar      1 RES1    0.0000
      6 H2         2.5581    1.6128    2.1333 H         1 RES1    0.0000
      7 C5         2.0575    2.3097    3.9575 C.ar      1 RES1    0.0000
      8 C6         2.3828    3.3300    4.8588 C.ar      1 RES1    0.0000
      9 H3         1.9424    3.3624    5.6771 H         1 RES1    0.0000
     10 C7         2.8382    6.5651    5.4788 C.3       1 RES1    0.0000
     11 C8         1.3736    6.2592    5.7985 C.3       1 RES1    0.0000
     12 H4         1.0157    5.6704    5.1290 H         1 RES1    0.0000
     13 H5         0.8704    7.0766    5.8079 H         1 RES1    0.0000
     14 H6         1.3154    5.8378    6.6590 H         1 RES1    0.0000
     15 C9         3.4079    7.5321    6.5200 C.3       1 RES1    0.0000
     16 H7         3.3126    7.1518    7.3956 H         1 RES1    0.0000
     17 H8         2.9314    8.3641    6.4792 H         1 RES1    0.0000
     18 H9         4.3372    7.6870    6.3384 H         1 RES1    0.0000
     19 C10        2.9513    7.1855    4.0866 C.3       1 RES1    0.0000
     20 H10        3.8739    7.3680    3.8920 H         1 RES1    0.0000
     21 H11        2.4506    8.0038    4.0592 H         1 RES1    0.0000
     22 H12        2.6016    6.5743    3.4344 H         1 RES1    0.0000
     23 C11        5.5739    5.2826    1.8668 C.3       1 RES1    0.0000
     24 H13        6.0977    4.4984    1.6871 H         1 RES1    0.0000
     25 H14        6.1359    6.0604    1.8228 H         1 RES1    0.0000
     26 H15        4.8737    5.3557    1.2144 H         1 RES1    0.0000
     27 C12        0.9659    1.2948    4.3207 C.3       1 RES1    0.0000
     28 C13       -0.3682    2.0326    4.4849 C.3       1 RES1    0.0000
     29 H16       -0.2814    2.7022    5.1680 H         1 RES1    0.0000
     30 H17       -1.0517    1.4062    4.7356 H         1 RES1    0.0000
     31 H18       -0.6067    2.4511    3.6544 H         1 RES1    0.0000
     32 C14        1.3237    0.5852    5.6324 C.3       1 RES1    0.0000
     33 H19        2.1840    0.1685    5.5464 H         1 RES1    0.0000
     34 H20        0.6624   -0.0827    5.8255 H         1 RES1    0.0000
     35 H21        1.3494    1.2261    6.3459 H         1 RES1    0.0000
     36 C15        0.7971    0.2257    3.2385 C.3       1 RES1    0.0000
     37 H22        0.5514    0.6443    2.4099 H         1 RES1    0.0000
     38 H23        0.1098   -0.3900    3.5023 H         1 RES1    0.0000
     39 H24        1.6248   -0.2480    3.1239 H         1 RES1    0.0000
     40 N1         3.7067    5.3324    5.5142 N.3       1 RES1    0.0000
     41 O1         3.5758    4.7634    6.8416 O.3       1 RES1    0.0000
     42 H25        4.2986    4.8004    7.2272 H         1 RES1    0.0000
     43 O2         5.0039    5.1838    3.1620 O.3       1 RES1    0.0000
@<TRIPOS>BOND
     1    1    2 ar
     2    2    3 ar
     3    3    4 1
     4    5    3 ar
     5    6    5 1
     6    7    5 ar
     7    8    1 ar
     8    9    8 1
     9   10   11 1
    10   11   12 1
    11   13   11 1
    12   14   11 1
    13   15   10 1
    14   16   15 1
    15   17   15 1
    16   18   15 1
    17   19   10 1
    18   20   19 1
    19   21   19 1
    20   22   19 1
    21   23   24 1
    22   25   23 1
    23   26   23 1
    24   27    7 1
    25   28   27 1
    26   29   28 1
    27   30   28 1
    28   31   28 1
    29   32   27 1
    30   33   32 1
    31   34   32 1
    32   35   32 1
    33   36   27 1
    34   37   36 1
    35   38   36 1
    36   39   36 1
    37   40    1 1
    38   41   40 1
    39   42   41 1
    40   43    2 1
    41    7    8 ar
    42   10   40 1
    43   23   43 1
@<TRIPOS>SUBSTRUCTURE
     1 RES1 1

@<TRIPOS>CRYSIN
  11.3920   10.5969   12.6402  90.0000  95.9900  90.0000  14 1

