# MOL2 file generated by ConQuest
# Please check atom types

@<TRIPOS>MOLECULE
YODNEL
    30    24     2
SMALL
NO_CHARGES
****
Generated from CSD

@<TRIPOS>ATOM
      1 O1         8.7968    7.3108    1.6582 O.2       1 RES1    0.0000
      2 O2        12.9568    7.5625    1.6582 O.2       1 RES1    0.0000
      3 O3         8.7893   -1.5148    1.6582 O.2       1 RES1    0.0000
      4 O4         6.7375   -0.9956    1.6582 O.2       1 RES1    0.0000
      5 N1         7.9021   -0.6892    1.6582 N.pl3     1 RES1    0.0000
      6 N2         9.2763    4.7367    1.6582 N.pl3     1 RES1    0.0000
      7 H1         8.6566    5.3335    1.6582 H         1 RES1    0.0000
      8 N3        10.5380    5.0879    1.6582 N.2       1 RES1    0.0000
      9 C1         9.9910    7.4682    1.6582 C.2       1 RES1    0.0000
     10 C2         8.9524    3.3779    1.6582 C.ar      1 RES1    0.0000
     11 C3        12.4266    6.4830    1.6582 C.2       1 RES1    0.0000
     12 C4         7.6060    3.0114    1.6582 C.ar      1 RES1    0.0000
     13 H2         6.9449    3.6648    1.6582 H         1 RES1    0.0000
     14 C5         9.5916    1.0731    1.6582 C.ar      1 RES1    0.0000
     15 H3        10.2486    0.4147    1.6582 H         1 RES1    0.0000
     16 C6         7.2581    1.6763    1.6582 C.ar      1 RES1    0.0000
     17 H4         6.3640    1.4199    1.6582 H         1 RES1    0.0000
     18 O5        10.5509    8.6616    1.6582 O.3       1 RES1    0.0000
     19 C7         8.2620    0.7284    1.6582 C.ar      1 RES1    0.0000
     20 C8         9.9391    2.4032    1.6582 C.ar      1 RES1    0.0000
     21 H5        10.8359    2.6496    1.6582 H         1 RES1    0.0000
     22 C9        10.9380    6.3335    1.6582 C.2       1 RES1    0.0000
     23 C10       13.2509    5.2377    1.6582 C.3       1 RES1    0.0000
     24 H6        13.2896    4.8788    0.7681 Du        2 SUP2    0.0000
     25 H7        12.8542    4.5914    2.2465 Du        2 SUP2    0.0000
     26 H8        14.1397    5.4422    1.9593 Du        2 SUP2    0.0000
     27 C11        9.6304    9.7717    1.6582 C.3       1 RES1    0.0000
     28 H9         9.2131    9.8406    0.7966 Du        2 SUP2    0.0000
     29 H10       10.1069   10.5827    1.8492 Du        2 SUP2    0.0000
     30 H11        8.9580    9.6304    2.3288 Du        2 SUP2    0.0000
@<TRIPOS>BOND
     1    1    9 2
     2    2   11 2
     3    3    5 2
     4    4    5 2
     5    5   19 1
     6    6    7 1
     7    8    6 1
     8    9   18 1
     9   10    6 1
    10   11   22 1
    11   12   10 ar
    12   13   12 1
    13   14   15 1
    14   16   12 ar
    15   17   16 1
    16   18   27 1
    17   19   14 ar
    18   20   10 ar
    19   21   20 1
    20   22    8 2
    21   23   11 1
    22    9   22 1
    23   14   20 ar
    24   16   19 ar
@<TRIPOS>SUBSTRUCTURE
     1 RES1 1
     2 SUP2 24

@<TRIPOS>CRYSIN
  12.8800   14.2990    6.6328  90.0000  90.0000  90.0000  57 1

