# MOL2 file generated by ConQuest
# Please check atom types

@<TRIPOS>MOLECULE
YODZIA
    24    24     1
SMALL
NO_CHARGES
****
Generated from CSD

@<TRIPOS>ATOM
      1 N1         0.1289   12.1719    3.6861 N.2       1 RES1    0.0000
      2 N2        -0.0878   12.4796    2.4107 N.3       1 RES1    0.0000
      3 N3         0.6667   11.8273    1.5278 N.2       1 RES1    0.0000
      4 C1         1.4444   11.0500    2.2794 C.2       1 RES1    0.0000
      5 C2         1.1098   11.2733    3.6233 C.2       1 RES1    0.0000
      6 C3         2.4110   10.0786    1.7118 C.2       1 RES1    0.0000
      7 O1         3.0142    9.3013    2.3961 O.2       1 RES1    0.0000
      8 O2         2.4835   10.1769    0.4038 O.3       1 RES1    0.0000
      9 C4         3.3461    9.2119   -0.2816 C.3       1 RES1    0.0000
     10 C5         1.6057   10.6224    4.8606 C.3       1 RES1    0.0000
     11 N4         3.0429   10.9606    5.2453 N.pl3     1 RES1    0.0000
     12 O3         3.7137   11.4584    4.3872 O.2       1 RES1    0.0000
     13 O4         3.3694   10.7143    6.3862 O.2       1 RES1    0.0000
     14 N5         1.4896    9.0715    4.7787 N.pl3     1 RES1    0.0000
     15 O5         0.4744    8.6937    4.2593 O.2       1 RES1    0.0000
     16 O6         2.3819    8.4103    5.2353 O.2       1 RES1    0.0000
     17 N6         0.7702   11.0883    6.0698 N.pl3     1 RES1    0.0000
     18 O7        -0.0183   10.2982    6.5275 O.2       1 RES1    0.0000
     19 O8         0.9833   12.2332    6.4187 O.2       1 RES1    0.0000
     20 C6        -1.2340   13.2786    2.0068 C.3       1 RES1    0.0000
     21 C7        -2.4771   12.4119    2.0854 C.2       1 RES1    0.0000
     22 O9        -2.4918   11.2644    2.4443 O.2       1 RES1    0.0000
     23 O10       -3.5290   13.1152    1.6972 O.3       1 RES1    0.0000
     24 C8        -4.8013   12.4042    1.7847 C.3       1 RES1    0.0000
@<TRIPOS>BOND
     1    1    2 1
     2    2    3 1
     3    3    4 2
     4    4    5 1
     5    5    1 2
     6    6    4 1
     7    7    6 2
     8    8    6 1
     9    9    8 1
    10   10    5 1
    11   11   10 1
    12   12   11 2
    13   13   11 2
    14   14   10 1
    15   15   14 2
    16   16   14 2
    17   17   10 1
    18   18   17 2
    19   19   17 2
    20   20    2 1
    21   21   20 1
    22   22   21 2
    23   23   21 1
    24   24   23 1
@<TRIPOS>SUBSTRUCTURE
     1 RES1 1

@<TRIPOS>CRYSIN
  10.3350   12.7642   11.5580  90.0000 103.9400  90.0000 231 1

