# MOL2 file generated by ConQuest
# Please check atom types

@<TRIPOS>MOLECULE
YOFJEK
    36    38     1
SMALL
NO_CHARGES
****
Generated from CSD

@<TRIPOS>ATOM
      1 N1        13.0927    1.0425    3.7724 N.pl3     1 RES1    0.0000
      2 N2        11.5390    4.9258    1.5347 N.ar      1 RES1    0.0000
      3 N3         9.5853    1.4824    4.1032 N.3       1 RES1    0.0000
      4 N4         9.7853    0.5611    5.0874 N.2       1 RES1    0.0000
      5 O1        13.7955    0.2647    4.4128 O.2       1 RES1    0.0000
      6 O2        13.5329    1.7796    2.8942 O.2       1 RES1    0.0000
      7 C1        10.7206    1.8330    3.4653 C.2       1 RES1    0.0000
      8 C2        11.7100    1.0873    4.0902 C.2       1 RES1    0.0000
      9 C3        11.0820    0.3221    5.0809 C.2       1 RES1    0.0000
     10 H1        11.5260   -0.2819    5.6640 H         1 RES1    0.0000
     11 C4        10.7448    2.8135    2.3689 C.ar      1 RES1    0.0000
     12 C5        11.4932    3.9848    2.4784 C.ar      1 RES1    0.0000
     13 H2        11.9997    4.1203    3.2712 H         1 RES1    0.0000
     14 C6        10.8255    4.7078    0.4197 C.ar      1 RES1    0.0000
     15 H3        10.8491    5.3661   -0.2650 H         1 RES1    0.0000
     16 C7        10.0583    3.5778    0.2136 C.ar      1 RES1    0.0000
     17 H4         9.5678    3.4670   -0.5931 H         1 RES1    0.0000
     18 C8        10.0160    2.6096    1.2027 C.ar      1 RES1    0.0000
     19 H5         9.4995    1.8212    1.0863 H         1 RES1    0.0000
     20 C9         8.2243    1.9492    3.8798 C.3       1 RES1    0.0000
     21 H6         8.2576    2.8063    3.3854 H         1 RES1    0.0000
     22 H7         7.7986    2.1238    4.7570 H         1 RES1    0.0000
     23 C10        7.3659    0.9728    3.1063 C.ar      1 RES1    0.0000
     24 C11        7.8458   -0.1866    2.5155 C.ar      1 RES1    0.0000
     25 H8         8.7681   -0.4025    2.5803 H         1 RES1    0.0000
     26 C12        6.9844   -1.0345    1.8284 C.ar      1 RES1    0.0000
     27 H9         7.3315   -1.8206    1.4226 H         1 RES1    0.0000
     28 C13        5.6311   -0.7581    1.7222 C.ar      1 RES1    0.0000
     29 C14        5.1658    0.4079    2.2988 C.ar      1 RES1    0.0000
     30 H10        4.2437    0.6259    2.2297 H         1 RES1    0.0000
     31 C15        6.0166    1.2640    2.9759 C.ar      1 RES1    0.0000
     32 H11        5.6712    2.0629    3.3568 H         1 RES1    0.0000
     33 C16        4.6966   -1.6799    0.9812 C.3       1 RES1    0.0000
     34 H12        3.7796   -1.5399    1.2983 H         1 RES1    0.0000
     35 H13        4.9588   -2.6103    1.1434 H         1 RES1    0.0000
     36 H14        4.7428   -1.4893    0.0204 H         1 RES1    0.0000
@<TRIPOS>BOND
     1    1    5 2
     2    2   12 ar
     3    3    4 1
     4    4    9 2
     5    6    1 2
     6    7    3 1
     7    8    1 1
     8    9    8 1
     9   10    9 1
    10   11    7 1
    11   12   11 ar
    12   13   12 1
    13   14    2 ar
    14   15   14 1
    15   16   14 ar
    16   17   16 1
    17   18   11 ar
    18   19   18 1
    19   20    3 1
    20   21   20 1
    21   22   20 1
    22   23   20 1
    23   24   23 ar
    24   25   24 1
    25   26   24 ar
    26   27   26 1
    27   28   26 ar
    28   29   28 ar
    29   30   29 1
    30   31   23 ar
    31   32   31 1
    32   33   28 1
    33   34   33 1
    34   35   33 1
    35   36   33 1
    36    7    8 2
    37   16   18 ar
    38   29   31 ar
@<TRIPOS>SUBSTRUCTURE
     1 RES1 1

@<TRIPOS>CRYSIN
  11.8416    6.0888   21.1714  90.0000 105.7000  90.0000 231 1

