# MOL2 file generated by ConQuest
# Please check atom types

@<TRIPOS>MOLECULE
YOFJAG
    29    30     1
SMALL
NO_CHARGES
****
Generated from CSD

@<TRIPOS>ATOM
      1 N1         1.6817   10.1656    3.8832 N.3       1 RES1    0.0000
      2 N2         1.2631    8.8695    3.9444 N.2       1 RES1    0.0000
      3 N3         1.7284    9.7188    7.4039 N.pl3     1 RES1    0.0000
      4 O1         1.4284    8.7002    8.0144 O.2       1 RES1    0.0000
      5 O2         2.0525   10.7561    7.9558 O.2       1 RES1    0.0000
      6 O3         6.1025   14.8431    6.7340 O.2       1 RES1    0.0000
      7 C1         1.9579   10.7047    5.0899 C.2       1 RES1    0.0000
      8 C2         1.6823    9.6676    5.9828 C.2       1 RES1    0.0000
      9 C3         1.2655    8.5692    5.2275 C.2       1 RES1    0.0000
     10 H1         1.0189    7.7251    5.5884 H         1 RES1    0.0000
     11 C4         1.8278   10.7771    2.5611 C.3       1 RES1    0.0000
     12 H2         1.0576   11.3552    2.3819 H         1 RES1    0.0000
     13 H3         1.8743   10.0749    1.8801 H         1 RES1    0.0000
     14 H4         2.6497   11.3100    2.5373 H         1 RES1    0.0000
     15 C5         2.5018   12.0678    5.2501 C.ar      1 RES1    0.0000
     16 C6         3.7256   12.2489    5.8912 C.ar      1 RES1    0.0000
     17 H5         4.1686   11.5020    6.2763 H         1 RES1    0.0000
     18 C7         4.3078   13.5117    5.9744 C.ar      1 RES1    0.0000
     19 C8         3.6509   14.6005    5.4178 C.ar      1 RES1    0.0000
     20 H6         4.0436   15.4634    5.4619 H         1 RES1    0.0000
     21 C9         2.4244   14.4296    4.7996 C.ar      1 RES1    0.0000
     22 H7         1.9723   15.1810    4.4344 H         1 RES1    0.0000
     23 C10        1.8513   13.1723    4.7087 C.ar      1 RES1    0.0000
     24 H8         1.0122   13.0629    4.2765 H         1 RES1    0.0000
     25 C11        5.6420   13.7222    6.6227 C.2       1 RES1    0.0000
     26 C12        6.3969   12.5315    7.1187 C.3       1 RES1    0.0000
     27 H9         7.3232   12.7880    7.3097 H         1 RES1    0.0000
     28 H10        6.3874   11.8296    6.4342 H         1 RES1    0.0000
     29 H11        5.9758   12.1949    7.9373 H         1 RES1    0.0000
@<TRIPOS>BOND
     1    1    2 1
     2    2    9 2
     3    3    4 2
     4    5    3 2
     5    6   25 2
     6    7    1 1
     7    8    3 1
     8    9    8 1
     9   10    9 1
    10   11    1 1
    11   12   11 1
    12   13   11 1
    13   14   11 1
    14   15    7 1
    15   16   15 ar
    16   17   16 1
    17   18   16 ar
    18   19   18 ar
    19   20   19 1
    20   21   19 ar
    21   22   21 1
    22   23   15 ar
    23   24   23 1
    24   25   18 1
    25   26   25 1
    26   27   26 1
    27   28   26 1
    28   29   26 1
    29    7    8 2
    30   21   23 ar
@<TRIPOS>SUBSTRUCTURE
     1 RES1 1

@<TRIPOS>CRYSIN
   7.2879   18.8280    8.5038  90.0000  93.0450  90.0000  14 1

