# MOL2 file generated by ConQuest
# Please check atom types

@<TRIPOS>MOLECULE
YOFVOG
   101    99     2
SMALL
NO_CHARGES
****
Generated from CSD

@<TRIPOS>ATOM
      1 O1         7.6923    6.7793    6.5919 O.3       1 RES1    0.0000
      2 C1         7.7818    5.4072    7.0159 C.3       1 RES1    0.0000
      3 C2         9.1185    5.1731    7.6759 C.3       1 RES1    0.0000
      4 H1         9.8386    5.3513    7.0210 H         1 RES1    0.0000
      5 H2         9.1839    4.2229    7.9472 H         1 RES1    0.0000
      6 C3         9.3238    6.0557    8.8973 C.3       1 RES1    0.0000
      7 H3         8.8130    5.6874    9.6608 H         1 RES1    0.0000
      8 H4        10.2824    6.0610    9.1434 H         1 RES1    0.0000
      9 C4         9.1629    8.4919    9.5283 C.ar      1 RES1    0.0000
     10 C5         8.6997    9.7782    9.2721 C.ar      1 RES1    0.0000
     11 C6         7.9470   10.0820    8.1301 C.ar      1 RES1    0.0000
     12 C7         7.6106    9.0491    7.2506 C.ar      1 RES1    0.0000
     13 C8         8.0845    7.7629    7.5219 C.ar      1 RES1    0.0000
     14 C9         8.8698    7.4590    8.6197 C.ar      1 RES1    0.0000
     15 C10        7.6202    4.5729    5.7616 C.3       1 RES1    0.0000
     16 H5         8.3636    4.7543    5.1496 H         1 RES1    0.0000
     17 H6         6.7737    4.8016    5.3238 H         1 RES1    0.0000
     18 H7         7.6178    3.6216    5.9989 H         1 RES1    0.0000
     19 C11        9.9821    8.2245   10.7674 C.3       1 RES1    0.0000
     20 H8        10.0945    9.0577   11.2696 H         1 RES1    0.0000
     21 H9        10.8626    7.8788   10.5087 H         1 RES1    0.0000
     22 H10        9.5236    7.5642   11.3264 H         1 RES1    0.0000
     23 C12        7.5343   11.4983    7.8538 C.3       1 RES1    0.0000
     24 H11        7.1970   11.5670    6.9364 H         1 RES1    0.0000
     25 H12        8.3067   12.0909    7.9636 H         1 RES1    0.0000
     26 H13        6.8294   11.7602    8.4822 H         1 RES1    0.0000
     27 C13        6.7302    9.2886    6.0481 C.3       1 RES1    0.0000
     28 H14        6.6549    8.4618    5.5282 H         1 RES1    0.0000
     29 H15        7.1234    9.9908    5.4891 H         1 RES1    0.0000
     30 H16        5.8402    9.5699    6.3459 H         1 RES1    0.0000
     31 O2         9.0343   10.7434   10.1844 O.3       1 RES1    0.0000
     32 H17        8.6587   11.4779   10.0191 H         1 RES1    0.0000
     33 C14        6.6230    5.0668    7.9724 C.2       1 RES1    0.0000
     34 N1         5.5710    5.8817    7.9232 N.am      1 RES1    0.0000
     35 H18        5.7605    6.6355    7.5459 H         1 RES1    0.0000
     36 C15        4.4111    5.7368    8.8279 C.3       1 RES1    0.0000
     37 H19        4.4786    4.8735    9.3289 H         1 RES1    0.0000
     38 C16        3.0856    5.7915    8.0620 C.3       1 RES1    0.0000
     39 H20        2.4235    5.1881    8.4822 H         1 RES1    0.0000
     40 H21        3.2196    5.5059    7.1244 H         1 RES1    0.0000
     41 C17        2.5811    7.2443    8.1074 C.3       1 RES1    0.0000
     42 N2         3.6814    7.8810    8.8936 N.3       1 RES1    0.0000
     43 C18        4.3084    6.8942    9.8071 C.3       1 RES1    0.0000
     44 O3         3.1998    9.0277    9.6406 O.3       1 RES1    0.0000
     45 C19        3.6673   10.2044    9.1750 C.2       1 RES1    0.0000
     46 C20        3.2811   11.3877   10.0608 C.3       1 RES1    0.0000
     47 O4         2.6001   10.9721   11.2255 O.3       1 RES1    0.0000
     48 C21        3.3601   10.3097   12.1845 C.ar      1 RES1    0.0000
     49 C22        2.6358    9.5592   13.0981 C.ar      1 RES1    0.0000
     50 C23        3.3109    8.8494   14.0571 C.ar      1 RES1    0.0000
     51 C24        4.7100    8.8774   14.0432 C.ar      1 RES1    0.0000
     52 C25        5.4431    9.6257   13.1435 C.ar      1 RES1    0.0000
     53 C26        4.7387   10.3816   12.2097 C.ar      1 RES1    0.0000
     54 C27        5.4926   11.2438   11.2103 C.3       1 RES1    0.0000
     55 H22        5.9720   10.6640   10.5655 H         1 RES1    0.0000
     56 H23        6.1641   11.7935   11.6861 H         1 RES1    0.0000
     57 C28        4.5202   12.1564   10.4557 C.3       1 RES1    0.0000
     58 H24        4.2671   12.9198   11.0324 H         1 RES1    0.0000
     59 H25        4.9613   12.5150    9.6456 H         1 RES1    0.0000
     60 C29        1.1289    9.5194   12.9820 C.3       1 RES1    0.0000
     61 H26        0.8446   10.0917   12.2387 H         1 RES1    0.0000
     62 H27        0.7293    9.8415   13.8161 H         1 RES1    0.0000
     63 H28        0.8393    8.5982   12.8142 H         1 RES1    0.0000
     64 C30        2.5879    8.0162   15.0792 C.3       1 RES1    0.0000
     65 H29        2.3092    7.1691   14.6716 H         1 RES1    0.0000
     66 H30        1.7975    8.5016   15.3972 H         1 RES1    0.0000
     67 H31        3.1848    7.8337   15.8338 H         1 RES1    0.0000
     68 C31        6.9394    9.5463   13.1271 C.3       1 RES1    0.0000
     69 H32        7.2902   10.1250   12.4179 H         1 RES1    0.0000
     70 H33        7.2159    8.6207   12.9593 H         1 RES1    0.0000
     71 H34        7.2916    9.8394   13.9927 H         1 RES1    0.0000
     72 C32        2.3115   12.2724    9.3112 C.3       1 RES1    0.0000
     73 H35        2.1038   13.0616    9.8538 H         1 RES1    0.0000
     74 H36        1.4883   11.7731    9.1308 H         1 RES1    0.0000
     75 H37        2.7154   12.5548    8.4645 H         1 RES1    0.0000
     76 C33        1.1848    7.3366    8.7724 C.3       1 RES1    0.0000
     77 H38        0.9264    8.2782    8.8608 H         1 RES1    0.0000
     78 H39        1.2164    6.9221    9.6595 H         1 RES1    0.0000
     79 H40        0.5266    6.8685    8.2172 H         1 RES1    0.0000
     80 C34        2.5417    7.9132    6.7295 C.3       1 RES1    0.0000
     81 H41        3.4287    7.8616    6.3156 H         1 RES1    0.0000
     82 H42        2.2841    8.8537    6.8304 H         1 RES1    0.0000
     83 H43        1.8889    7.4547    6.1616 H         1 RES1    0.0000
     84 C35        3.4731    6.4851   11.0185 C.3       1 RES1    0.0000
     85 H44        2.6737    6.0052   10.7169 H         1 RES1    0.0000
     86 H45        3.2044    7.2861   11.5170 H         1 RES1    0.0000
     87 H46        4.0042    5.9021   11.6002 H         1 RES1    0.0000
     88 C36        5.6328    7.4719   10.2841 C.3       1 RES1    0.0000
     89 H47        5.4682    8.1086   11.0097 H         1 RES1    0.0000
     90 H48        6.0751    7.9314    9.5396 H         1 RES1    0.0000
     91 H49        6.2070    6.7471   10.6084 H         1 RES1    0.0000
     92 O5         4.2910   10.3548    8.1579 O.2       1 RES1    0.0000
     93 O6         6.6603    4.0597    8.6778 O.2       1 RES1    0.0000
     94 O7         5.3746    8.0732   14.9782 O.3       1 RES1    0.0000
     95 H50        5.9195    8.5681   15.3820 H         1 RES1    0.0000
     96 H51       10.2252    7.2754   10.8002 Du        2 SUP2    0.0000
     97 H52        9.4583    8.4554   11.5611 Du        2 SUP2    0.0000
     98 H53       10.7973    8.7700   10.7434 Du        2 SUP2    0.0000
     99 H54        0.7636    8.9300   13.6735 Du        2 SUP2    0.0000
    100 H55        0.8796    9.1791   12.0974 Du        2 SUP2    0.0000
    101 H56        0.7688   10.4235   13.0981 Du        2 SUP2    0.0000
@<TRIPOS>BOND
     1    1    2 1
     2    2    3 1
     3    3    4 1
     4    5    3 1
     5    6    3 1
     6    7    6 1
     7    8    6 1
     8    9   10 ar
     9   10   11 ar
    10   11   12 ar
    11   12   13 ar
    12   13    1 1
    13   14    6 1
    14   15    2 1
    15   16   15 1
    16   17   15 1
    17   18   15 1
    18   19    9 1
    19   20   19 1
    20   21   19 1
    21   22   19 1
    22   23   11 1
    23   24   23 1
    24   25   23 1
    25   26   23 1
    26   27   12 1
    27   28   27 1
    28   29   27 1
    29   30   27 1
    30   31   10 1
    31   32   31 1
    32   33    2 1
    33   34   33 1
    34   35   34 1
    35   36   34 1
    36   37   36 1
    37   38   36 1
    38   39   38 1
    39   40   38 1
    40   41   38 1
    41   42   41 1
    42   43   36 1
    43   44   42 1
    44   45   44 1
    45   46   45 1
    46   47   46 1
    47   48   47 1
    48   49   48 ar
    49   50   49 ar
    50   51   50 ar
    51   52   51 ar
    52   53   48 ar
    53   54   53 1
    54   55   54 1
    55   56   54 1
    56   57   46 1
    57   58   57 1
    58   59   57 1
    59   60   49 1
    60   61   60 1
    61   62   60 1
    62   63   60 1
    63   64   50 1
    64   65   64 1
    65   66   64 1
    66   67   64 1
    67   68   52 1
    68   69   68 1
    69   70   68 1
    70   71   68 1
    71   72   46 1
    72   73   72 1
    73   74   72 1
    74   75   72 1
    75   76   41 1
    76   77   76 1
    77   78   76 1
    78   79   76 1
    79   80   41 1
    80   81   80 1
    81   82   80 1
    82   83   80 1
    83   84   43 1
    84   85   84 1
    85   86   84 1
    86   87   84 1
    87   88   43 1
    88   89   88 1
    89   90   88 1
    90   91   88 1
    91   92   45 2
    92   93   33 2
    93   94   51 1
    94   95   94 1
    95    9   14 ar
    96   13   14 ar
    97   42   43 1
    98   52   53 ar
    99   54   57 1
@<TRIPOS>SUBSTRUCTURE
     1 RES1 1
     2 SUP2 96

@<TRIPOS>CRYSIN
  12.3070   10.7370   13.7380  90.0000 113.2900  90.0000   4 1

