# MOL2 file generated by ConQuest
# Please check atom types

@<TRIPOS>MOLECULE
YOFVUM
    64    66     1
SMALL
NO_CHARGES
****
Generated from CSD

@<TRIPOS>ATOM
      1 O1         0.1368   13.6951    2.9574 O.3       1 RES1    0.0000
      2 C1         0.7139   13.8577    4.2616 C.3       1 RES1    0.0000
      3 C2         2.1847   13.5686    4.2072 C.3       1 RES1    0.0000
      4 H1         2.5930   13.7502    5.0914 H         1 RES1    0.0000
      5 H2         2.6161   14.1608    3.5416 H         1 RES1    0.0000
      6 C3         2.4155   12.1034    3.8219 C.3       1 RES1    0.0000
      7 H3         3.3579   11.9808    3.5442 H         1 RES1    0.0000
      8 H4         2.2520   11.5260    4.6095 H         1 RES1    0.0000
      9 C4         1.7479   10.4856    1.9985 C.ar      1 RES1    0.0000
     10 C5         0.9142   10.1535    0.9330 C.ar      1 RES1    0.0000
     11 C6        -0.1374   10.9789    0.5325 C.ar      1 RES1    0.0000
     12 C7        -0.3832   12.1707    1.2244 C.ar      1 RES1    0.0000
     13 C8         0.4394   12.4940    2.3092 C.ar      1 RES1    0.0000
     14 C9         1.5029   11.6817    2.6948 C.ar      1 RES1    0.0000
     15 C10       -0.0448   12.9404    5.2515 C.3       1 RES1    0.0000
     16 H5        -0.9496   13.2899    5.3931 H         1 RES1    0.0000
     17 H6         0.4331   12.9151    6.1060 H         1 RES1    0.0000
     18 H7        -0.0995   12.0359    4.8818 H         1 RES1    0.0000
     19 C11        2.9018    9.6028    2.4188 C.3       1 RES1    0.0000
     20 H8         2.9596    8.8305    1.8168 H         1 RES1    0.0000
     21 H9         2.7577    9.2908    3.3360 H         1 RES1    0.0000
     22 H10        3.7373   10.1149    2.3748 H         1 RES1    0.0000
     23 C12       -1.0229   10.5738   -0.6202 C.3       1 RES1    0.0000
     24 H11       -0.8803   11.1843   -1.3723 H         1 RES1    0.0000
     25 H12       -1.9617   10.6137   -0.3404 H         1 RES1    0.0000
     26 H13       -0.8026    9.6601   -0.8957 H         1 RES1    0.0000
     27 C13       -1.4993   13.0962    0.8064 C.3       1 RES1    0.0000
     28 H14       -1.4095   13.3065   -0.1468 H         1 RES1    0.0000
     29 H15       -1.4514   13.9238    1.3296 H         1 RES1    0.0000
     30 H16       -2.3621   12.6588    0.9638 H         1 RES1    0.0000
     31 O2         1.1112    9.0028    0.1848 O.3       1 RES1    0.0000
     32 H17        1.4746    8.3785    0.6808 H         1 RES1    0.0000
     33 C14        0.4645   15.2997    4.7110 C.2       1 RES1    0.0000
     34 N1        -0.4675   15.9887    4.0524 N.am      1 RES1    0.0000
     35 H18       -0.7792   15.6078    3.3453 H         1 RES1    0.0000
     36 C15       -0.8867   17.3334    4.4733 C.3       1 RES1    0.0000
     37 H19       -0.0802   17.9119    4.5975 H         1 RES1    0.0000
     38 C16       -1.7772   17.9282    3.4011 C.3       1 RES1    0.0000
     39 H20       -2.5619   17.3386    3.2746 H         1 RES1    0.0000
     40 H21       -1.2771   17.9505    2.5470 H         1 RES1    0.0000
     41 C17       -2.2681   19.3423    3.7234 C.3       1 RES1    0.0000
     42 N2        -2.7877   19.3729    5.1255 N.3       1 RES1    0.0000
     43 C18       -2.1612   18.6401    6.2690 C.3       1 RES1    0.0000
     44 C19       -1.6743   17.2703    5.7769 C.3       1 RES1    0.0000
     45 H22       -1.1028   16.8646    6.4757 H         1 RES1    0.0000
     46 H23       -2.4580   16.6799    5.6481 H         1 RES1    0.0000
     47 O3        -3.5395   20.3772    5.4278 O.2       1 RES1    0.0000
     48 C20       -1.1577   20.3921    3.5823 C.3       1 RES1    0.0000
     49 H24       -1.5042   21.2716    3.8433 H         1 RES1    0.0000
     50 H25       -0.8544   20.4227    2.6512 H         1 RES1    0.0000
     51 H26       -0.4054   20.1526    4.1636 H         1 RES1    0.0000
     52 C21       -3.4162   19.6852    2.7844 C.3       1 RES1    0.0000
     53 H27       -4.1505   19.0502    2.9208 H         1 RES1    0.0000
     54 H28       -3.1060   19.6317    1.8569 H         1 RES1    0.0000
     55 H29       -3.7314   20.5936    2.9716 H         1 RES1    0.0000
     56 C22       -1.0158   19.4823    6.8509 C.3       1 RES1    0.0000
     57 H30       -0.2688   19.4994    6.2168 H         1 RES1    0.0000
     58 H31       -0.7163   19.0860    7.6959 H         1 RES1    0.0000
     59 H32       -1.3307   20.3951    7.0110 H         1 RES1    0.0000
     60 C23       -3.2397   18.4342    7.3350 C.3       1 RES1    0.0000
     61 H33       -3.5862   19.3037    7.6211 H         1 RES1    0.0000
     62 H34       -2.8528   17.9670    8.1044 H         1 RES1    0.0000
     63 H35       -3.9702   17.8981    6.9617 H         1 RES1    0.0000
     64 O4         1.0619   15.7506    5.6807 O.2       1 RES1    0.0000
@<TRIPOS>BOND
     1    1    2 1
     2    2    3 1
     3    3    4 1
     4    5    3 1
     5    6    3 1
     6    7    6 1
     7    8    6 1
     8    9   10 ar
     9   10   11 ar
    10   11   12 ar
    11   12   13 ar
    12   13    1 1
    13   14    6 1
    14   15    2 1
    15   16   15 1
    16   17   15 1
    17   18   15 1
    18   19    9 1
    19   20   19 1
    20   21   19 1
    21   22   19 1
    22   23   11 1
    23   24   23 1
    24   25   23 1
    25   26   23 1
    26   27   12 1
    27   28   27 1
    28   29   27 1
    29   30   27 1
    30   31   10 1
    31   32   31 1
    32   33    2 1
    33   34   33 1
    34   35   34 1
    35   36   34 1
    36   37   36 1
    37   38   36 1
    38   39   38 1
    39   40   38 1
    40   41   38 1
    41   42   41 1
    42   43   42 1
    43   44   36 1
    44   45   44 1
    45   46   44 1
    46   47   42 1
    47   48   41 1
    48   49   48 1
    49   50   48 1
    50   51   48 1
    51   52   41 1
    52   53   52 1
    53   54   52 1
    54   55   52 1
    55   56   43 1
    56   57   56 1
    57   58   56 1
    58   59   56 1
    59   60   43 1
    60   61   60 1
    61   62   60 1
    62   63   60 1
    63   64   33 2
    64    9   14 ar
    65   13   14 ar
    66   43   44 1
@<TRIPOS>SUBSTRUCTURE
     1 RES1 1

@<TRIPOS>CRYSIN
   5.8779   27.5610   13.6359  90.0000 101.7680  90.0000  14 1

