# MOL2 file generated by ConQuest
# Please check atom types

@<TRIPOS>MOLECULE
YOHFAE
    20    20     1
SMALL
NO_CHARGES
****
Generated from CSD

@<TRIPOS>ATOM
      1 O1         8.5572    4.5700    3.8146 O.2       1 RES1    0.0000
      2 O2         6.5819    4.5691    3.0241 O.2       1 RES1    0.0000
      3 N1         7.5801    5.1514    3.4075 N.pl3     1 RES1    0.0000
      4 C1         7.5756    6.6316    3.3833 C.ar      1 RES1    0.0000
      5 C2         8.6768    7.3610    3.8213 C.ar      1 RES1    0.0000
      6 C3         8.5367    8.7467    3.7574 C.ar      1 RES1    0.0000
      7 H1         9.2593    9.2813    4.0648 H         1 RES1    0.0000
      8 C4         7.4105    9.3933    3.2737 C.ar      1 RES1    0.0000
      9 C5         6.3537    8.6074    2.8397 C.ar      1 RES1    0.0000
     10 H2         5.5689    9.0184    2.4980 H         1 RES1    0.0000
     11 C6         6.4351    7.2412    2.9003 C.ar      1 RES1    0.0000
     12 H3         5.7033    6.7105    2.6083 H         1 RES1    0.0000
     13 C7         9.9678    6.8127    4.3602 C.3       1 RES1    0.0000
     14 H4         9.7792    6.2148    5.1137 H         1 RES1    0.0000
     15 H5        10.5349    7.5518    4.6636 H         1 RES1    0.0000
     16 H6        10.4298    6.3131    3.6551 H         1 RES1    0.0000
     17 C8         7.3399   10.9017    3.2319 C.3       1 RES1    0.0000
     18 H7         8.1286   11.2532    2.7691 H         1 RES1    0.0000
     19 H8         7.3149   11.2532    4.1469 H         1 RES1    0.0000
     20 H9         6.5299   11.1783    2.7543 H         1 RES1    0.0000
@<TRIPOS>BOND
     1    1    3 2
     2    2    3 2
     3    3    4 1
     4    4    5 ar
     5    5    6 ar
     6    6    7 1
     7    8    6 ar
     8    9    8 ar
     9   10    9 1
    10   11    4 ar
    11   12   11 1
    12   13    5 1
    13   14   13 1
    14   15   13 1
    15   16   13 1
    16   17    8 1
    17   18   17 1
    18   19   17 1
    19   20   17 1
    20    9   11 ar
@<TRIPOS>SUBSTRUCTURE
     1 RES1 1

@<TRIPOS>CRYSIN
  11.6930    9.7380    7.0180  90.0000 106.5400  90.0000  14 1

