# MOL2 file generated by ConQuest
# Please check atom types

@<TRIPOS>MOLECULE
YOJNUI
    74    77     1
SMALL
USER_CHARGES
****
Generated from CSD

@<TRIPOS>ATOM
      1 O1        15.8656    6.2511    0.0177 O.2       1 RES1   -1.0000
      2 N1        15.5549    6.0898    4.7346 N.pl3     1 RES1    0.0000
      3 C1        15.5987    5.3025    3.5765 C.2       1 RES1    0.0000
      4 O2        12.8222    5.7794    2.4798 O.3       1 RES1    0.0000
      5 N2        15.5884    4.0081    3.5450 N.2       1 RES1    0.0000
      6 C2        15.2888    5.4400    6.0352 C.3       1 RES1    0.0000
      7 H1        14.6197    5.9503    6.5185 H         1 RES1    0.0000
      8 H2        16.1026    5.4372    6.5632 H         1 RES1    0.0000
      9 O3        16.4853    8.6153    1.8125 O.3       1 RES1    0.0000
     10 N3        16.0395    5.6362    1.1565 N.pl3     1 RES1    1.0000
     11 C3        14.8069    4.0368    5.8621 C.3       1 RES1    0.0000
     12 H3        13.8827    4.0430    5.5681 H         1 RES1    0.0000
     13 H4        14.8521    3.5694    6.7113 H         1 RES1    0.0000
     14 C4        15.6526    3.3248    4.8496 C.3       1 RES1    0.0000
     15 H5        16.5720    3.2978    5.1566 H         1 RES1    0.0000
     16 H6        15.3413    2.4111    4.7520 H         1 RES1    0.0000
     17 C5        16.2531    7.3515    4.8425 C.ar      1 RES1    0.0000
     18 C6        17.6525    7.3813    4.7113 C.ar      1 RES1    0.0000
     19 C7        18.3129    8.6070    4.8787 C.ar      1 RES1    0.0000
     20 H7        19.2323    8.6444    4.7468 H         1 RES1    0.0000
     21 C8        17.6333    9.7720    5.2359 C.ar      1 RES1    0.0000
     22 C9        16.2515    9.7032    5.4079 C.ar      1 RES1    0.0000
     23 H8        15.7893   10.4687    5.6610 H         1 RES1    0.0000
     24 C10       15.5359    8.5105    5.2094 C.ar      1 RES1    0.0000
     25 C11       14.0423    8.4971    5.4104 C.3       1 RES1    0.0000
     26 H9        13.6493    7.8294    4.8449 H         1 RES1    0.0000
     27 H10       13.6820    9.3575    5.1876 H         1 RES1    0.0000
     28 H11       13.8452    8.2954    6.3273 H         1 RES1    0.0000
     29 C12       18.3779   11.0781    5.4716 C.3       1 RES1    0.0000
     30 H12       17.8332   11.8139    5.1841 H         1 RES1    0.0000
     31 H13       19.1982   11.0725    4.9723 H         1 RES1    0.0000
     32 H14       18.5726   11.1706    6.4065 H         1 RES1    0.0000
     33 C13       18.4506    6.1126    4.4775 C.3       1 RES1    0.0000
     34 H15       18.1489    5.6881    3.6707 H         1 RES1    0.0000
     35 H16       18.3266    5.5145    5.2186 H         1 RES1    0.0000
     36 H17       19.3818    6.3314    4.3938 H         1 RES1    0.0000
     37 C14       16.8545    4.4216    1.0158 C.ar      1 RES1    0.0000
     38 C15       18.2382    4.5288    1.0115 C.ar      1 RES1    0.0000
     39 C16       18.9706    3.3332    0.8693 C.ar      1 RES1    0.0000
     40 H18       19.8999    3.3676    0.8936 H         1 RES1    0.0000
     41 C17       18.3446    2.1004    0.6935 C.ar      1 RES1    0.0000
     42 C18       16.9517    2.0679    0.6219 C.ar      1 RES1    0.0000
     43 H19       16.5304    1.2527    0.4769 H         1 RES1    0.0000
     44 C19       16.1686    3.2116    0.7605 C.ar      1 RES1    0.0000
     45 C20       14.6748    3.1751    0.6205 C.3       1 RES1    0.0000
     46 H20       14.3881    2.2696    0.4855 H         1 RES1    0.0000
     47 H21       14.4110    3.7091   -0.1326 H         1 RES1    0.0000
     48 H22       14.2700    3.5242    1.4187 H         1 RES1    0.0000
     49 C21       19.1457    0.8186    0.5294 C.3       1 RES1    0.0000
     50 H23       20.0269    0.9433    0.8884 H         1 RES1    0.0000
     51 H24       19.2082    0.5981   -0.4029 H         1 RES1    0.0000
     52 H25       18.7087    0.1056    0.9986 H         1 RES1    0.0000
     53 C22       18.9505    5.8702    1.0623 C.3       1 RES1    0.0000
     54 H26       18.3533    6.5371    1.4084 H         1 RES1    0.0000
     55 H27       19.2296    6.1182    0.1773 H         1 RES1    0.0000
     56 H28       19.7204    5.8032    1.6322 H         1 RES1    0.0000
     57 C23       15.5001    6.0645    2.2851 C.2       1 RES1    0.0000
     58 C24       14.6162    7.2593    2.1714 C.ar      1 RES1    0.0000
     59 C25       15.1284    8.5440    1.9065 C.ar      1 RES1    0.0000
     60 C26       14.2580    9.6369    1.7579 C.ar      1 RES1    0.0000
     61 H29       14.5916   10.4914    1.6046 H         1 RES1    0.0000
     62 C27       12.8933    9.4156    1.8453 C.ar      1 RES1    0.0000
     63 H30       12.3156   10.1367    1.7355 H         1 RES1    0.0000
     64 C28       12.3551    8.1569    2.0909 C.ar      1 RES1    0.0000
     65 H31       11.4342    8.0350    2.1487 H         1 RES1    0.0000
     66 C29       13.2337    7.0764    2.2496 C.ar      1 RES1    0.0000
     67 C30       11.4186    5.5170    2.4507 C.3       1 RES1    0.0000
     68 H32       11.2665    4.5769    2.5671 H         1 RES1    0.0000
     69 H33       11.0577    5.7975    1.6064 H         1 RES1    0.0000
     70 H34       10.9880    6.0013    3.1594 H         1 RES1    0.0000
     71 C31       17.0782    9.9111    1.6100 C.3       1 RES1    0.0000
     72 H35       18.0221    9.8122    1.4652 H         1 RES1    0.0000
     73 H36       16.9285   10.4555    2.3863 H         1 RES1    0.0000
     74 H37       16.6788   10.3291    0.8436 H         1 RES1    0.0000
@<TRIPOS>BOND
     1    1   10 1
     2    2    3 1
     3    3    5 2
     4    4   66 1
     5    5   14 1
     6    6    2 1
     7    7    6 1
     8    8    6 1
     9    9   59 1
    10   10   37 1
    11   11    6 1
    12   12   11 1
    13   13   11 1
    14   14   11 1
    15   15   14 1
    16   16   14 1
    17   17    2 1
    18   18   17 ar
    19   19   18 ar
    20   20   19 1
    21   21   19 ar
    22   22   21 ar
    23   23   22 1
    24   24   17 ar
    25   25   24 1
    26   26   25 1
    27   27   25 1
    28   28   25 1
    29   29   21 1
    30   30   29 1
    31   31   29 1
    32   32   29 1
    33   33   18 1
    34   34   33 1
    35   35   33 1
    36   36   33 1
    37   37   38 ar
    38   38   39 ar
    39   39   40 1
    40   41   39 ar
    41   42   41 ar
    42   43   42 1
    43   44   37 ar
    44   45   44 1
    45   46   45 1
    46   47   45 1
    47   48   45 1
    48   49   41 1
    49   50   49 1
    50   51   49 1
    51   52   49 1
    52   53   38 1
    53   54   53 1
    54   55   53 1
    55   56   53 1
    56   57    3 1
    57   58   57 1
    58   59   58 ar
    59   60   59 ar
    60   61   60 1
    61   62   60 ar
    62   63   62 1
    63   64   62 ar
    64   65   64 1
    65   66   58 ar
    66   67    4 1
    67   68   67 1
    68   69   67 1
    69   70   67 1
    70   71    9 1
    71   72   71 1
    72   73   71 1
    73   74   71 1
    74   10   57 2
    75   22   24 ar
    76   42   44 ar
    77   64   66 ar
@<TRIPOS>SUBSTRUCTURE
     1 RES1 1

