# MOL2 file generated by ConQuest
# Please check atom types

@<TRIPOS>MOLECULE
YOJQOF01
    62    64     1
SMALL
NO_CHARGES
****
Generated from CSD

@<TRIPOS>ATOM
      1 O1        11.0260   18.1725   18.5555 O.2       1 RES1    0.0000
      2 O2        11.3656   18.0677   20.6846 O.2       1 RES1    0.0000
      3 O3         8.9093   12.4096   19.7719 O.2       1 RES1    0.0000
      4 O4         8.3001    9.6568   23.3211 O.2       1 RES1    0.0000
      5 O5         3.8846   15.0334   19.9886 O.2       1 RES1    0.0000
      6 O6         2.8713   12.8370   16.1715 O.2       1 RES1    0.0000
      7 N1        10.7431   17.7613   19.6745 N.pl3     1 RES1    0.0000
      8 N2         3.1008   13.7764   22.7874 N.pl3     1 RES1    0.0000
      9 N3         5.2756   13.0476   22.8066 N.2       1 RES1    0.0000
     10 N4         6.8084   11.3410   22.9940 N.am      1 RES1    0.0000
     11 N5         8.5816   11.0248   21.5257 N.am      1 RES1    0.0000
     12 N6         3.3915   13.9563   18.0631 N.am      1 RES1    0.0000
     13 N7         5.0170   12.7800   16.8940 N.am      1 RES1    0.0000
     14 N8         7.1490   12.4687   17.7057 N.pl3     1 RES1    0.0000
     15 H1         7.7705   12.5767   18.2902 H         1 RES1    0.0000
     16 H2         7.3095   12.0272   16.9836 H         1 RES1    0.0000
     17 C1         1.8489   13.8853   22.0887 C.3       1 RES1    0.0000
     18 H3         1.7158   14.7940   21.8095 H         1 RES1    0.0000
     19 H4         1.1334   13.6197   22.6697 H         1 RES1    0.0000
     20 H5         1.8626   13.3133   21.3174 H         1 RES1    0.0000
     21 C2         3.3259   14.5887   23.9614 C.3       1 RES1    0.0000
     22 H6         3.7164   14.0499   24.6542 H         1 RES1    0.0000
     23 H7         2.4900   14.9465   24.2664 H         1 RES1    0.0000
     24 H8         3.9210   15.3087   23.7418 H         1 RES1    0.0000
     25 C3         4.1216   13.1110   22.2546 C.2       1 RES1    0.0000
     26 H9         3.9915   12.6717   21.4445 H         1 RES1    0.0000
     27 C4         6.3122   12.3813   22.2129 C.2       1 RES1    0.0000
     28 C5         7.9242   10.6102   22.6495 C.2       1 RES1    0.0000
     29 C6         8.1777   12.0887   20.7192 C.2       1 RES1    0.0000
     30 C7         6.9464   12.7436   21.0545 C.2       1 RES1    0.0000
     31 C8         6.4776   13.9653   20.2529 C.3       1 RES1    0.0000
     32 H10        5.8746   14.4227   20.8743 H         1 RES1    0.0000
     33 C9         7.5983   14.9761   20.0534 C.ar      1 RES1    0.0000
     34 C10        8.3157   15.3924   21.1552 C.ar      1 RES1    0.0000
     35 H11        8.1151   15.0355   21.9920 H         1 RES1    0.0000
     36 C11        9.3268   16.3296   21.0434 C.ar      1 RES1    0.0000
     37 H12        9.7986   16.6099   21.7932 H         1 RES1    0.0000
     38 C12        9.6204   16.8366   19.8003 C.ar      1 RES1    0.0000
     39 C13        8.9049   16.4813   18.7116 C.ar      1 RES1    0.0000
     40 H13        9.0978   16.8574   17.8829 H         1 RES1    0.0000
     41 C14        7.8899   15.5614   18.8328 C.ar      1 RES1    0.0000
     42 H14        7.3917   15.3284   18.0817 H         1 RES1    0.0000
     43 C15        9.7712   10.2636   21.1236 C.3       1 RES1    0.0000
     44 H15       10.0668    9.7208   21.8584 H         1 RES1    0.0000
     45 H16       10.4710   10.8710   20.8743 H         1 RES1    0.0000
     46 H17        9.5539    9.7012   20.3757 H         1 RES1    0.0000
     47 C16        6.1125   10.9253   24.2221 C.3       1 RES1    0.0000
     48 H18        5.4264   10.2914   24.0025 H         1 RES1    0.0000
     49 H19        5.7151   11.6936   24.6412 H         1 RES1    0.0000
     50 H20        6.7409   10.5208   24.8236 H         1 RES1    0.0000
     51 C17        1.9987   14.4378   18.1501 C.3       1 RES1    0.0000
     52 H21        1.7334   14.8061   17.3029 H         1 RES1    0.0000
     53 H22        1.9360   15.1155   18.8279 H         1 RES1    0.0000
     54 H23        1.4202   13.7057   18.3750 H         1 RES1    0.0000
     55 C18        4.2861   14.2900   19.0928 C.2       1 RES1    0.0000
     56 C19        3.7027   13.1647   17.0002 C.2       1 RES1    0.0000
     57 C20        5.3941   12.0816   15.6625 C.3       1 RES1    0.0000
     58 H24        5.4714   11.1412   15.8398 H         1 RES1    0.0000
     59 H25        6.2358   12.4182   15.3478 H         1 RES1    0.0000
     60 H26        4.7216   12.2265   14.9926 H         1 RES1    0.0000
     61 C21        5.5869   13.7024   19.0374 C.2       1 RES1    0.0000
     62 C22        5.9324   12.9859   17.9175 C.2       1 RES1    0.0000
@<TRIPOS>BOND
     1    1    7 2
     2    2    7 2
     3    3   29 2
     4    4   28 2
     5    5   55 2
     6    6   56 2
     7    7   38 1
     8    8   17 1
     9    9   25 2
    10   10   27 1
    11   11   28 1
    12   12   51 1
    13   13   56 1
    14   14   15 1
    15   16   14 1
    16   17   18 1
    17   19   17 1
    18   20   17 1
    19   21    8 1
    20   22   21 1
    21   23   21 1
    22   24   21 1
    23   25    8 1
    24   26   25 1
    25   27    9 1
    26   28   10 1
    27   29   11 1
    28   30   27 2
    29   31   30 1
    30   32   31 1
    31   33   31 1
    32   34   33 ar
    33   35   34 1
    34   36   34 ar
    35   37   36 1
    36   38   36 ar
    37   39   38 ar
    38   40   39 1
    39   41   33 ar
    40   42   41 1
    41   43   11 1
    42   44   43 1
    43   45   43 1
    44   46   43 1
    45   47   10 1
    46   48   47 1
    47   49   47 1
    48   50   47 1
    49   51   52 1
    50   53   51 1
    51   54   51 1
    52   55   12 1
    53   56   12 1
    54   57   13 1
    55   58   57 1
    56   59   57 1
    57   60   57 1
    58   61   31 1
    59   62   13 1
    60   14   62 1
    61   29   30 1
    62   39   41 ar
    63   55   61 1
    64   61   62 2
@<TRIPOS>SUBSTRUCTURE
     1 RES1 1

@<TRIPOS>CRYSIN
   9.7878   15.0944   32.5855  90.0000  90.0000  90.0000  61 1

