# MOL2 file generated by ConQuest
# Please check atom types

@<TRIPOS>MOLECULE
YOJQAR
    88    93     1
SMALL
NO_CHARGES
****
Generated from CSD

@<TRIPOS>ATOM
      1 O1         9.3629   -1.3669   -1.1385 O.2       1 RES1    0.0000
      2 N1         9.4944   -1.1458    1.1081 N.am      1 RES1    0.0000
      3 C1        10.0182   -1.5873    2.3677 C.3       1 RES1    0.0000
      4 O2        12.6579   -3.6499    1.1333 O.2       1 RES1    0.0000
      5 N2        11.2863   -2.2544    2.2558 N.am      1 RES1    0.0000
      6 C2         9.7775   -1.7892   -0.0809 C.2       1 RES1    0.0000
      7 O3        10.7447    0.5899    3.2433 O.2       1 RES1    0.0000
      8 N3         9.3260   -0.7695    4.4370 N.am      1 RES1    0.0000
      9 C3        10.6262   -3.0572    0.0069 C.3       1 RES1    0.0000
     10 O4         9.0545   -2.4868    3.0359 O.3       1 RES1    0.0000
     11 N4         8.0510   -2.5839    5.1622 N.2       1 RES1    0.0000
     12 C4        11.6229   -3.0194    1.1574 C.2       1 RES1    0.0000
     13 O5         7.2650    3.6095    5.5290 O.2       1 RES1    0.0000
     14 N5         7.8032    3.3119    6.5881 N.pl3     1 RES1    0.0000
     15 C5        11.3708   -3.2654   -1.3110 C.3       1 RES1    0.0000
     16 H1        11.9040   -2.4901   -1.5038 H         1 RES1    0.0000
     17 H2        10.7376   -3.4011   -2.0179 H         1 RES1    0.0000
     18 H3        11.9408   -4.0342   -1.2391 H         1 RES1    0.0000
     19 N6         5.4716   -5.8595    2.5450 N.pl3     1 RES1    0.0000
     20 O6         7.7510    4.0027    7.6027 O.2       1 RES1    0.0000
     21 C6         9.6725   -4.2578    0.2655 C.3       1 RES1    0.0000
     22 H4         9.1614   -4.0950    1.0627 H         1 RES1    0.0000
     23 H5        10.1898   -5.0590    0.3743 H         1 RES1    0.0000
     24 H6         9.0777   -4.3599   -0.4819 H         1 RES1    0.0000
     25 C7        12.0651   -2.3718    3.4849 C.ar      1 RES1    0.0000
     26 O7         4.7499   -6.8385    2.5708 O.2       1 RES1    0.0000
     27 C8        11.8122   -3.4394    4.3607 C.ar      1 RES1    0.0000
     28 O8         5.5958   -5.1523    1.5683 O.2       1 RES1    0.0000
     29 C9        12.4441   -3.4175    5.5912 C.ar      1 RES1    0.0000
     30 H7        12.2561   -4.0963    6.2000 H         1 RES1    0.0000
     31 C10       13.3397   -2.4341    5.9559 C.ar      1 RES1    0.0000
     32 C11       13.6535   -1.4652    5.0142 C.ar      1 RES1    0.0000
     33 H8        14.2980   -0.8296    5.2255 H         1 RES1    0.0000
     34 C12       13.0398   -1.4094    3.7673 C.ar      1 RES1    0.0000
     35 C13       13.4732   -0.3408    2.8057 C.3       1 RES1    0.0000
     36 H9        14.4168   -0.4174    2.6461 H         1 RES1    0.0000
     37 H10       13.2808    0.5220    3.1796 H         1 RES1    0.0000
     38 H11       12.9991   -0.4445    1.9770 H         1 RES1    0.0000
     39 C14       13.9885   -2.4216    7.3193 C.3       1 RES1    0.0000
     40 H12       14.8107   -1.9267    7.2778 H         1 RES1    0.0000
     41 H13       14.1698   -3.3222    7.5962 H         1 RES1    0.0000
     42 H14       13.3958   -2.0068    7.9512 H         1 RES1    0.0000
     43 C15       10.9639   -4.6261    4.0016 C.3       1 RES1    0.0000
     44 H15       10.7907   -4.6209    3.0570 H         1 RES1    0.0000
     45 H16       10.1330   -4.5821    4.4790 H         1 RES1    0.0000
     46 H17       11.4264   -5.4337    4.2380 H         1 RES1    0.0000
     47 C16        8.6949    0.0792    1.1034 C.ar      1 RES1    0.0000
     48 C17        7.3644    0.0417    1.5180 C.ar      1 RES1    0.0000
     49 C18        6.7056    1.2625    1.6750 C.ar      1 RES1    0.0000
     50 H18        5.8283    1.2599    1.9813 H         1 RES1    0.0000
     51 C19        7.3070    2.4743    1.3930 C.ar      1 RES1    0.0000
     52 C20        8.5915    2.4548    0.8717 C.ar      1 RES1    0.0000
     53 H19        8.9801    3.2563    0.6024 H         1 RES1    0.0000
     54 C21        9.3160    1.2793    0.7377 C.ar      1 RES1    0.0000
     55 C22       10.7300    1.3457    0.2375 C.3       1 RES1    0.0000
     56 H20       10.7547    1.8323   -0.5895 H         1 RES1    0.0000
     57 H21       11.0615    0.4561    0.0947 H         1 RES1    0.0000
     58 H22       11.2783    1.7923    0.8863 H         1 RES1    0.0000
     59 C23        6.5832    3.7758    1.6249 C.3       1 RES1    0.0000
     60 H23        5.6946    3.5949    1.9448 H         1 RES1    0.0000
     61 H24        6.5335    4.2656    0.8003 H         1 RES1    0.0000
     62 H25        7.0581    4.2940    2.2782 H         1 RES1    0.0000
     63 C24        6.5959   -1.2182    1.7752 C.3       1 RES1    0.0000
     64 H26        7.0475   -1.9577    1.3618 H         1 RES1    0.0000
     65 H27        5.7134   -1.1358    1.4069 H         1 RES1    0.0000
     66 H28        6.5353   -1.3684    2.7214 H         1 RES1    0.0000
     67 C25       10.1058   -0.4166    3.3709 C.2       1 RES1    0.0000
     68 C26        9.2402    0.0508    5.6162 C.ar      1 RES1    0.0000
     69 C27        8.5355    1.2319    5.5355 C.ar      1 RES1    0.0000
     70 H29        8.0721    1.4692    4.7651 H         1 RES1    0.0000
     71 C28        8.5487    2.0487    6.6490 C.ar      1 RES1    0.0000
     72 C29        9.2258    1.7326    7.7997 C.ar      1 RES1    0.0000
     73 H30        9.2205    2.3092    8.5299 H         1 RES1    0.0000
     74 C30        9.9152    0.5361    7.8458 C.ar      1 RES1    0.0000
     75 H31       10.3755    0.2985    8.6181 H         1 RES1    0.0000
     76 C31        9.9275   -0.3099    6.7553 C.ar      1 RES1    0.0000
     77 H32       10.3935   -1.1139    6.7895 H         1 RES1    0.0000
     78 C32        8.7384   -2.0238    4.2729 C.2       1 RES1    0.0000
     79 C33        7.4495   -3.8579    4.9802 C.ar      1 RES1    0.0000
     80 C34        6.8227   -4.2588    3.8091 C.ar      1 RES1    0.0000
     81 H33        6.8264   -3.7099    3.0591 H         1 RES1    0.0000
     82 C35        6.1927   -5.4894    3.7764 C.ar      1 RES1    0.0000
     83 C36        6.1929   -6.3611    4.8417 C.ar      1 RES1    0.0000
     84 H34        5.7744   -7.1898    4.7866 H         1 RES1    0.0000
     85 C37        6.8356   -5.9598    5.9939 C.ar      1 RES1    0.0000
     86 H35        6.8647   -6.5321    6.7271 H         1 RES1    0.0000
     87 C38        7.4382   -4.7134    6.0727 C.ar      1 RES1    0.0000
     88 H36        7.8394   -4.4478    6.8691 H         1 RES1    0.0000
@<TRIPOS>BOND
     1    1    6 2
     2    2    3 1
     3    3    5 1
     4    4   12 2
     5    5   12 1
     6    6    2 1
     7    7   67 2
     8    8   67 1
     9    9    6 1
    10   10    3 1
    11   11   78 2
    12   12    9 1
    13   13   14 2
    14   14   20 2
    15   15    9 1
    16   16   15 1
    17   17   15 1
    18   18   15 1
    19   19   26 2
    20   21    9 1
    21   22   21 1
    22   23   21 1
    23   24   21 1
    24   25    5 1
    25   27   25 ar
    26   28   19 2
    27   29   27 ar
    28   30   29 1
    29   31   29 ar
    30   32   31 ar
    31   33   32 1
    32   34   25 ar
    33   35   34 1
    34   36   35 1
    35   37   35 1
    36   38   35 1
    37   39   31 1
    38   40   39 1
    39   41   39 1
    40   42   39 1
    41   43   27 1
    42   44   43 1
    43   45   43 1
    44   46   43 1
    45   47    2 1
    46   48   47 ar
    47   49   48 ar
    48   50   49 1
    49   51   49 ar
    50   52   51 ar
    51   53   52 1
    52   54   47 ar
    53   55   54 1
    54   56   55 1
    55   57   55 1
    56   58   55 1
    57   59   51 1
    58   60   59 1
    59   61   59 1
    60   62   59 1
    61   63   48 1
    62   64   63 1
    63   65   63 1
    64   66   63 1
    65   67    3 1
    66   68    8 1
    67   69   68 ar
    68   70   69 1
    69   71   14 1
    70   72   71 ar
    71   73   72 1
    72   74   72 ar
    73   75   74 1
    74   76   68 ar
    75   77   76 1
    76   78    8 1
    77   79   11 1
    78   80   79 ar
    79   81   80 1
    80   82   19 1
    81   83   82 ar
    82   84   83 1
    83   85   83 ar
    84   86   85 1
    85   87   79 ar
    86   88   87 1
    87   10   78 1
    88   32   34 ar
    89   52   54 ar
    90   69   71 ar
    91   74   76 ar
    92   80   82 ar
    93   85   87 ar
@<TRIPOS>SUBSTRUCTURE
     1 RES1 1

@<TRIPOS>CRYSIN
  12.8201   12.9220   21.7010  90.0000  97.5490  90.0000  14 1

