# MOL2 file generated by ConQuest
# Please check atom types

@<TRIPOS>MOLECULE
YOJXIG
    30    29     1
SMALL
NO_CHARGES
****
Generated from CSD

@<TRIPOS>ATOM
      1 O1         3.7133    2.0641    0.5702 O.2       1 RES1    0.0000
      2 O2         0.0000    0.6028    4.7606 O.2       1 RES1    0.0000
      3 O3         0.0000    2.7604    4.4300 O.2       1 RES1    0.0000
      4 N1         0.0000   -1.1684    2.0286 N.1       1 RES1    0.0000
      5 N2         0.0000    1.6129    4.0368 N.pl3     1 RES1    0.0000
      6 C1         5.1111    1.4848    2.4070 C.3       1 RES1    0.0000
      7 C2         3.7892    1.7182    1.7384 C.2       1 RES1    0.0000
      8 C3         2.5618    1.4567    2.5732 C.3       1 RES1    0.0000
      9 C4         1.2829    2.0092    1.9592 C.3       1 RES1    0.0000
     10 C5         0.0000    1.3926    2.5282 C.3       1 RES1    0.0000
     11 C6         0.0000   -0.0928    2.3023 C.1       1 RES1    0.0000
     12 H1         5.1055    1.8980    3.2959 H         1 RES1    0.0000
     13 H2         5.8248    1.8823    1.8665 H         1 RES1    0.0000
     14 H3         5.2674    0.5211    2.4958 H         1 RES1    0.0000
     15 H4         2.6894    1.8621    3.4672 H         1 RES1    0.0000
     16 H5         2.4619    0.4792    2.6972 H         1 RES1    0.0000
     17 H6         1.3058    1.8522    0.9822 H         1 RES1    0.0000
     18 H7         1.2569    2.9886    2.1054 H         1 RES1    0.0000
     19 O1A       -3.7133    2.0641    0.5702 O.2       1 RES1    0.0000
     20 C1A       -5.1111    1.4848    2.4070 C.3       1 RES1    0.0000
     21 C2A       -3.7892    1.7182    1.7384 C.2       1 RES1    0.0000
     22 C3A       -2.5618    1.4567    2.5732 C.3       1 RES1    0.0000
     23 C4A       -1.2829    2.0092    1.9592 C.3       1 RES1    0.0000
     24 H1A       -5.1055    1.8980    3.2959 H         1 RES1    0.0000
     25 H2A       -5.8248    1.8823    1.8665 H         1 RES1    0.0000
     26 H3A       -5.2674    0.5211    2.4958 H         1 RES1    0.0000
     27 H4A       -2.6894    1.8621    3.4672 H         1 RES1    0.0000
     28 H5A       -2.4619    0.4792    2.6972 H         1 RES1    0.0000
     29 H6A       -1.3058    1.8522    0.9822 H         1 RES1    0.0000
     30 H7A       -1.2569    2.9886    2.1054 H         1 RES1    0.0000
@<TRIPOS>BOND
     1    1    7 2
     2    2    5 2
     3    3    5 2
     4    4   11 3
     5    5   10 1
     6    6    7 1
     7    7    8 1
     8    8    9 1
     9    9   10 1
    10   10   11 1
    11   12    6 1
    12   13    6 1
    13   14    6 1
    14   15    8 1
    15   16    8 1
    16   17    9 1
    17   18    9 1
    18   19   21 2
    19   20   21 1
    20   21   22 1
    21   22   23 1
    22   23   10 1
    23   24   20 1
    24   25   20 1
    25   26   20 1
    26   27   22 1
    27   28   22 1
    28   29   23 1
    29   30   23 1
@<TRIPOS>SUBSTRUCTURE
     1 RES1 1

@<TRIPOS>CRYSIN
  15.2722    6.5381    5.6904  90.0000  90.0000  90.0000  31 1

