# MOL2 file generated by ConQuest
# Please check atom types

@<TRIPOS>MOLECULE
YOKJOY
    39    41     1
SMALL
NO_CHARGES
****
Generated from CSD

@<TRIPOS>ATOM
      1 N1         2.5300    1.7879    3.4730 N.2       1 RES1    0.0000
      2 N2         1.9510    2.7551    2.6935 N.pl3     1 RES1    0.0000
      3 N3         3.7724    4.1206    3.1530 N.ar      1 RES1    0.0000
      4 N4         4.4102    5.2732    2.9774 N.ar      1 RES1    0.0000
      5 N5         2.7869    5.9050    1.3590 N.ar      1 RES1    0.0000
      6 N6         2.1659    4.7409    1.5242 N.ar      1 RES1    0.0000
      7 N7         4.4895    7.3346    1.9643 N.pl3     1 RES1    0.0000
      8 N8         6.0558    8.6829   -0.0658 N.pl3     1 RES1    0.0000
      9 H1         5.2673    7.4296    2.3192 H         1 RES1    0.0000
     10 N9         2.4088   11.7905   -0.8389 N.pl3     1 RES1    0.0000
     11 N10        1.7286    8.2789    2.4264 N.pl3     1 RES1    0.0000
     12 O1         6.2676    7.4937   -0.1226 O.2       1 RES1    0.0000
     13 O2         6.8535    9.5219   -0.4014 O.2       1 RES1    0.0000
     14 O3         3.0433   12.2026   -1.7798 O.2       1 RES1    0.0000
     15 O4         1.3378   12.2358   -0.4930 O.2       1 RES1    0.0000
     16 O5         0.5608    8.2251    2.1179 O.2       1 RES1    0.0000
     17 O6         2.1732    7.8897    3.4808 O.2       1 RES1    0.0000
     18 C1         1.8470   -0.3319    4.4733 C.3       1 RES1    0.0000
     19 H2         2.7003   -0.6971    4.2281 H         1 RES1    0.0000
     20 H3         1.1610   -0.9844    4.3107 H         1 RES1    0.0000
     21 H4         1.8538   -0.0996    5.4051 H         1 RES1    0.0000
     22 C2         1.5758    0.8859    3.6602 C.2       1 RES1    0.0000
     23 C3         0.4053    1.2705    3.0239 C.2       1 RES1    0.0000
     24 H5        -0.3939    0.7955    3.0162 H         1 RES1    0.0000
     25 C4         0.6314    2.4575    2.4186 C.2       1 RES1    0.0000
     26 C5        -0.2970    3.3365    1.6571 C.3       1 RES1    0.0000
     27 H6        -1.1792    2.9599    1.6726 H         1 RES1    0.0000
     28 H7         0.0048    3.4086    0.7486 H         1 RES1    0.0000
     29 H8        -0.3135    4.2087    2.0585 H         1 RES1    0.0000
     30 C6         2.6592    3.9294    2.4431 C.ar      1 RES1    0.0000
     31 C7         3.8611    6.1351    2.1153 C.ar      1 RES1    0.0000
     32 C8         3.9543    8.4162    1.2725 C.ar      1 RES1    0.0000
     33 C9         4.7210    9.1511    0.3575 C.ar      1 RES1    0.0000
     34 C10        4.2557   10.2716   -0.2968 C.ar      1 RES1    0.0000
     35 H9         4.8057   10.7478   -0.8763 H         1 RES1    0.0000
     36 C11        2.9634   10.6665   -0.0710 C.ar      1 RES1    0.0000
     37 C12        2.1443    9.9901    0.7937 C.ar      1 RES1    0.0000
     38 H10        1.2672   10.2659    0.9344 H         1 RES1    0.0000
     39 C13        2.6524    8.8913    1.4519 C.ar      1 RES1    0.0000
@<TRIPOS>BOND
     1    1    2 1
     2    2   25 1
     3    3    4 ar
     4    4   31 ar
     5    5    6 ar
     6    6   30 ar
     7    7    9 1
     8    8   12 2
     9   10   14 2
    10   11   16 2
    11   13    8 2
    12   15   10 2
    13   17   11 2
    14   18   19 1
    15   20   18 1
    16   21   18 1
    17   22    1 2
    18   23   22 1
    19   24   23 1
    20   25   23 2
    21   26   25 1
    22   27   26 1
    23   28   26 1
    24   29   26 1
    25   30    2 1
    26   31    5 ar
    27   32    7 1
    28   33    8 1
    29   34   33 ar
    30   35   34 1
    31   36   10 1
    32   37   36 ar
    33   38   37 1
    34   39   11 1
    35    3   30 ar
    36    7   31 1
    37   18   22 1
    38   32   33 ar
    39   32   39 ar
    40   34   36 ar
    41   37   39 ar
@<TRIPOS>SUBSTRUCTURE
     1 RES1 1

@<TRIPOS>CRYSIN
  11.5490   11.4460   13.4430  90.0000 106.2470  90.0000  14 1

