# MOL2 file generated by ConQuest
# Please check atom types

@<TRIPOS>MOLECULE
YOKLIV
    50    51     2
SMALL
NO_CHARGES
****
Generated from CSD

@<TRIPOS>ATOM
      1 C1         0.2327    2.5262    5.0071 C.3       1 RES1    0.0000
      2 H1        -0.1745    1.6498    4.8441 H         1 RES1    0.0000
      3 C2         1.3449    2.7286    3.9663 C.3       1 RES1    0.0000
      4 H2         1.7557    3.6066    4.1101 H         1 RES1    0.0000
      5 C3         1.5616    3.5810    6.8848 C.ar      1 RES1    0.0000
      6 H3         1.7822    4.2805    6.3136 H         1 RES1    0.0000
      7 C4         0.8342    2.6524    2.5175 C.3       1 RES1    0.0000
      8 H4         0.4130    1.7783    2.3799 H         1 RES1    0.0000
      9 C5         0.7775    2.5301    6.4227 C.ar      1 RES1    0.0000
     10 C6        -0.8536    3.5955    4.7936 C.3       1 RES1    0.0000
     11 H5        -0.4623    4.4774    4.9628 H         1 RES1    0.0000
     12 C7         2.0186    3.5910    8.2029 C.ar      1 RES1    0.0000
     13 H6         2.5448    4.2950    8.5060 H         1 RES1    0.0000
     14 C8         0.4527    1.4975    7.2939 C.ar      1 RES1    0.0000
     15 H7        -0.0700    0.7890    6.9960 H         1 RES1    0.0000
     16 C9         0.9065    1.5175    8.6130 C.ar      1 RES1    0.0000
     17 H8         0.6792    0.8269    9.1931 H         1 RES1    0.0000
     18 N1         2.3918    1.6654    4.1573 N.pl3     1 RES1    0.0000
     19 C10        1.6907    2.5573    9.0571 C.ar      1 RES1    0.0000
     20 H9         2.0004    2.5634    9.9333 H         1 RES1    0.0000
     21 C11       -1.9928    3.3742    5.7726 C.3       1 RES1    0.0000
     22 H10       -2.3937    2.5051    5.6186 H         1 RES1    0.0000
     23 H11       -1.6550    3.3970    6.6821 H         1 RES1    0.0000
     24 C12        1.9587    2.8253    1.4838 C.3       1 RES1    0.0000
     25 H12        1.7875    3.6316    0.9729 H         1 RES1    0.0000
     26 H13        2.7963    2.9499    1.9567 H         1 RES1    0.0000
     27 C13       -0.2252    3.7317    2.3533 C.3       1 RES1    0.0000
     28 H14       -0.5831    3.6950    1.4523 H         1 RES1    0.0000
     29 H15        0.1831    4.6031    2.4783 H         1 RES1    0.0000
     30 O1        -2.9619    4.3879    5.5962 O.3       1 RES1    0.0000
     31 C14        3.0873    1.7627   -0.5658 C.ar      1 RES1    0.0000
     32 C15        3.1166    0.7079   -1.4704 C.ar      1 RES1    0.0000
     33 H16        2.5321   -0.0078   -1.3680 H         1 RES1    0.0000
     34 C16        4.0199    0.7229   -2.5267 C.ar      1 RES1    0.0000
     35 H17        4.0394    0.0172   -3.1326 H         1 RES1    0.0000
     36 C17        4.8939    1.7933   -2.6786 C.ar      1 RES1    0.0000
     37 H18        5.4989    1.8033   -3.3856 H         1 RES1    0.0000
     38 C18        4.8648    2.8481   -1.7740 C.ar      1 RES1    0.0000
     39 H19        5.4494    3.5643   -1.8755 H         1 RES1    0.0000
     40 C19        3.9614    2.8331   -0.7177 C.ar      1 RES1    0.0000
     41 H20        3.9426    3.5388   -0.1124 H         1 RES1    0.0000
     42 C20        2.1068    1.7143    0.5606 C.2       1 RES1    0.0000
     43 O2         2.0346    0.4982    4.2408 O.2       1 RES1    0.0000
     44 C21       -1.3656    3.5588    3.3598 C.3       1 RES1    0.0000
     45 H21       -2.0168    4.2666    3.2325 H         1 RES1    0.0000
     46 H22       -1.8092    2.7119    3.1997 H         1 RES1    0.0000
     47 O3         3.5574    2.0124    4.2191 O.2       1 RES1    0.0000
     48 O4         1.9335    0.5700    1.1540 O.2       1 RES1    0.0000
     49 H23       -3.7766    4.1148    5.9497 H         1 RES1    0.0000
     50 O5         0.9265    1.0593    0.2499 Du        2 SUP2    0.0000
@<TRIPOS>BOND
     1    1    2 1
     2    3    1 1
     3    4    3 1
     4    5    6 1
     5    7    3 1
     6    8    7 1
     7    9    1 1
     8   10    1 1
     9   11   10 1
    10   12    5 ar
    11   13   12 1
    12   14    9 ar
    13   15   14 1
    14   16   14 ar
    15   17   16 1
    16   18    3 1
    17   19   12 ar
    18   20   19 1
    19   21   10 1
    20   22   21 1
    21   23   21 1
    22   24    7 1
    23   25   24 1
    24   26   24 1
    25   27    7 1
    26   28   27 1
    27   29   27 1
    28   30   21 1
    29   31   32 ar
    30   32   33 1
    31   34   32 ar
    32   35   34 1
    33   36   34 ar
    34   37   36 1
    35   38   36 ar
    36   39   38 1
    37   40   31 ar
    38   41   40 1
    39   42   24 1
    40   43   18 2
    41   44   10 1
    42   45   44 1
    43   46   44 1
    44   47   18 2
    45   48   42 2
    46   49   30 1
    47    5    9 ar
    48   16   19 ar
    49   27   44 1
    50   31   42 1
    51   38   40 ar
@<TRIPOS>SUBSTRUCTURE
     1 RES1 1
     2 SUP2 50

@<TRIPOS>CRYSIN
  20.3690    5.5606   16.0810  90.0000 103.8120  90.0000   5 1

