# MOL2 file generated by ConQuest
# Please check atom types

@<TRIPOS>MOLECULE
YOKPOF
    60    66     1
SMALL
NO_CHARGES
****
Generated from CSD

@<TRIPOS>ATOM
      1 C1         9.4714    6.6986    9.8499 C.2       1 RES1    0.0000
      2 C2         9.1789    5.3928   10.4771 C.ar      1 RES1    0.0000
      3 C3         9.7826    4.1632   10.4000 C.ar      1 RES1    0.0000
      4 H1        10.5290    4.0264    9.8627 H         1 RES1    0.0000
      5 C4         9.2288    3.1117   11.1696 C.ar      1 RES1    0.0000
      6 H2         9.6198    2.2682   11.1225 H         1 RES1    0.0000
      7 C5         8.1362    3.2870   11.9787 C.ar      1 RES1    0.0000
      8 H3         7.8224    2.5689   12.4796 H         1 RES1    0.0000
      9 C6         7.4785    4.5294   12.0708 C.ar      1 RES1    0.0000
     10 C7         6.3505    4.8770   12.8521 C.ar      1 RES1    0.0000
     11 H4         5.9479    4.2387   13.3958 H         1 RES1    0.0000
     12 C8         5.8538    6.1437   12.8093 C.ar      1 RES1    0.0000
     13 H5         5.1045    6.3488   13.3198 H         1 RES1    0.0000
     14 C9         6.4334    7.1552   12.0205 C.ar      1 RES1    0.0000
     15 H6         6.0744    8.0130   12.0130 H         1 RES1    0.0000
     16 C10        7.5299    6.8599   11.2680 C.ar      1 RES1    0.0000
     17 C11        8.0464    5.5585   11.2927 C.ar      1 RES1    0.0000
     18 C12        8.3582    7.7102   10.3294 C.3       1 RES1    0.0000
     19 C13        7.5240    8.3362    9.1617 C.3       1 RES1    0.0000
     20 H7         6.5966    8.3905    9.4753 H         1 RES1    0.0000
     21 C14        7.5056    7.5328    7.8848 C.ar      1 RES1    0.0000
     22 C15        6.5167    6.5801    7.6954 C.ar      1 RES1    0.0000
     23 H8         5.8534    6.4842    8.3397 H         1 RES1    0.0000
     24 C16        6.4893    5.7642    6.5705 C.ar      1 RES1    0.0000
     25 H9         5.8146    5.1335    6.4646 H         1 RES1    0.0000
     26 C17        7.4712    5.8999    5.6126 C.ar      1 RES1    0.0000
     27 C18        6.6776    4.0635    4.3272 C.3       1 RES1    0.0000
     28 H10        5.7758    4.3897    4.3400 H         1 RES1    0.0000
     29 H11        6.8028    3.4394    5.0454 H         1 RES1    0.0000
     30 H12        6.8485    3.6261    3.4902 H         1 RES1    0.0000
     31 C19        8.4432    6.8680    5.7732 C.ar      1 RES1    0.0000
     32 H13        9.0917    6.9814    5.1160 H         1 RES1    0.0000
     33 C20        8.4636    7.6637    6.8884 C.ar      1 RES1    0.0000
     34 H14        9.1316    8.3036    6.9794 H         1 RES1    0.0000
     35 C21        8.0362    9.7912    9.0322 C.3       1 RES1    0.0000
     36 H15        8.2964    9.9792    8.1064 H         1 RES1    0.0000
     37 C22        9.2596    9.8558    9.9537 C.3       1 RES1    0.0000
     38 H16       10.0286    9.5047    9.4582 H         1 RES1    0.0000
     39 C23        9.6619   11.1793   10.5574 C.ar      1 RES1    0.0000
     40 C24        9.6336   12.3504    9.7996 C.ar      1 RES1    0.0000
     41 H17        9.3493   12.3215    8.9145 H         1 RES1    0.0000
     42 C25       10.0261   13.5539   10.3540 C.ar      1 RES1    0.0000
     43 H18       10.0047   14.3319    9.8445 H         1 RES1    0.0000
     44 C26       10.4447   13.5967   11.6619 C.ar      1 RES1    0.0000
     45 H19       10.6951   14.4088   12.0429 H         1 RES1    0.0000
     46 C27       10.4969   12.4497   12.4047 C.ar      1 RES1    0.0000
     47 H20       10.7945   12.4896   13.2845 H         1 RES1    0.0000
     48 C28       10.1123   11.2187   11.8706 C.ar      1 RES1    0.0000
     49 C29       10.1879    9.9749   12.7215 C.3       1 RES1    0.0000
     50 H21        9.5042   10.0248   13.4076 H         1 RES1    0.0000
     51 H22       11.0503    9.9507   13.1646 H         1 RES1    0.0000
     52 C30       10.0035    8.6940   11.9423 C.3       1 RES1    0.0000
     53 H23       10.8212    8.4703   11.4714 H         1 RES1    0.0000
     54 H24        9.7888    7.9659   12.5460 H         1 RES1    0.0000
     55 N1         8.9176    8.8926   10.9918 N.3       1 RES1    0.0000
     56 N2         6.9776   10.7713    9.4871 N.pl3     1 RES1    0.0000
     57 O1        10.4169    6.9911    9.1553 O.2       1 RES1    0.0000
     58 O2         7.5700    5.1435    4.4832 O.3       1 RES1    0.0000
     59 O3         6.7671   11.7352    8.7646 O.2       1 RES1    0.0000
     60 O4         6.4050   10.5655   10.5370 O.2       1 RES1    0.0000
@<TRIPOS>BOND
     1    1    2 1
     2    2    3 ar
     3    3    4 1
     4    5    3 ar
     5    6    5 1
     6    7    5 ar
     7    8    7 1
     8    9    7 ar
     9   10    9 ar
    10   11   10 1
    11   12   10 ar
    12   13   12 1
    13   14   12 ar
    14   15   14 1
    15   16   14 ar
    16   17    2 ar
    17   18    1 1
    18   19   18 1
    19   20   19 1
    20   21   19 1
    21   22   21 ar
    22   23   22 1
    23   24   22 ar
    24   25   24 1
    25   26   24 ar
    26   27   28 1
    27   29   27 1
    28   30   27 1
    29   31   26 ar
    30   32   31 1
    31   33   21 ar
    32   34   33 1
    33   35   19 1
    34   36   35 1
    35   37   35 1
    36   38   37 1
    37   39   37 1
    38   40   39 ar
    39   41   40 1
    40   42   40 ar
    41   43   42 1
    42   44   42 ar
    43   45   44 1
    44   46   44 ar
    45   47   46 1
    46   48   39 ar
    47   49   48 1
    48   50   49 1
    49   51   49 1
    50   52   49 1
    51   53   52 1
    52   54   52 1
    53   55   18 1
    54   56   35 1
    55   57    1 2
    56   58   26 1
    57   59   56 2
    58   60   56 2
    59    9   17 ar
    60   16   17 ar
    61   16   18 1
    62   27   58 1
    63   31   33 ar
    64   37   55 1
    65   46   48 ar
    66   52   55 1
@<TRIPOS>SUBSTRUCTURE
     1 RES1 1

@<TRIPOS>CRYSIN
  15.6575   14.2478   11.3666  90.0000 109.6760  90.0000  14 1

