# MOL2 file generated by ConQuest
# Please check atom types

@<TRIPOS>MOLECULE
YOKWEB
   116   120     2
SMALL
NO_CHARGES
****
Generated from CSD

@<TRIPOS>ATOM
      1 O1         7.0610    4.7005   28.7328 O.3       1 RES1    0.0000
      2 O2         2.6487    5.2713   19.1467 O.3       2 RES2    0.0000
      3 O3         4.0298    8.4749   19.9652 O.3       2 RES2    0.0000
      4 O4        10.2354    6.0862   27.8765 O.3       1 RES1    0.0000
      5 C1         3.9994    7.0148   19.9557 C.3       2 RES2    0.0000
      6 O5         9.1031    3.7463   28.5591 O.2       1 RES1    0.0000
      7 O6         5.3397    9.9862   20.9415 O.2       2 RES2    0.0000
      8 N1         4.6028    2.3535   16.7101 N.pl3     2 RES2    0.0000
      9 O7         1.6908    7.2974   19.3350 O.2       2 RES2    0.0000
     10 N2         4.1498    6.6169   31.1917 N.pl3     1 RES1    0.0000
     11 C2         5.0245    3.4181   29.1312 C.3       1 RES1    0.0000
     12 O8        11.7045    7.4262   26.8453 O.2       1 RES1    0.0000
     13 C3         8.7758    6.0790   27.9748 C.3       1 RES1    0.0000
     14 C4         1.4036    3.2084   18.7163 C.3       2 RES2    0.0000
     15 C5         4.6204    3.6767   27.6524 C.3       1 RES1    0.0000
     16 H1         3.6449    3.5318   27.5713 H         1 RES1    0.0000
     17 H2         4.7964    4.6285   27.4436 H         1 RES1    0.0000
     18 O9         5.0653    1.2920   17.0798 O.2       2 RES2    0.0000
     19 C6         8.3765    4.6973   28.4288 C.2       1 RES1    0.0000
     20 C7         1.4284    4.7510   18.5522 C.3       2 RES2    0.0000
     21 H3         1.3939    4.9879   17.5912 H         2 RES2    0.0000
     22 H4         0.6394    5.1496   18.9960 H         2 RES2    0.0000
     23 C8         4.2643    4.4036   30.0737 C.3       1 RES1    0.0000
     24 H5         3.3576    4.5596   29.6784 H         1 RES1    0.0000
     25 C9         4.5683    1.9924   29.6446 C.3       1 RES1    0.0000
     26 H6         4.0698    1.5137   28.9377 H         1 RES1    0.0000
     27 H7         5.3557    1.4489   29.9019 H         1 RES1    0.0000
     28 C10        9.2759    7.7809   26.6422 C.3       1 RES1    0.0000
     29 C11        2.6551    6.5745   19.4608 C.2       2 RES2    0.0000
     30 C12        4.3851    6.6722   21.4338 C.3       2 RES2    0.0000
     31 O10        3.0952    7.0476   30.8143 O.2       1 RES1    0.0000
     32 C13        8.3925    6.5161   26.5509 C.3       1 RES1    0.0000
     33 C14        4.9404    5.7684   30.2358 C.3       1 RES1    0.0000
     34 H8         5.8607    5.6459   30.5787 H         1 RES1    0.0000
     35 H9         4.9964    6.2191   29.3591 H         1 RES1    0.0000
     36 C15        0.0008    2.7785   18.1710 C.3       2 RES2    0.0000
     37 H10       -0.4961    2.2726   18.8619 H         2 RES2    0.0000
     38 H11       -0.5305    3.5758   17.9233 H         2 RES2    0.0000
     39 C16        3.7593    3.1628   17.6398 C.3       2 RES2    0.0000
     40 H12        3.6457    4.0777   17.2784 H         2 RES2    0.0000
     41 H13        4.2002    3.2276   18.5235 H         2 RES2    0.0000
     42 C17        5.6534    7.5599   21.3483 C.3       2 RES2    0.0000
     43 C18        1.6292    2.8122   20.1868 C.3       2 RES2    0.0000
     44 H14        2.5758    2.9915   20.4135 H         2 RES2    0.0000
     45 H15        1.4836    1.8363   20.2730 H         2 RES2    0.0000
     46 C19        0.7346    3.5294   21.2276 C.3       2 RES2    0.0000
     47 H16        0.9138    4.5028   21.1989 H         2 RES2    0.0000
     48 H17       -0.2177    3.3869   21.0009 H         2 RES2    0.0000
     49 C20        4.0786    3.6223   31.3769 C.3       1 RES1    0.0000
     50 H18        3.3712    4.0257   31.9388 H         1 RES1    0.0000
     51 H19        4.9220    3.5782   31.8941 H         1 RES1    0.0000
     52 C21        6.3976    6.9708   20.1070 C.3       2 RES2    0.0000
     53 H20        6.9825    7.6496   19.6856 H         2 RES2    0.0000
     54 H21        6.9433    6.1839   20.3560 H         2 RES2    0.0000
     55 C22        2.3886    2.4832   17.7873 C.3       2 RES2    0.0000
     56 H22        2.5446    1.5714   18.1659 H         2 RES2    0.0000
     57 C23        8.4213    7.2629   28.8898 C.3       1 RES1    0.0000
     58 H23        8.9726    7.2677   29.7103 H         1 RES1    0.0000
     59 H24        7.4627    7.2613   29.1357 H         1 RES1    0.0000
     60 C24        5.0429    8.8295   20.7774 C.2       2 RES2    0.0000
     61 O11        4.5971    6.8411   32.2823 O.2       1 RES1    0.0000
     62 C25        1.6484    2.3062   16.4502 C.3       2 RES2    0.0000
     63 H25        2.0589    1.5938   15.8991 H         2 RES2    0.0000
     64 H26        1.6228    3.1500   15.9311 H         2 RES2    0.0000
     65 C26        6.5320    3.4702   29.3087 C.3       1 RES1    0.0000
     66 H27        6.7553    3.4301   30.2722 H         1 RES1    0.0000
     67 H28        6.9465    2.6889   28.8611 H         1 RES1    0.0000
     68 C27        6.8769    6.8419   26.3843 C.3       1 RES1    0.0000
     69 H29        6.7009    7.1108   25.4578 H         1 RES1    0.0000
     70 H30        6.6321    7.5735   26.9902 H         1 RES1    0.0000
     71 H31        6.3464    6.0470   26.6007 H         1 RES1    0.0000
     72 C28        1.0035    3.0003   22.6330 C.3       2 RES2    0.0000
     73 H32        0.4305    3.4702   23.2741 H         2 RES2    0.0000
     74 H33        1.9437    3.1508   22.8654 H         2 RES2    0.0000
     75 H34        0.8098    2.0405   22.6611 H         2 RES2    0.0000
     76 C29        3.6625    2.2334   30.8692 C.3       1 RES1    0.0000
     77 H35        2.7071    2.2238   30.6106 H         1 RES1    0.0000
     78 H36        3.8146    1.5434   31.5620 H         1 RES1    0.0000
     79 C30        5.2349    6.5689   19.1613 C.3       2 RES2    0.0000
     80 H37        5.2957    7.0428   18.2936 H         2 RES2    0.0000
     81 H38        5.2253    5.5923   18.9960 H         2 RES2    0.0000
     82 C31        0.2441    1.9020   16.9470 C.3       2 RES2    0.0000
     83 H39       -0.4385    2.0725   16.2503 H         2 RES2    0.0000
     84 H40        0.2201    0.9430   17.1890 H         2 RES2    0.0000
     85 C32        5.3085    2.8378   26.6180 C.3       1 RES1    0.0000
     86 H41        5.1437    1.8820   26.8178 H         1 RES1    0.0000
     87 H42        6.2840    2.9939   26.6710 H         1 RES1    0.0000
     88 C33        8.7750    8.4581   27.9506 C.3       1 RES1    0.0000
     89 H43        7.9772    9.0176   27.7756 H         1 RES1    0.0000
     90 H44        9.4832    9.0232   28.3503 H         1 RES1    0.0000
     91 O12        4.8436    2.7937   15.6137 O.2       2 RES2    0.0000
     92 C34        9.3751    8.6958   25.4144 C.3       1 RES1    0.0000
     93 H45        9.9673    9.4499   25.6174 H         1 RES1    0.0000
     94 H46        8.4837    9.0328   25.1832 H         1 RES1    0.0000
     95 H47        9.7368    8.1891   24.6596 H         1 RES1    0.0000
     96 C35       10.5618    7.1317   27.0669 C.2       1 RES1    0.0000
     97 C36        4.6532    5.1768   21.7078 C.3       2 RES2    0.0000
     98 H48        4.8860    5.0544   22.6547 H         2 RES2    0.0000
     99 H49        5.3949    4.8702   21.1478 H         2 RES2    0.0000
    100 H50        3.8490    4.6573   21.4990 H         2 RES2    0.0000
    101 C37        3.3352    7.2173   22.4204 C.3       2 RES2    0.0000
    102 H51        3.1768    8.1675   22.2397 H         2 RES2    0.0000
    103 H52        3.6633    7.1132   23.3379 H         2 RES2    0.0000
    104 H53        2.4974    6.7202   22.3163 H         2 RES2    0.0000
    105 C38        8.8046    5.5299   25.4795 C.3       1 RES1    0.0000
    106 H54        9.7576    5.3217   25.5727 H         1 RES1    0.0000
    107 H55        8.6430    5.9213   24.5958 H         1 RES1    0.0000
    108 H56        8.2797    4.7077   25.5727 H         1 RES1    0.0000
    109 C39        6.5064    7.7560   22.5755 C.3       2 RES2    0.0000
    110 H57        5.9583    8.1251   23.2996 H         2 RES2    0.0000
    111 H58        7.2370    8.3764   22.3674 H         2 RES2    0.0000
    112 H59        6.8793    6.8939   22.8526 H         2 RES2    0.0000
    113 C40        4.8316    3.1436   25.1947 C.3       1 RES1    0.0000
    114 H60        5.3109    2.5712   24.5575 H         1 RES1    0.0000
    115 H61        5.0085    4.0842   24.9853 H         1 RES1    0.0000
    116 H62        3.8690    2.9699   25.1258 H         1 RES1    0.0000
@<TRIPOS>BOND
     1    1   19 1
     2    2   20 1
     3    3    5 1
     4    4   13 1
     5    5   29 1
     6    6   19 2
     7    7   60 2
     8    8   18 2
     9    9   29 2
    10   10   31 2
    11   11   15 1
    12   12   96 2
    13   13   19 1
    14   14   20 1
    15   15   16 1
    16   17   15 1
    17   20   21 1
    18   22   20 1
    19   23   11 1
    20   24   23 1
    21   25   11 1
    22   26   25 1
    23   27   25 1
    24   28   32 1
    25   29    2 1
    26   30    5 1
    27   32   13 1
    28   33   10 1
    29   34   33 1
    30   35   33 1
    31   36   14 1
    32   37   36 1
    33   38   36 1
    34   39    8 1
    35   40   39 1
    36   41   39 1
    37   42   30 1
    38   43   14 1
    39   44   43 1
    40   45   43 1
    41   46   43 1
    42   47   46 1
    43   48   46 1
    44   49   23 1
    45   50   49 1
    46   51   49 1
    47   52   42 1
    48   53   52 1
    49   54   52 1
    50   55   14 1
    51   56   55 1
    52   57   13 1
    53   58   57 1
    54   59   57 1
    55   60    3 1
    56   61   10 2
    57   62   55 1
    58   63   62 1
    59   64   62 1
    60   65    1 1
    61   66   65 1
    62   67   65 1
    63   68   32 1
    64   69   68 1
    65   70   68 1
    66   71   68 1
    67   72   46 1
    68   73   72 1
    69   74   72 1
    70   75   72 1
    71   76   25 1
    72   77   76 1
    73   78   76 1
    74   79    5 1
    75   80   79 1
    76   81   79 1
    77   82   36 1
    78   83   82 1
    79   84   82 1
    80   85   15 1
    81   86   85 1
    82   87   85 1
    83   88   28 1
    84   89   88 1
    85   90   88 1
    86   91    8 2
    87   92   28 1
    88   93   92 1
    89   94   92 1
    90   95   92 1
    91   96    4 1
    92   97   30 1
    93   98   97 1
    94   99   97 1
    95  100   97 1
    96  101   30 1
    97  102  101 1
    98  103  101 1
    99  104  101 1
   100  105   32 1
   101  106  105 1
   102  107  105 1
   103  108  105 1
   104  109   42 1
   105  110  109 1
   106  111  109 1
   107  112  109 1
   108  113   85 1
   109  114  113 1
   110  115  113 1
   111  116  113 1
   112   11   65 1
   113   23   33 1
   114   28   96 1
   115   39   55 1
   116   42   60 1
   117   49   76 1
   118   52   79 1
   119   57   88 1
   120   62   82 1
@<TRIPOS>SUBSTRUCTURE
     1 RES1 1
     2 RES2 2

@<TRIPOS>CRYSIN
   8.0020    8.0050   63.8520  90.0000  90.0000  90.0000  19 1

