# MOL2 file generated by ConQuest
# Please check atom types

@<TRIPOS>MOLECULE
YOKWIF
    58    60     1
SMALL
NO_CHARGES
****
Generated from CSD

@<TRIPOS>ATOM
      1 O1         1.6002    6.6952   11.0314 O.3       1 RES1    0.0000
      2 C1         0.9240    4.4246   11.6298 C.3       1 RES1    0.0000
      3 O2        -2.2530    5.6987   14.3535 O.2       1 RES1    0.0000
      4 C2         0.0905    4.4035   10.3148 C.3       1 RES1    0.0000
      5 H1        -0.3132    5.3119   10.2063 H         1 RES1    0.0000
      6 O3         3.7017    7.4812   10.9578 O.2       1 RES1    0.0000
      7 N1        -1.2073    6.3264   14.2798 N.pl3     1 RES1    0.0000
      8 C3         2.5202    7.6397   10.8074 C.2       1 RES1    0.0000
      9 C4         0.0765    4.7274   12.9006 C.3       1 RES1    0.0000
     10 H2        -0.7431    4.1556   12.8666 H         1 RES1    0.0000
     11 C5         1.8595    8.9159   10.3417 C.3       1 RES1    0.0000
     12 C6        -0.3724    6.1778   13.0411 C.3       1 RES1    0.0000
     13 H3         0.4194    6.7691   13.0982 H         1 RES1    0.0000
     14 H4        -0.9007    6.4436   12.2467 H         1 RES1    0.0000
     15 O4         2.8836    9.9512   10.3100 O.3       1 RES1    0.0000
     16 C7         1.2944    8.9522    8.8880 C.3       1 RES1    0.0000
     17 O5         3.0368   11.9334    9.2571 O.2       1 RES1    0.0000
     18 C8        -1.0619    3.3940   10.3114 C.3       1 RES1    0.0000
     19 H5        -1.6180    3.5361    9.5172 H         1 RES1    0.0000
     20 H6        -1.6055    3.5171   11.1171 H         1 RES1    0.0000
     21 H7        -0.6987    2.4837   10.2967 H         1 RES1    0.0000
     22 C9         2.0977    5.4009   11.4972 C.3       1 RES1    0.0000
     23 H8         2.5442    5.5087   12.3738 H         1 RES1    0.0000
     24 H9         2.7591    5.0447   10.8530 H         1 RES1    0.0000
     25 C10        0.9400    4.2473   14.0895 C.3       1 RES1    0.0000
     26 H10        1.4762    4.9943   14.4552 H         1 RES1    0.0000
     27 H11        0.3675    3.8839   14.8110 H         1 RES1    0.0000
     28 C11        1.8603    3.1444   13.5188 C.3       1 RES1    0.0000
     29 H12        2.8117    3.3851   13.6489 H         1 RES1    0.0000
     30 H13        1.6874    2.2802   13.9694 H         1 RES1    0.0000
     31 C12        1.0465   10.4971    8.9994 C.3       1 RES1    0.0000
     32 C13        1.5278    3.0480   12.0214 C.3       1 RES1    0.0000
     33 H14        0.8747    2.3227   11.8570 H         1 RES1    0.0000
     34 H15        2.3460    2.8651   11.4941 H         1 RES1    0.0000
     35 C14        0.7182    9.4761   11.1983 C.3       1 RES1    0.0000
     36 H16        1.0528    9.8354   12.0575 H         1 RES1    0.0000
     37 H17        0.0283    8.7887   11.3769 H         1 RES1    0.0000
     38 C15        0.9742    4.1489    9.0826 C.3       1 RES1    0.0000
     39 H18        0.4103    4.0874    8.2831 H         1 RES1    0.0000
     40 H19        1.4657    3.3102    9.2009 H         1 RES1    0.0000
     41 H20        1.6096    4.8881    8.9778 H         1 RES1    0.0000
     42 C16        2.4091   10.9347    9.4750 C.2       1 RES1    0.0000
     43 C17        0.0230    8.1368    8.6641 C.3       1 RES1    0.0000
     44 H21        0.2386    7.1817    8.6926 H         1 RES1    0.0000
     45 H22       -0.3578    8.3604    7.7889 H         1 RES1    0.0000
     46 H23       -0.6271    8.3459    9.3661 H         1 RES1    0.0000
     47 C18        0.1720   10.6037   10.2845 C.3       1 RES1    0.0000
     48 H24        0.2779   11.4905   10.7132 H         1 RES1    0.0000
     49 H25       -0.7848   10.4595   10.0764 H         1 RES1    0.0000
     50 O6        -0.8060    7.0621   15.1603 O.2       1 RES1    0.0000
     51 C19        0.5252   11.2523    7.7976 C.3       1 RES1    0.0000
     52 H26        0.5705   12.2152    7.9724 H         1 RES1    0.0000
     53 H27       -0.4054   10.9951    7.6279 H         1 RES1    0.0000
     54 H28        1.0715   11.0365    7.0137 H         1 RES1    0.0000
     55 C20        2.3450    8.5762    7.8459 C.3       1 RES1    0.0000
     56 H29        2.5543    7.6223    7.9230 H         1 RES1    0.0000
     57 H30        3.1580    9.1018    7.9979 H         1 RES1    0.0000
     58 H31        1.9976    8.7630    6.9487 H         1 RES1    0.0000
@<TRIPOS>BOND
     1    1    8 1
     2    2    4 1
     3    3    7 2
     4    4    5 1
     5    6    8 2
     6    7   12 1
     7    8   11 1
     8    9    2 1
     9   10    9 1
    10   11   15 1
    11   12    9 1
    12   13   12 1
    13   14   12 1
    14   15   42 1
    15   16   11 1
    16   17   42 2
    17   18    4 1
    18   19   18 1
    19   20   18 1
    20   21   18 1
    21   22    1 1
    22   23   22 1
    23   24   22 1
    24   25    9 1
    25   26   25 1
    26   27   25 1
    27   28   25 1
    28   29   28 1
    29   30   28 1
    30   31   16 1
    31   32    2 1
    32   33   32 1
    33   34   32 1
    34   35   11 1
    35   36   35 1
    36   37   35 1
    37   38    4 1
    38   39   38 1
    39   40   38 1
    40   41   38 1
    41   42   31 1
    42   43   16 1
    43   44   43 1
    44   45   43 1
    45   46   43 1
    46   47   31 1
    47   48   47 1
    48   49   47 1
    49   50    7 2
    50   51   31 1
    51   52   51 1
    52   53   51 1
    53   54   51 1
    54   55   16 1
    55   56   55 1
    56   57   55 1
    57   58   55 1
    58    2   22 1
    59   28   32 1
    60   35   47 1
@<TRIPOS>SUBSTRUCTURE
     1 RES1 1

@<TRIPOS>CRYSIN
   6.3298   11.1830   14.1630  90.0000  94.4390  90.0000   4 1

