# MOL2 file generated by ConQuest
# Please check atom types

@<TRIPOS>MOLECULE
YOLMUH
    23    25     1
SMALL
NO_CHARGES
****
Generated from CSD

@<TRIPOS>ATOM
      1 O1         1.1580    8.7877    2.5691 O.3       1 RES1    0.0000
      2 O2         3.5222    4.1208   -0.7603 O.2       1 RES1    0.0000
      3 O3         2.8178    5.4316   -2.3129 O.2       1 RES1    0.0000
      4 O4        -0.8958   12.8152    4.2413 O.2       1 RES1    0.0000
      5 O5         1.0830    9.8113   -1.9167 O.3       1 RES1    0.0000
      6 N1         2.9669    5.1373   -1.1404 N.pl3     1 RES1    0.0000
      7 C1         1.9252    7.2532   -0.5435 C.ar      1 RES1    0.0000
      8 C2         2.4890    6.0887   -0.1228 C.ar      1 RES1    0.0000
      9 C3         2.1920    6.6243    2.1858 C.ar      1 RES1    0.0000
     10 C4         2.6325    5.7575    1.2184 C.ar      1 RES1    0.0000
     11 C5         1.6228    7.7923    1.7491 C.ar      1 RES1    0.0000
     12 C6         0.6797    9.7867    1.7213 C.2       1 RES1    0.0000
     13 C7         0.8337    9.4484    0.4239 C.2       1 RES1    0.0000
     14 C8         1.4639    8.1447    0.4196 C.ar      1 RES1    0.0000
     15 C9         0.1843   10.9794    2.4175 C.3       1 RES1    0.0000
     16 C10       -1.0904   10.7416    3.1735 C.3       1 RES1    0.0000
     17 C11       -1.5269   11.8039    4.1228 C.2       1 RES1    0.0000
     18 C12       -2.7403   11.5714    4.9183 C.3       1 RES1    0.0000
     19 C13        0.4563   10.1901   -0.7475 C.2       1 RES1    0.0000
     20 C14       -0.3898   11.2102   -1.0336 C.2       1 RES1    0.0000
     21 C15       -0.2668   11.4639   -2.4218 C.2       1 RES1    0.0000
     22 C16        0.6036   10.6182   -2.9311 C.2       1 RES1    0.0000
     23 C17        1.1916   10.3804   -4.2637 C.3       1 RES1    0.0000
@<TRIPOS>BOND
     1    1   11 1
     2    2    6 2
     3    3    6 2
     4    4   17 2
     5    5   19 1
     6    6    8 1
     7    7    8 ar
     8    8   10 ar
     9    9   10 ar
    10   11    9 ar
    11   12    1 1
    12   13   12 2
    13   14    7 ar
    14   15   12 1
    15   16   15 1
    16   17   16 1
    17   18   17 1
    18   19   13 1
    19   20   19 2
    20   21   20 1
    21   22    5 1
    22   23   22 1
    23   11   14 ar
    24   13   14 1
    25   21   22 2
@<TRIPOS>SUBSTRUCTURE
     1 RES1 1

@<TRIPOS>CRYSIN
  16.3110   17.7300   10.6780  90.0000  90.0000  96.4500  15 4

