# MOL2 file generated by ConQuest
# Please check atom types

@<TRIPOS>MOLECULE
YOLNAO
    28    32     1
SMALL
NO_CHARGES
****
Generated from CSD

@<TRIPOS>ATOM
      1 O1         6.3847    6.6892    5.1221 O.3       1 RES1    0.0000
      2 O2         3.9160    1.0621    4.1645 O.2       1 RES1    0.0000
      3 O3         3.0648    2.1745    2.5611 O.2       1 RES1    0.0000
      4 O4         3.4511    6.8332    1.5461 O.3       1 RES1    0.0000
      5 O5         7.6308   10.7530    1.7810 O.3       1 RES1    0.0000
      6 N1         3.7730    2.0957    3.5416 N.pl3     1 RES1    0.0000
      7 C1         4.2519    4.4812    3.3149 C.ar      1 RES1    0.0000
      8 C2         4.4739    3.3043    3.9918 C.ar      1 RES1    0.0000
      9 C3         5.3377    3.1948    5.0828 C.ar      1 RES1    0.0000
     10 C4         6.0237    4.3019    5.5199 C.ar      1 RES1    0.0000
     11 C5         5.7993    5.4824    4.8438 C.ar      1 RES1    0.0000
     12 C6         4.9285    5.6065    3.7593 C.ar      1 RES1    0.0000
     13 C7         5.0075    6.9949    3.3525 C.2       1 RES1    0.0000
     14 C8         5.8789    7.5921    4.1907 C.2       1 RES1    0.0000
     15 C9         6.3841    8.9863    4.2963 C.3       1 RES1    0.0000
     16 C10        5.5001   10.0347    3.6406 C.3       1 RES1    0.0000
     17 C11        5.3293   10.0177    2.1002 C.3       1 RES1    0.0000
     18 C12        4.6816   11.3283    1.6828 C.3       1 RES1    0.0000
     19 C13        4.3405    7.6220    2.2386 C.2       1 RES1    0.0000
     20 C14        4.4469    8.8467    1.6558 C.2       1 RES1    0.0000
     21 C15        3.5675    8.7998    0.5263 C.2       1 RES1    0.0000
     22 C16        2.9942    7.5891    0.4935 C.2       1 RES1    0.0000
     23 C17        2.0058    6.9273   -0.3855 C.3       1 RES1    0.0000
     24 C18        6.6557    9.8566    1.4045 C.2       1 RES1    0.0000
     25 C19        7.1307    9.0838    0.4125 C.2       1 RES1    0.0000
     26 C20        8.4631    9.5114    0.1514 C.2       1 RES1    0.0000
     27 C21        8.7397   10.5158    0.9953 C.2       1 RES1    0.0000
     28 C22        9.9152   11.3711    1.2359 C.3       1 RES1    0.0000
@<TRIPOS>BOND
     1    1   11 1
     2    2    6 2
     3    3    6 2
     4    4   19 1
     5    5   24 1
     6    6    8 1
     7    7    8 ar
     8    8    9 ar
     9    9   10 ar
    10   10   11 ar
    11   11   12 ar
    12   12    7 ar
    13   13   12 1
    14   14    1 1
    15   15   14 1
    16   16   15 1
    17   17   16 1
    18   18   17 1
    19   19   13 1
    20   20   17 1
    21   21   20 1
    22   22    4 1
    23   23   22 1
    24   24   17 1
    25   25   24 2
    26   26   25 1
    27   27    5 1
    28   28   27 1
    29   13   14 2
    30   19   20 2
    31   21   22 2
    32   26   27 2
@<TRIPOS>SUBSTRUCTURE
     1 RES1 1

@<TRIPOS>CRYSIN
   9.2560   12.0710    8.6830  97.2500 107.3900  94.2400   2 1

