# MOL2 file generated by ConQuest
# Please check atom types

@<TRIPOS>MOLECULE
YOMQUN
   202   200     5
SMALL
NO_CHARGES
****
Generated from CSD

@<TRIPOS>ATOM
      1 O1         5.5902    9.2820  -10.3236 O.3       1 RES1    0.0000
      2 H1         6.0348    8.7965  -10.8120 H         1 RES1    0.0000
      3 O2         2.9543    7.0969   -3.9543 O.3       2 RES2    0.0000
      4 H2         3.1468    7.2463   -4.7364 H         2 RES2    0.0000
      5 N1         5.1920    8.5744   -9.1887 N.2       1 RES1    0.0000
      6 N2         5.8317    8.1648   -0.7148 N.2       2 RES2    0.0000
      7 N3         7.8690    8.6348    2.2779 N.2       3 RES3    0.0000
      8 N4         9.1391    7.6861    8.3877 N.2       4 RES4    0.0000
      9 C1         5.8689   10.4997   -1.6217 C.3       2 RES2    0.0000
     10 H3         6.2392   10.8037   -0.7672 H         2 RES2    0.0000
     11 N5         3.9551    7.6107   -3.1207 N.2       2 RES2    0.0000
     12 N6         9.0754    7.9470    5.0472 N.2       3 RES3    0.0000
     13 C2         9.3501    7.2722    9.5670 C.2       4 RES4    0.0000
     14 O3        10.1610    7.3129    7.5135 O.3       4 RES4    0.0000
     15 H4         9.9805    7.5611    6.7532 H         4 RES4    0.0000
     16 N7         7.4164    8.2424   10.8869 N.2       4 RES4    0.0000
     17 O4         7.5518    9.2967    1.0876 O.3       3 RES3    0.0000
     18 H5         6.9691    8.8741    0.6937 H         3 RES3    0.0000
     19 C3         6.9439    9.1156    9.8036 C.3       4 RES4    0.0000
     20 H6         5.9764    9.0681    9.7554 H         4 RES4    0.0000
     21 H7         7.2983    8.8008    8.9583 H         4 RES4    0.0000
     22 C4         8.7131    9.3333    2.9562 C.2       3 RES3    0.0000
     23 C5         3.8900    7.0932   -1.9570 C.2       2 RES2    0.0000
     24 N8         3.8489    7.7896   -6.4879 N.2       1 RES1    0.0000
     25 C6         9.2373    8.9517    4.3000 C.2       3 RES3    0.0000
     26 C7         4.8735    7.3498   -0.8522 C.2       2 RES2    0.0000
     27 C8         8.9997    6.6405   11.8295 C.3       4 RES4    0.0000
     28 C9         8.4264    7.4878   10.7247 C.2       4 RES4    0.0000
     29 C10        5.6817    6.2675   -5.8344 C.3       1 RES1    0.0000
     30 H8         5.1734    6.0196   -5.0327 H         1 RES1    0.0000
     31 C11        4.4063    9.2665   -8.4759 C.2       1 RES1    0.0000
     32 C12        3.7414   11.2026   -7.2792 C.3       1 RES1    0.0000
     33 C13        2.9477    6.2955    0.0666 C.3       2 RES2    0.0000
     34 C14        9.7018    5.5000   11.0463 C.3       4 RES4    0.0000
     35 C15        6.2392    9.0401   -1.7963 C.3       2 RES2    0.0000
     36 H9         5.8344    8.7167   -2.6163 H         2 RES2    0.0000
     37 H10        7.2027    8.9754   -1.8973 H         2 RES2    0.0000
     38 H11        5.8344    8.7167   -2.6163 Du        5 SUP5    0.0000
     39 H12        7.2027    8.9754   -1.8973 Du        5 SUP5    0.0000
     40 C16        7.4098    6.2653    5.7586 C.3       3 RES3    0.0000
     41 H13        8.0362    6.0109    6.4684 H         3 RES3    0.0000
     42 C17        9.3156   10.6463    2.6209 C.3       3 RES3    0.0000
     43 H14        9.3541   10.8533    1.6630 H         3 RES3    0.0000
     44 C18       11.2135    7.3627   11.1152 C.3       4 RES4    0.0000
     45 H15       12.0470    6.9553   11.3977 H         4 RES4    0.0000
     46 H16       11.4020    8.2338   10.7293 H         4 RES4    0.0000
     47 C19        2.9703    6.0045   -1.4517 C.3       2 RES2    0.0000
     48 H17        2.0903    5.9592   -1.8812 H         2 RES2    0.0000
     49 C20       10.2367    7.4705   12.2935 C.3       4 RES4    0.0000
     50 H18        9.9898    8.3955   12.4520 H         4 RES4    0.0000
     51 H19       10.6163    7.1040   13.1067 H         4 RES4    0.0000
     52 C21       10.6906   10.5428    3.3215 C.3       3 RES3    0.0000
     53 C22        7.3487   10.5644    9.9988 C.3       4 RES4    0.0000
     54 H20        7.0634   10.8533   10.8901 H         4 RES4    0.0000
     55 C23        4.6903    6.6642   -6.9140 C.3       1 RES1    0.0000
     56 H21        5.1734    6.9143   -7.7179 H         1 RES1    0.0000
     57 H22        4.1263    5.9053   -7.1299 H         1 RES1    0.0000
     58 C24        2.2828    7.6042    0.4043 C.3       2 RES2    0.0000
     59 H23        2.6889    8.3114   -0.1034 H         2 RES2    0.0000
     60 H24        2.3929    7.7767    1.3414 H         2 RES2    0.0000
     61 H25        1.3471    7.5589    0.1952 H         2 RES2    0.0000
     62 C25        4.4820    6.3214    0.2090 C.3       2 RES2    0.0000
     63 C26        2.2841    5.1787    0.8752 C.3       2 RES2    0.0000
     64 H26        2.6955    4.3379    0.6592 H         2 RES2    0.0000
     65 H27        1.3498    5.1421    0.6592 H         2 RES2    0.0000
     66 H28        2.3903    5.3555    1.8123 H         2 RES2    0.0000
     67 C27        3.0406   12.5479   -7.1988 C.3       1 RES1    0.0000
     68 H29        2.2111   12.5070   -7.6812 H         1 RES1    0.0000
     69 H30        3.6020   13.2249   -7.5824 H         1 RES1    0.0000
     70 H31        2.8668   12.7592   -6.2800 H         1 RES1    0.0000
     71 C28        3.7586    8.8331   -7.1804 C.2       1 RES1    0.0000
     72 C29       10.4650    6.4572   10.1160 C.3       4 RES4    0.0000
     73 H32       11.0277    6.0217    9.4430 H         4 RES4    0.0000
     74 C30        4.3944   10.7283   -1.6240 C.3       2 RES2    0.0000
     75 H33        4.0267   10.3186   -0.8269 H         2 RES2    0.0000
     76 H34        3.9962   10.2927   -2.3935 H         2 RES2    0.0000
     77 H35        4.0267   10.3186   -0.8269 Du        5 SUP5    0.0000
     78 H36        3.9962   10.2927   -2.3935 Du        5 SUP5    0.0000
     79 C31        3.8940   10.6744   -8.7125 C.3       1 RES1    0.0000
     80 H37        4.4528   11.2220   -9.3006 H         1 RES1    0.0000
     81 C32        2.8668   10.0038   -6.8221 C.3       1 RES1    0.0000
     82 C33        8.8577   10.7628    9.8978 C.3       4 RES4    0.0000
     83 H38        9.1617   10.4027    9.0502 H         4 RES4    0.0000
     84 H39        9.3010   10.2712   10.6075 H         4 RES4    0.0000
     85 C34        8.2207    6.8216    4.6193 C.3       3 RES3    0.0000
     86 H40        8.7728    6.1230    4.2494 H         3 RES3    0.0000
     87 H41        7.6181    7.1148    3.9279 H         3 RES3    0.0000
     88 C35        8.5843   11.6640    3.4845 C.3       3 RES3    0.0000
     89 H42        7.6221   11.5799    3.4019 H         3 RES3    0.0000
     90 H43        8.8498   12.5652    3.2480 H         3 RES3    0.0000
     91 C36       10.0854   10.1591    4.6928 C.3       3 RES3    0.0000
     92 C37        3.8144    4.7303   -1.5459 C.3       2 RES2    0.0000
     93 H44        4.2232    4.6483   -2.4233 H         2 RES2    0.0000
     94 H45        3.2875    3.9369   -1.3621 H         2 RES2    0.0000
     95 C38        5.0527   11.2867   -6.5350 C.3       1 RES1    0.0000
     96 H46        5.4999   10.4394   -6.5878 H         1 RES1    0.0000
     97 H47        4.8828   11.5023   -5.6139 H         1 RES1    0.0000
     98 H48        5.6061   11.9658   -6.9255 H         1 RES1    0.0000
     99 C39        8.7170    4.6052   10.3158 C.3       4 RES4    0.0000
    100 H49        8.2698    4.0296   10.9406 H         4 RES4    0.0000
    101 H50        9.1895    4.0727    9.6704 H         4 RES4    0.0000
    102 H51        8.0694    5.1528    9.8633 H         4 RES4    0.0000
    103 C40        4.8868    4.9739   -0.4502 C.3       2 RES2    0.0000
    104 H52        5.7746    5.0343   -0.8361 H         2 RES2    0.0000
    105 H53        4.8748    4.2559    0.2021 H         2 RES2    0.0000
    106 C41        6.4515    7.2765    6.3167 C.3       3 RES3    0.0000
    107 H54        5.8516    7.5654    5.6116 H         3 RES3    0.0000
    108 H55        6.9426    8.0527    6.6291 H         3 RES3    0.0000
    109 C42        6.6453   11.4117    8.9399 C.3       4 RES4    0.0000
    110 H56        6.8484   11.0603    8.0625 H         4 RES4    0.0000
    111 H57        5.6804   11.3621    9.0732 H         4 RES4    0.0000
    112 C43        9.0595   11.2974    4.8995 C.3       3 RES3    0.0000
    113 H58        8.3123   11.0064    5.4462 H         3 RES3    0.0000
    114 H59        9.4842   12.0564    5.3313 H         3 RES3    0.0000
    115 C44       10.6229    4.6138   11.8870 C.3       4 RES4    0.0000
    116 H60       11.2467    5.1722   12.3579 H         4 RES4    0.0000
    117 H61       11.1020    4.0123   11.3150 H         4 RES4    0.0000
    118 H62       10.1066    4.1093   12.5209 H         4 RES4    0.0000
    119 C45        6.6134    7.3692   -5.4829 C.3       1 RES1    0.0000
    120 H63        6.0905    8.0958   -5.1108 H         1 RES1    0.0000
    121 H64        7.0448    7.6991   -6.2869 H         1 RES1    0.0000
    122 C46        8.0534    6.2632   12.9505 C.3       4 RES4    0.0000
    123 H65        8.5193    5.7350   13.6028 H         4 RES4    0.0000
    124 H66        7.3195    5.7565   12.5945 H         4 RES4    0.0000
    125 H67        7.7190    7.0631   13.3639 H         4 RES4    0.0000
    126 C47       11.0383    9.9370    5.8413 C.3       3 RES3    0.0000
    127 H68       11.5307   10.7455    5.9998 H         3 RES3    0.0000
    128 H69       11.6488    9.2277    5.6299 H         3 RES3    0.0000
    129 H70       10.5406    9.7063    6.6291 H         3 RES3    0.0000
    130 C48       11.5626    9.4541    2.7174 C.3       3 RES3    0.0000
    131 H71       11.0781    8.6262    2.7036 H         3 RES3    0.0000
    132 H72       12.3576    9.3527    3.2457 H         3 RES3    0.0000
    133 H73       11.8041    9.6977    1.8192 H         3 RES3    0.0000
    134 C49        2.3558   10.0232   -5.4117 C.3       1 RES1    0.0000
    135 H74        1.8130   10.8037   -5.2739 H         1 RES1    0.0000
    136 H75        3.1017   10.0426   -4.8076 H         1 RES1    0.0000
    137 H76        1.8315    9.2363   -5.2463 H         1 RES1    0.0000
    138 C50        2.4500   10.4846   -9.1765 C.3       1 RES1    0.0000
    139 H77        2.3823    9.8227   -9.8817 H         1 RES1    0.0000
    140 H78        2.0757   11.3233   -9.4912 H         1 RES1    0.0000
    141 C51        4.0148   12.1706   -1.6217 C.3       2 RES2    0.0000
    142 H79        3.0512   12.2547   -1.6814 H         2 RES2    0.0000
    143 H80        4.2988   12.5803   -0.7902 H         2 RES2    0.0000
    144 H81        3.0512   12.2547   -1.6814 Du        5 SUP5    0.0000
    145 H82        4.2988   12.5803   -0.7902 Du        5 SUP5    0.0000
    146 C52        8.5578   13.0050    8.8687 C.3       4 RES4    0.0000
    147 H83        8.7900   13.9450    8.9376 H         4 RES4    0.0000
    148 H84        8.8538   12.6837    8.0027 H         4 RES4    0.0000
    149 C53        6.6798    5.0105    5.3313 C.3       3 RES3    0.0000
    150 H85        7.3129    4.3508    5.0098 H         3 RES3    0.0000
    151 H86        6.0826    5.2391    4.6032 H         3 RES3    0.0000
    152 C54        5.0925    6.5456    1.5734 C.3       2 RES2    0.0000
    153 H87        4.7965    5.8557    2.1730 H         2 RES2    0.0000
    154 H88        4.8257    7.4037    1.9157 H         2 RES2    0.0000
    155 H89        6.0481    6.5154    1.4976 H         2 RES2    0.0000
    156 C55        4.6545   12.9037   -2.7610 C.3       2 RES2    0.0000
    157 H90        4.3094   12.5522   -3.5971 H         2 RES2    0.0000
    158 H91        4.4222   13.8437   -2.7128 H         2 RES2    0.0000
    159 H92        4.3094   12.5522   -3.5971 Du        5 SUP5    0.0000
    160 H93        4.4222   13.8437   -2.7128 Du        5 SUP5    0.0000
    161 C56        9.2360   12.2353    9.9759 C.3       4 RES4    0.0000
    162 H94        8.9812   12.5889   10.8418 H         4 RES4    0.0000
    163 H95       10.1969   12.3259    9.8817 H         4 RES4    0.0000
    164 C57        6.5272   11.3018   -2.7311 C.3       2 RES2    0.0000
    165 H96        6.2843   10.9115   -3.5856 H         2 RES2    0.0000
    166 H97        7.4907   11.2392   -2.6438 H         2 RES2    0.0000
    167 C58       11.4790   11.8278    3.3307 C.3       3 RES3    0.0000
    168 H98       10.9428   12.5264    3.7120 H         3 RES3    0.0000
    169 H99       11.7125   12.0607    2.4279 H         3 RES3    0.0000
    170 H100      12.2793   11.7200    3.8498 H         3 RES3    0.0000
    171 C59        6.0985   12.7420   -2.7403 C.3       2 RES2    0.0000
    172 H101       6.4515   13.1710   -1.9479 H         2 RES2    0.0000
    173 H102       6.4794   13.1818   -3.5167 H         2 RES2    0.0000
    174 H103       6.4515   13.1710   -1.9479 Du        5 SUP5    0.0000
    175 H104       6.4794   13.1818   -3.5167 Du        5 SUP5    0.0000
    176 C60        6.4674    5.0386   -6.3030 C.3       1 RES1    0.0000
    177 H105       5.8450    4.3120   -6.4569 H         1 RES1    0.0000
    178 H106       6.9107    5.2369   -7.1437 H         1 RES1    0.0000
    179 C61        1.7599   10.0146   -7.8994 C.3       1 RES1    0.0000
    180 H107       1.3883    9.1285   -8.0211 H         1 RES1    0.0000
    181 H108       1.0445   10.6226   -7.6513 H         1 RES1    0.0000
    182 C62        7.0726   12.8649    8.9859 C.3       4 RES4    0.0000
    183 H109       6.6493   13.3456    8.2692 H         4 RES4    0.0000
    184 H110       6.7820   13.2594    9.8312 H         4 RES4    0.0000
    185 C63        5.8344    4.4457    6.4684 C.3       3 RES3    0.0000
    186 H111       5.3407    3.6695    6.1606 H         3 RES3    0.0000
    187 H112       6.4369    4.1611    7.1712 H         3 RES3    0.0000
    188 C64        4.8947    5.4719    7.0196 C.3       3 RES3    0.0000
    189 H113       4.4196    5.0882    7.7868 H         3 RES3    0.0000
    190 H114       4.2338    5.6918    6.3397 H         3 RES3    0.0000
    191 C65        7.6593    6.9596   -4.4516 C.3       1 RES1    0.0000
    192 H115       7.2465    6.7763   -3.5925 H         1 RES1    0.0000
    193 H116       8.2897    7.6883   -4.3321 H         1 RES1    0.0000
    194 C66        5.6220    6.7289    7.4584 C.3       3 RES3    0.0000
    195 H117       6.1980    6.5327    8.2003 H         3 RES3    0.0000
    196 H118       4.9770    7.3951    7.7409 H         3 RES3    0.0000
    197 C67        7.4894    4.6117   -5.2877 C.3       1 RES1    0.0000
    198 H119       7.9911    3.8614   -5.6391 H         1 RES1    0.0000
    199 H120       7.0395    4.3185   -4.4791 H         1 RES1    0.0000
    200 C68        8.4144    5.7285   -4.9523 C.3       1 RES1    0.0000
    201 H121       8.9334    5.9570   -5.7379 H         1 RES1    0.0000
    202 H122       9.0303    5.4288   -4.2632 H         1 RES1    0.0000
@<TRIPOS>BOND
     1    1    2 1
     2    3    4 1
     3    5    1 1
     4    6   26 2
     5    7   17 1
     6    8   13 2
     7    9   10 1
     8   11    3 1
     9   12   25 2
    10   13   28 1
    11   14    8 1
    12   15   14 1
    13   16   19 1
    14   17   18 1
    15   19   20 1
    16   21   19 1
    17   22    7 2
    18   23   11 2
    19   24   55 1
    20   25   22 1
    21   26   23 1
    22   27   28 1
    23   28   16 2
    24   29   30 1
    25   31    5 2
    26   32   67 1
    27   33   47 1
    28   34   27 1
    29   35    6 1
    30   36   35 1
    31   37   35 1
    32   40   41 1
    33   42   22 1
    34   43   42 1
    35   44   45 1
    36   46   44 1
    37   47   23 1
    38   48   47 1
    39   49   27 1
    40   50   49 1
    41   51   49 1
    42   52   42 1
    43   53   19 1
    44   54   53 1
    45   55   29 1
    46   56   55 1
    47   57   55 1
    48   58   33 1
    49   59   58 1
    50   60   58 1
    51   61   58 1
    52   62   26 1
    53   63   33 1
    54   64   63 1
    55   65   63 1
    56   66   63 1
    57   67   68 1
    58   69   67 1
    59   70   67 1
    60   71   24 2
    61   72   13 1
    62   73   72 1
    63   74    9 1
    64   75   74 1
    65   76   74 1
    66   79   31 1
    67   80   79 1
    68   81   32 1
    69   82   53 1
    70   83   82 1
    71   84   82 1
    72   85   12 1
    73   86   85 1
    74   87   85 1
    75   88   42 1
    76   89   88 1
    77   90   88 1
    78   91   25 1
    79   92   47 1
    80   93   92 1
    81   94   92 1
    82   95   32 1
    83   96   95 1
    84   97   95 1
    85   98   95 1
    86   99   34 1
    87  100   99 1
    88  101   99 1
    89  102   99 1
    90  103   62 1
    91  104  103 1
    92  105  103 1
    93  106   40 1
    94  107  106 1
    95  108  106 1
    96  109   53 1
    97  110  109 1
    98  111  109 1
    99  112   88 1
   100  113  112 1
   101  114  112 1
   102  115   34 1
   103  116  115 1
   104  117  115 1
   105  118  115 1
   106  119   29 1
   107  120  119 1
   108  121  119 1
   109  122   27 1
   110  123  122 1
   111  124  122 1
   112  125  122 1
   113  126   91 1
   114  127  126 1
   115  128  126 1
   116  129  126 1
   117  130   52 1
   118  131  130 1
   119  132  130 1
   120  133  130 1
   121  134   81 1
   122  135  134 1
   123  136  134 1
   124  137  134 1
   125  138   79 1
   126  139  138 1
   127  140  138 1
   128  141   74 1
   129  142  141 1
   130  143  141 1
   131  146  147 1
   132  148  146 1
   133  149   40 1
   134  150  149 1
   135  151  149 1
   136  152   62 1
   137  153  152 1
   138  154  152 1
   139  155  152 1
   140  156  141 1
   141  157  156 1
   142  158  156 1
   143  161   82 1
   144  162  161 1
   145  163  161 1
   146  164    9 1
   147  165  164 1
   148  166  164 1
   149  167   52 1
   150  168  167 1
   151  169  167 1
   152  170  167 1
   153  171  156 1
   154  172  171 1
   155  173  171 1
   156  176   29 1
   157  177  176 1
   158  178  176 1
   159  179   81 1
   160  180  179 1
   161  181  179 1
   162  182  109 1
   163  183  182 1
   164  184  182 1
   165  185  149 1
   166  186  185 1
   167  187  185 1
   168  188  185 1
   169  189  188 1
   170  190  188 1
   171  191  119 1
   172  192  191 1
   173  193  191 1
   174  194  106 1
   175  195  194 1
   176  196  194 1
   177  197  176 1
   178  198  197 1
   179  199  197 1
   180  200  191 1
   181  201  200 1
   182  202  200 1
   183    9   35 1
   184   31   71 1
   185   32   79 1
   186   33   62 1
   187   34   72 1
   188   40   85 1
   189   44   49 1
   190   44   72 1
   191   52   91 1
   192   71   81 1
   193   91  112 1
   194   92  103 1
   195  138  179 1
   196  146  161 1
   197  146  182 1
   198  164  171 1
   199  188  194 1
   200  197  200 1
@<TRIPOS>SUBSTRUCTURE
     1 RES1 1
     2 RES2 3
     3 RES3 7
     4 RES4 8
     5 SUP5 38

@<TRIPOS>CRYSIN
  13.2720   21.5600   22.9700  90.0000  90.0000  90.0000  19 1

