# MOL2 file generated by ConQuest
# Please check atom types

@<TRIPOS>MOLECULE
YOMXAZ
    62    65     1
SMALL
NO_CHARGES
****
Generated from CSD

@<TRIPOS>ATOM
      1 C1         2.6827    5.3022    0.0847 C.3       1 RES1    0.0000
      2 C2         2.5715    6.7981    0.1054 C.3       1 RES1    0.0000
      3 C3         3.0485    7.5764   -1.0945 C.3       1 RES1    0.0000
      4 C4         3.8309    7.6146    0.1586 C.3       1 RES1    0.0000
      5 C5         2.3211    8.8081   -1.5782 C.3       1 RES1    0.0000
      6 O1         2.9748    4.8749    1.4531 O.3       1 RES1    0.0000
      7 C6         4.0540    4.1174    1.6314 C.2       1 RES1    0.0000
      8 O2         4.7904    3.7491    0.7743 O.2       1 RES1    0.0000
      9 C7         4.1731    3.6848    3.0599 C.ar      1 RES1    0.0000
     10 C8         5.3577    3.0351    3.3860 C.ar      1 RES1    0.0000
     11 C9         5.5481    2.6251    4.6952 C.ar      1 RES1    0.0000
     12 C10        4.6115    2.8196    5.6814 C.ar      1 RES1    0.0000
     13 C11        3.4427    3.4572    5.3021 C.ar      1 RES1    0.0000
     14 C12        3.1996    3.8968    4.0076 C.ar      1 RES1    0.0000
     15 N1         6.8142    1.9614    5.0341 N.pl3     1 RES1    0.0000
     16 O3         7.6329    1.7755    4.1721 O.2       1 RES1    0.0000
     17 O4         6.9675    1.6053    6.1966 O.2       1 RES1    0.0000
     18 N2         2.4278    3.7109    6.3405 N.pl3     1 RES1    0.0000
     19 O5         2.6192    3.2765    7.4340 O.2       1 RES1    0.0000
     20 O6         1.4508    4.3380    6.0449 O.2       1 RES1    0.0000
     21 C13        1.4252    4.5500   -0.3251 C.3       1 RES1    0.0000
     22 C14        1.5698    3.0768   -0.3566 C.3       1 RES1    0.0000
     23 C15        0.3878    2.1751   -0.2207 C.3       1 RES1    0.0000
     24 C16        1.3272    2.3332    0.9211 C.3       1 RES1    0.0000
     25 C17        0.3380    0.8652   -0.9645 C.3       1 RES1    0.0000
     26 O7         1.1245    5.0260   -1.6915 O.3       1 RES1    0.0000
     27 C18        0.1504    5.8964   -1.8610 C.2       1 RES1    0.0000
     28 O8        -0.5836    6.3047   -0.9989 O.2       1 RES1    0.0000
     29 C19        0.0242    6.3550   -3.2727 C.ar      1 RES1    0.0000
     30 C20       -1.1194    7.0673   -3.6480 C.ar      1 RES1    0.0000
     31 C21       -1.2553    7.4582   -4.9474 C.ar      1 RES1    0.0000
     32 C22       -0.3022    7.2220   -5.9040 C.ar      1 RES1    0.0000
     33 C23        0.8389    6.5253   -5.5247 C.ar      1 RES1    0.0000
     34 C24        1.0224    6.0892   -4.2086 C.ar      1 RES1    0.0000
     35 N3        -2.4697    8.2070   -5.3287 N.pl3     1 RES1    0.0000
     36 O9        -3.3002    8.4172   -4.4834 O.2       1 RES1    0.0000
     37 O10       -2.5652    8.5666   -6.4774 O.2       1 RES1    0.0000
     38 N4         1.8758    6.2230   -6.5178 N.pl3     1 RES1    0.0000
     39 O11        1.6614    6.5427   -7.6527 O.2       1 RES1    0.0000
     40 O12        2.8478    5.6480   -6.1740 O.2       1 RES1    0.0000
     41 H1         3.4062    5.0712   -0.4955 H         1 RES1    0.0000
     42 H2         1.8088    7.1542    0.5674 H         1 RES1    0.0000
     43 H3         3.4176    7.0395   -1.7999 H         1 RES1    0.0000
     44 H4         4.6597    7.1316    0.1901 H         1 RES1    0.0000
     45 H5         3.8230    8.4346    0.6591 H         1 RES1    0.0000
     46 H6         1.4748    8.5771   -1.9683 H         1 RES1    0.0000
     47 H7         2.8530    9.2859   -2.2176 H         1 RES1    0.0000
     48 H8         2.1826    9.3779   -0.8177 H         1 RES1    0.0000
     49 H9         6.0291    2.8787    2.7180 H         1 RES1    0.0000
     50 H10        4.7604    2.5156    6.5808 H         1 RES1    0.0000
     51 H11        2.3719    4.3207    3.7682 H         1 RES1    0.0000
     52 H12        0.7065    4.7897    0.2650 H         1 RES1    0.0000
     53 H13        2.2727    2.7380   -0.9162 H         1 RES1    0.0000
     54 H14       -0.4543    2.6233   -0.1172 H         1 RES1    0.0000
     55 H15        1.0538    2.8474    1.6836 H         1 RES1    0.0000
     56 H16        1.8944    1.5844    1.1221 H         1 RES1    0.0000
     57 H17        1.1792    0.7297   -1.4048 H         1 RES1    0.0000
     58 H18       -0.3509    0.8878   -1.6334 H         1 RES1    0.0000
     59 H19        0.1720    0.1459   -0.3507 H         1 RES1    0.0000
     60 H20       -1.8006    7.2689   -3.0018 H         1 RES1    0.0000
     61 H21       -0.4240    7.5173   -6.8094 H         1 RES1    0.0000
     62 H22        1.8236    5.6184   -3.9652 H         1 RES1    0.0000
@<TRIPOS>BOND
     1    1    2 1
     2    2    3 1
     3    3    4 1
     4    4    2 1
     5    5    3 1
     6    6    1 1
     7    7    6 1
     8    8    7 2
     9    9    7 1
    10   10    9 ar
    11   11   10 ar
    12   12   11 ar
    13   13   12 ar
    14   14    9 ar
    15   15   11 1
    16   16   15 2
    17   17   15 2
    18   18   13 1
    19   19   18 2
    20   20   18 2
    21   21    1 1
    22   22   21 1
    23   23   22 1
    24   24   22 1
    25   25   23 1
    26   26   21 1
    27   27   26 1
    28   28   27 2
    29   29   27 1
    30   30   29 ar
    31   31   30 ar
    32   32   31 ar
    33   33   32 ar
    34   34   29 ar
    35   35   31 1
    36   36   35 2
    37   37   35 2
    38   38   33 1
    39   39   38 2
    40   40   38 2
    41   41    1 1
    42   42    2 1
    43   43    3 1
    44   44    4 1
    45   45    4 1
    46   46    5 1
    47   47    5 1
    48   48    5 1
    49   49   10 1
    50   50   12 1
    51   51   14 1
    52   52   21 1
    53   53   22 1
    54   54   23 1
    55   55   24 1
    56   56   24 1
    57   57   25 1
    58   58   25 1
    59   59   25 1
    60   60   30 1
    61   61   32 1
    62   62   34 1
    63   13   14 ar
    64   23   24 1
    65   33   34 ar
@<TRIPOS>SUBSTRUCTURE
     1 RES1 1

@<TRIPOS>CRYSIN
   7.3030   17.3730   10.1670  90.0000 104.3100  90.0000   4 1

