# MOL2 file generated by ConQuest
# Please check atom types

@<TRIPOS>MOLECULE
YOMYUU
    36    37     1
SMALL
USER_CHARGES
****
Generated from CSD

@<TRIPOS>ATOM
      1 O1        -1.0752   -2.5724    9.8228 O.3       1 RES1    0.0000
      2 O2         2.7173   -2.0971    7.1438 O.3       1 RES1    0.0000
      3 O3         0.2252    1.1090    4.5795 O.2       1 RES1    0.0000
      4 O4        -2.4845    1.7050    8.2754 O.2       1 RES1   -1.0000
      5 N1        -0.5802    1.6377    5.4343 N.3       1 RES1    0.0000
      6 N2        -1.8908    1.8773    7.1466 N.pl3     1 RES1    1.0000
      7 C1        -0.4433   -1.8575    8.8422 C.ar      1 RES1    0.0000
      8 C2        -1.0421   -0.7862    8.2410 C.ar      1 RES1    0.0000
      9 C3        -0.3464   -0.0832    7.2408 C.ar      1 RES1    0.0000
     10 C4         0.9349   -0.5208    6.8651 C.ar      1 RES1    0.0000
     11 C5         1.4922   -1.6100    7.4822 C.ar      1 RES1    0.0000
     12 C6         0.8095   -2.2694    8.4749 C.ar      1 RES1    0.0000
     13 C7        -0.9245    1.0911    6.6274 C.2       1 RES1    0.0000
     14 C8        -1.1175    3.0259    5.2628 C.3       1 RES1    0.0000
     15 C9        -1.4690    3.2952    3.8124 C.3       1 RES1    0.0000
     16 C10       -0.0296    3.9685    5.7447 C.3       1 RES1    0.0000
     17 C11       -2.3433    2.9447    6.2089 C.3       1 RES1    0.0000
     18 C12       -2.6515    4.2180    6.9770 C.3       1 RES1    0.0000
     19 C13       -3.5937    2.4041    5.5313 C.3       1 RES1    0.0000
     20 H1        -2.0150   -2.2971    9.9551 H         1 RES1    0.0000
     21 H2         3.0583   -1.6833    6.4037 H         1 RES1    0.0000
     22 H3        -1.9502   -0.4951    8.4731 H         1 RES1    0.0000
     23 H4         1.4342   -0.0594    6.1987 H         1 RES1    0.0000
     24 H5         1.2081   -2.9704    8.9018 H         1 RES1    0.0000
     25 H6        -0.5878    3.3665    3.3184 H         1 RES1    0.0000
     26 H7        -1.8463    4.1982    3.8124 H         1 RES1    0.0000
     27 H8        -1.9980    2.6536    3.4209 H         1 RES1    0.0000
     28 H9         0.3033    3.7626    6.7300 H         1 RES1    0.0000
     29 H10        0.7686    3.7428    5.2199 H         1 RES1    0.0000
     30 H11       -0.3139    4.8913    5.6673 H         1 RES1    0.0000
     31 H12       -1.8876    4.5151    7.5969 H         1 RES1    0.0000
     32 H13       -2.8602    4.8715    6.3385 H         1 RES1    0.0000
     33 H14       -3.3617    4.0794    7.5316 H         1 RES1    0.0000
     34 H15       -4.3130    2.2773    6.2080 H         1 RES1    0.0000
     35 H16       -4.0015    3.1091    4.9123 H         1 RES1    0.0000
     36 H17       -3.4314    1.5248    5.0708 H         1 RES1    0.0000
@<TRIPOS>BOND
     1    1    7 1
     2    2   11 1
     3    3    5 1
     4    4    6 1
     5    5   13 1
     6    6   13 2
     7    7    8 ar
     8    8    9 ar
     9    9   10 ar
    10   10   11 ar
    11   11   12 ar
    12   12    7 ar
    13   13    9 1
    14   14    5 1
    15   15   14 1
    16   16   14 1
    17   17    6 1
    18   18   17 1
    19   19   17 1
    20   20    1 1
    21   21    2 1
    22   22    8 1
    23   23   10 1
    24   24   12 1
    25   25   15 1
    26   26   15 1
    27   27   15 1
    28   28   16 1
    29   29   16 1
    30   30   16 1
    31   31   18 1
    32   32   18 1
    33   33   18 1
    34   34   19 1
    35   35   19 1
    36   36   19 1
    37   14   17 1
@<TRIPOS>SUBSTRUCTURE
     1 RES1 1

@<TRIPOS>CRYSIN
   6.9880   19.8030    9.8060  90.0000 108.0900  90.0000 231 1

