# MOL2 file generated by ConQuest
# Please check atom types

@<TRIPOS>MOLECULE
YOMYUU01
    36    37     1
SMALL
NO_CHARGES
****
Generated from CSD

@<TRIPOS>ATOM
      1 O1         8.6468    8.2082    0.2107 O.2       1 RES1    0.0000
      2 O2         4.2882    8.7987    1.6334 O.2       1 RES1    0.0000
      3 N1         7.3961    8.0298    0.4182 N.pl3     1 RES1    0.0000
      4 N2         5.3509    8.2716    1.1355 N.3       1 RES1    0.0000
      5 C1         6.5927    8.8106    1.1747 C.2       1 RES1    0.0000
      6 C2         6.6393    6.9577   -0.3071 C.3       1 RES1    0.0000
      7 C3         5.3544    6.8805    0.5651 C.3       1 RES1    0.0000
      8 C4         6.3903    7.5106   -1.7072 C.3       1 RES1    0.0000
      9 C5         7.4597    5.6855   -0.3663 C.3       1 RES1    0.0000
     10 C6         5.4803    5.9352    1.7617 C.3       1 RES1    0.0000
     11 C7         4.0813    6.6070   -0.2088 C.3       1 RES1    0.0000
     12 O3         5.9503   12.0111    4.8106 O.3       1 RES1    0.0000
     13 O4         9.6847   12.4887    2.0363 O.3       1 RES1    0.0000
     14 C8         7.0004    9.9997    1.9260 C.ar      1 RES1    0.0000
     15 C9         8.1635   10.6853    1.5656 C.ar      1 RES1    0.0000
     16 C10        8.5564   11.7753    2.3202 C.ar      1 RES1    0.0000
     17 C11        7.8157   12.1954    3.4138 C.ar      1 RES1    0.0000
     18 C12        6.6517   11.5236    3.7469 C.ar      1 RES1    0.0000
     19 C13        6.2340   10.4257    3.0202 C.ar      1 RES1    0.0000
     20 H1         8.6906   10.4039    0.8044 H         1 RES1    0.0000
     21 H2         8.0792   12.9207    3.9423 H         1 RES1    0.0000
     22 H3         5.4317    9.9878    3.2709 H         1 RES1    0.0000
     23 H4         5.8762    6.8765   -2.2138 H         1 RES1    0.0000
     24 H5         7.2758    7.6494   -2.1407 H         1 RES1    0.0000
     25 H6         5.7954    8.3826   -1.6953 H         1 RES1    0.0000
     26 H7         8.2588    5.8460   -0.9108 H         1 RES1    0.0000
     27 H8         6.9306    4.9741   -0.6914 H         1 RES1    0.0000
     28 H9         7.7762    5.3704    0.5983 H         1 RES1    0.0000
     29 H10        5.5472    4.9741    1.5025 H         1 RES1    0.0000
     30 H11        6.3058    6.0640    2.3069 H         1 RES1    0.0000
     31 H12        4.6783    6.0046    2.3002 H         1 RES1    0.0000
     32 H13        4.1917    5.8064   -0.6914 H         1 RES1    0.0000
     33 H14        3.3713    6.5198    0.4388 H         1 RES1    0.0000
     34 H15        3.8717    7.3521   -0.8842 H         1 RES1    0.0000
     35 H16       10.0604   12.1875    1.2698 H         1 RES1    0.0000
     36 H17        5.1336   11.6524    4.8465 H         1 RES1    0.0000
@<TRIPOS>BOND
     1    1    3 1
     2    2    4 1
     3    3    5 2
     4    4    5 1
     5    5   14 1
     6    6    3 1
     7    7    4 1
     8    8    6 1
     9    9    6 1
    10   10    7 1
    11   11    7 1
    12   12   18 1
    13   13   16 1
    14   14   15 ar
    15   15   16 ar
    16   16   17 ar
    17   17   18 ar
    18   18   19 ar
    19   19   14 ar
    20   20   15 1
    21   21   17 1
    22   22   19 1
    23   23    8 1
    24   24    8 1
    25   25    8 1
    26   26    9 1
    27   27    9 1
    28   28    9 1
    29   29   10 1
    30   30   10 1
    31   31   10 1
    32   32   11 1
    33   33   11 1
    34   34   11 1
    35   35   13 1
    36   36   12 1
    37    6    7 1
@<TRIPOS>SUBSTRUCTURE
     1 RES1 1

@<TRIPOS>CRYSIN
   9.8170   19.8170    6.9930  90.0000 108.0700  90.0000 231 1

