# MOL2 file generated by ConQuest
# Please check atom types

@<TRIPOS>MOLECULE
YONDOV
   140   144     4
SMALL
NO_CHARGES
****
Generated from CSD

@<TRIPOS>ATOM
      1 C1         6.7033    6.1803   10.0370 C.2       1 RES1    0.0000
      2 C2         8.4391    5.7972    8.4777 C.ar      1 RES1    0.0000
      3 C3         8.0705    6.4475    7.3074 C.ar      1 RES1    0.0000
      4 C4         9.0171    6.9166    6.4089 C.ar      1 RES1    0.0000
      5 H1         8.7487    7.3764    5.6221 H         1 RES1    0.0000
      6 C5        10.3610    6.7051    6.6751 C.ar      1 RES1    0.0000
      7 H2        11.0193    7.0065    6.0596 H         1 RES1    0.0000
      8 C6        10.7456    6.0551    7.8383 C.ar      1 RES1    0.0000
      9 H3        11.6672    5.9113    8.0173 H         1 RES1    0.0000
     10 C7         9.7895    5.6155    8.7392 C.ar      1 RES1    0.0000
     11 H4        10.0607    5.1871    9.5415 H         1 RES1    0.0000
     12 C8         4.9820    6.2529   11.7765 C.3       1 RES1    0.0000
     13 H5         4.7750    7.1557   11.3997 H         1 RES1    0.0000
     14 C9         3.6760    5.4746   11.9187 C.3       1 RES1    0.0000
     15 H6         3.8736    4.5501   12.2126 H         1 RES1    0.0000
     16 H7         3.2236    5.4273   11.0388 H         1 RES1    0.0000
     17 C10        2.7475    6.1441   12.9326 C.3       1 RES1    0.0000
     18 H8         2.4646    7.0269   12.5859 H         1 RES1    0.0000
     19 H9         1.9364    5.5887   13.0504 H         1 RES1    0.0000
     20 C11        3.4299    6.3277   14.2760 C.3       1 RES1    0.0000
     21 H10        3.6368    5.4412   14.6659 H         1 RES1    0.0000
     22 H11        2.8183    6.7997   14.8961 H         1 RES1    0.0000
     23 C12        4.7175    7.1279   14.1232 C.3       1 RES1    0.0000
     24 H12        5.1640    7.2105   15.0039 H         1 RES1    0.0000
     25 H13        4.5055    8.0385   13.7970 H         1 RES1    0.0000
     26 C13        5.6550    6.4343   13.1350 C.3       1 RES1    0.0000
     27 H14        6.4774    6.9759   13.0255 H         1 RES1    0.0000
     28 H15        5.9161    5.5497   13.4942 H         1 RES1    0.0000
     29 N1         5.8682    5.5467   10.8377 N.am      1 RES1    0.0000
     30 H16        5.9270    4.6771   10.8957 H         1 RES1    0.0000
     31 N2         6.6602    6.6654    6.9665 N.pl3     1 RES1    0.0000
     32 O1         6.7965    7.3775    9.8383 O.2       1 RES1    0.0000
     33 O2         7.5386    5.2775    9.3985 O.3       1 RES1    0.0000
     34 O3         5.8402    5.8154    7.3016 O.2       1 RES1    0.0000
     35 O4         6.3803    7.6819    6.3396 O.2       1 RES1    0.0000
     36 C14       13.1682    4.8579    0.3214 C.2       2 RES2    0.0000
     37 C15       11.5523    5.1264    2.0031 C.ar      2 RES2    0.0000
     38 C16       11.8000    4.7699    3.3218 C.ar      2 RES2    0.0000
     39 C17       10.7909    4.3090    4.1534 C.ar      2 RES2    0.0000
     40 H17       10.9760    4.0828    5.0580 H         2 RES2    0.0000
     41 C18        9.5161    4.1829    3.6462 C.ar      2 RES2    0.0000
     42 H18        8.8161    3.8547    4.1974 H         2 RES2    0.0000
     43 C19        9.2555    4.5362    2.3287 C.ar      2 RES2    0.0000
     44 H19        8.3761    4.4463    1.9805 H         2 RES2    0.0000
     45 C20       10.2683    5.0175    1.5174 C.ar      2 RES2    0.0000
     46 H20       10.0770    5.2743    0.6221 H         2 RES2    0.0000
     47 C21       14.9025    4.8524   -1.3890 C.3       2 RES2    0.0000
     48 H21       14.9774    3.8806   -1.1675 H         2 RES2    0.0000
     49 C22       16.3071    5.4459   -1.4237 C.3       2 RES2    0.0000
     50 H22       16.7432    5.3188   -0.5433 H         2 RES2    0.0000
     51 H23       16.2529    6.4176   -1.6030 H         2 RES2    0.0000
     52 C23       17.1454    4.7689   -2.5141 C.3       2 RES2    0.0000
     53 H24       18.0347    5.2020   -2.5591 H         2 RES2    0.0000
     54 H25       17.2809    3.8166   -2.2791 H         2 RES2    0.0000
     55 C24       16.4695    4.8626   -3.8730 C.3       2 RES2    0.0000
     56 H26       16.4287    5.8103   -4.1559 H         2 RES2    0.0000
     57 H27       17.0043    4.3665   -4.5416 H         2 RES2    0.0000
     58 C25       15.0674    4.2896   -3.8237 C.3       2 RES2    0.0000
     59 H28       15.1149    3.3206   -3.6291 H         2 RES2    0.0000
     60 H29       14.6327    4.4055   -4.7054 H         2 RES2    0.0000
     61 C26       14.2286    4.9822   -2.7505 C.3       2 RES2    0.0000
     62 H30       14.1229    5.9401   -2.9780 H         2 RES2    0.0000
     63 H31       13.3281    4.5724   -2.7167 H         2 RES2    0.0000
     64 N3        14.1195    5.5051   -0.3378 N.am      2 RES2    0.0000
     65 H32       14.1798    6.3499   -0.2240 H         2 RES2    0.0000
     66 N4        13.1507    4.8838    3.8664 N.pl3     2 RES2    0.0000
     67 O5        12.8226    3.7030    0.1972 O.2       2 RES2    0.0000
     68 O6        12.5521    5.7060    1.2343 O.3       2 RES2    0.0000
     69 O7        14.0821    4.4394    3.1972 O.2       2 RES2    0.0000
     70 O8        13.2774    5.3979    4.9769 O.2       2 RES2    0.0000
     71 C27        6.5097    6.9054    0.3681 C.2       3 RES3    0.0000
     72 C28        4.7367    7.3099    1.8675 C.ar      3 RES3    0.0000
     73 C29        5.1256    6.7756    3.0910 C.ar      3 RES3    0.0000
     74 C30        4.1919    6.3481    4.0215 C.ar      3 RES3    0.0000
     75 H33        4.4758    5.9865    4.8527 H         3 RES3    0.0000
     76 C31        2.8419    6.4529    3.7289 C.ar      3 RES3    0.0000
     77 H34        2.1927    6.1728    4.3633 H         3 RES3    0.0000
     78 C32        2.4443    6.9684    2.5054 C.ar      3 RES3    0.0000
     79 H35        1.5184    7.0306    2.2998 H         3 RES3    0.0000
     80 C33        3.3831    7.3950    1.5792 C.ar      3 RES3    0.0000
     81 H36        3.0985    7.7473    0.7445 H         3 RES3    0.0000
     82 C34        8.3101    6.8405   -1.2967 C.3       3 RES3    0.0000
     83 H37        8.4129    5.9086   -0.9477 H         3 RES3    0.0000
     84 C35        9.6584    7.5443   -1.1835 C.3       3 RES3    0.0000
     85 H38        9.5623    8.4864   -1.4724 H         3 RES3    0.0000
     86 H39        9.9508    7.5415   -0.2385 H         3 RES3    0.0000
     87 C36       10.7154    6.8581   -2.0421 C.3       3 RES3    0.0000
     88 H40       11.5656    7.3607   -1.9846 H         3 RES3    0.0000
     89 H41       10.8758    5.9429   -1.7005 H         3 RES3    0.0000
     90 C37       10.2669    6.7858   -3.4848 C.3       3 RES3    0.0000
     91 H42       10.9436    6.2934   -4.0149 H         3 RES3    0.0000
     92 H43       10.1985    7.7019   -3.8531 H         3 RES3    0.0000
     93 C38        8.9237    6.0894   -3.6117 C.3       3 RES3    0.0000
     94 H44        9.0197    5.1426   -3.3388 H         3 RES3    0.0000
     95 H45        8.6357    6.1061   -4.5582 H         3 RES3    0.0000
     96 C39        7.8531    6.7607   -2.7449 C.3       3 RES3    0.0000
     97 H46        7.6744    7.6722   -3.0858 H         3 RES3    0.0000
     98 H47        7.0116    6.2424   -2.7976 H         3 RES3    0.0000
     99 N5         7.3250    7.5325   -0.4699 N.am      3 RES3    0.0000
    100 H48        7.3057    8.4122   -0.4956 H         3 RES3    0.0000
    101 N6         6.5374    6.6482    3.4684 N.pl3     3 RES3    0.0000
    102 O9         6.4751    5.7248    0.6464 O.2       3 RES3    0.0000
    103 O10        5.6187    7.8077    0.9218 O.3       3 RES3    0.0000
    104 O11        7.3232    7.5058    3.0929 O.2       3 RES3    0.0000
    105 O12        6.8439    5.6907    4.1702 O.2       3 RES3    0.0000
    106 C40       -0.5617    3.4308   10.1969 C.2       4 RES4    0.0000
    107 C41        1.1618    3.0679    8.6562 C.ar      4 RES4    0.0000
    108 C42        0.9345    3.2006    7.2896 C.ar      4 RES4    0.0000
    109 C43        1.9425    3.6108    6.4354 C.ar      4 RES4    0.0000
    110 H49        1.7856    3.6664    5.4997 H         4 RES4    0.0000
    111 C44        3.1794    3.9381    6.9561 C.ar      4 RES4    0.0000
    112 H50        3.8743    4.2348    6.3790 H         4 RES4    0.0000
    113 C45        3.4097    3.8333    8.3244 C.ar      4 RES4    0.0000
    114 H51        4.2545    4.0809    8.6830 H         4 RES4    0.0000
    115 C46        2.4098    3.3702    9.1649 C.ar      4 RES4    0.0000
    116 H52        2.5826    3.2603   10.0932 H         4 RES4    0.0000
    117 C47       -2.4202    3.4976   11.7866 C.3       4 RES4    0.0000
    118 H53       -2.3845    4.4722   11.5656 H         4 RES4    0.0000
    119 C48       -3.8407    3.0053   11.5311 C.3       4 RES4    0.0000
    120 H54       -4.0743    3.1536   10.5805 H         4 RES4    0.0000
    121 H55       -3.8888    2.0326   11.7107 H         4 RES4    0.0000
    122 C49       -4.8421    3.7313   12.4167 C.3       4 RES4    0.0000
    123 H56       -5.7494    3.3716   12.2541 H         4 RES4    0.0000
    124 H57       -4.8473    4.6948   12.1877 H         4 RES4    0.0000
    125 C50       -4.4832    3.5598   13.8849 C.3       4 RES4    0.0000
    126 H58       -4.5649    2.6047   14.1329 H         4 RES4    0.0000
    127 H59       -5.1185    4.0754   14.4419 H         4 RES4    0.0000
    128 C51       -3.0653    4.0355   14.1655 C.3       4 RES4    0.0000
    129 H60       -2.8392    3.8556   15.1118 H         4 RES4    0.0000
    130 H61       -3.0124    5.0128   14.0189 H         4 RES4    0.0000
    131 C52       -2.0536    3.3308   13.2592 C.3       4 RES4    0.0000
    132 H62       -1.1516    3.7063   13.4175 H         4 RES4    0.0000
    133 H63       -2.0263    2.3664   13.4838 H         4 RES4    0.0000
    134 N7        -1.4818    2.7991   10.9119 N.am      4 RES4    0.0000
    135 H64       -1.5241    1.9426   10.8812 H         4 RES4    0.0000
    136 N8        -0.3760    2.9000    6.7129 N.pl3     4 RES4    0.0000
    137 O13       -0.3483    4.6147   10.1394 O.2       4 RES4    0.0000
    138 O14        0.1971    2.5168    9.4856 O.3       4 RES4    0.0000
    139 O15       -1.3790    3.2023    7.3502 O.2       4 RES4    0.0000
    140 O16       -0.3995    2.3933    5.5941 O.2       4 RES4    0.0000
@<TRIPOS>BOND
     1    1   29 1
     2    2    3 ar
     3    3    4 ar
     4    4    5 1
     5    6    4 ar
     6    7    6 1
     7    8    6 ar
     8    9    8 1
     9   10    2 ar
    10   11   10 1
    11   12   13 1
    12   14   12 1
    13   15   14 1
    14   16   14 1
    15   17   14 1
    16   18   17 1
    17   19   17 1
    18   20   17 1
    19   21   20 1
    20   22   20 1
    21   23   20 1
    22   24   23 1
    23   25   23 1
    24   26   12 1
    25   27   26 1
    26   28   26 1
    27   29   12 1
    28   30   29 1
    29   31    3 1
    30   32    1 2
    31   33    1 1
    32   34   31 2
    33   35   31 2
    34   36   64 1
    35   37   38 ar
    36   38   39 ar
    37   39   40 1
    38   41   39 ar
    39   42   41 1
    40   43   41 ar
    41   44   43 1
    42   45   37 ar
    43   46   45 1
    44   47   48 1
    45   49   47 1
    46   50   49 1
    47   51   49 1
    48   52   49 1
    49   53   52 1
    50   54   52 1
    51   55   52 1
    52   56   55 1
    53   57   55 1
    54   58   55 1
    55   59   58 1
    56   60   58 1
    57   61   47 1
    58   62   61 1
    59   63   61 1
    60   64   47 1
    61   65   64 1
    62   66   38 1
    63   67   36 2
    64   68   36 1
    65   69   66 2
    66   70   66 2
    67   71   99 1
    68   72   73 ar
    69   73   74 ar
    70   74   75 1
    71   76   74 ar
    72   77   76 1
    73   78   76 ar
    74   79   78 1
    75   80   72 ar
    76   81   80 1
    77   82   83 1
    78   84   82 1
    79   85   84 1
    80   86   84 1
    81   87   84 1
    82   88   87 1
    83   89   87 1
    84   90   87 1
    85   91   90 1
    86   92   90 1
    87   93   90 1
    88   94   93 1
    89   95   93 1
    90   96   82 1
    91   97   96 1
    92   98   96 1
    93   99   82 1
    94  100   99 1
    95  101   73 1
    96  102   71 2
    97  103   71 1
    98  104  101 2
    99  105  101 2
   100  106  134 1
   101  107  108 ar
   102  108  109 ar
   103  109  110 1
   104  111  109 ar
   105  112  111 1
   106  113  111 ar
   107  114  113 1
   108  115  107 ar
   109  116  115 1
   110  117  118 1
   111  119  117 1
   112  120  119 1
   113  121  119 1
   114  122  119 1
   115  123  122 1
   116  124  122 1
   117  125  122 1
   118  126  125 1
   119  127  125 1
   120  128  125 1
   121  129  128 1
   122  130  128 1
   123  131  117 1
   124  132  131 1
   125  133  131 1
   126  134  117 1
   127  135  134 1
   128  136  108 1
   129  137  106 2
   130  138  106 1
   131  139  136 2
   132  140  136 2
   133    2   33 1
   134    8   10 ar
   135   23   26 1
   136   37   68 1
   137   43   45 ar
   138   58   61 1
   139   72  103 1
   140   78   80 ar
   141   93   96 1
   142  107  138 1
   143  113  115 ar
   144  128  131 1
@<TRIPOS>SUBSTRUCTURE
     1 RES1 1
     2 RES2 36
     3 RES3 71
     4 RES4 106

@<TRIPOS>CRYSIN
  13.6763    9.2727   20.7950  90.0000  94.2440  90.0000   4 1

