# MOL2 file generated by ConQuest
# Please check atom types

@<TRIPOS>MOLECULE
YONDUC
    29    30     1
SMALL
NO_CHARGES
****
Generated from CSD

@<TRIPOS>ATOM
      1 C1         5.1563    4.8475    0.6547 C.ar      1 RES1    0.0000
      2 C2         4.8817    4.2843   -0.5790 C.ar      1 RES1    0.0000
      3 H1         4.7539    4.8334   -1.3438 H         1 RES1    0.0000
      4 C3         4.7973    2.9100   -0.6784 C.ar      1 RES1    0.0000
      5 H2         4.6222    2.5056   -1.5197 H         1 RES1    0.0000
      6 C4         4.9668    2.1194    0.4465 C.ar      1 RES1    0.0000
      7 H3         4.9001    1.1742    0.3763 H         1 RES1    0.0000
      8 C5         5.2341    2.7032    1.6754 C.ar      1 RES1    0.0000
      9 H4         5.3452    2.1500    2.4401 H         1 RES1    0.0000
     10 C6         5.3436    4.0850    1.8116 C.ar      1 RES1    0.0000
     11 C7         5.7844    4.6333    3.1112 C.2       1 RES1    0.0000
     12 H5         6.6049    5.1113    3.1069 H         1 RES1    0.0000
     13 C8         5.1670    4.5365    4.2918 C.2       1 RES1    0.0000
     14 C9         3.7756    4.0106    4.4427 C.2       1 RES1    0.0000
     15 C10        3.3726    3.5335    5.8096 C.3       1 RES1    0.0000
     16 H6         2.3847    3.5343    5.8722 H         1 RES1    0.0000
     17 H7         3.6832    2.6015    5.9315 H         1 RES1    0.0000
     18 C11        3.9297    4.3769    6.9033 C.3       1 RES1    0.0000
     19 H8         3.5116    5.2733    6.8601 H         1 RES1    0.0000
     20 H9         3.6859    3.9726    7.7744 H         1 RES1    0.0000
     21 C12        5.4076    4.5316    6.8419 C.3       1 RES1    0.0000
     22 H10        5.8251    3.6658    7.0790 H         1 RES1    0.0000
     23 H11        5.6838    5.1939    7.5249 H         1 RES1    0.0000
     24 C13        5.9391    4.9674    5.5124 C.2       1 RES1    0.0000
     25 N1         5.1916    6.3106    0.7335 N.pl3     1 RES1    0.0000
     26 O1         5.3848    6.8304    1.8247 O.2       1 RES1    0.0000
     27 O2         5.0163    6.9551   -0.2876 O.2       1 RES1    0.0000
     28 O3         3.0087    3.9865    3.5055 O.2       1 RES1    0.0000
     29 O4         6.9635    5.6058    5.4083 O.2       1 RES1    0.0000
@<TRIPOS>BOND
     1    1    2 ar
     2    2    3 1
     3    4    2 ar
     4    5    4 1
     5    6    4 ar
     6    7    6 1
     7    8    6 ar
     8    9    8 1
     9   10    1 ar
    10   11   10 1
    11   12   11 1
    12   13   11 2
    13   14   13 1
    14   15   14 1
    15   16   15 1
    16   17   15 1
    17   18   15 1
    18   19   18 1
    19   20   18 1
    20   21   18 1
    21   22   21 1
    22   23   21 1
    23   24   13 1
    24   25    1 1
    25   26   25 2
    26   27   25 2
    27   28   14 2
    28   29   24 2
    29    8   10 ar
    30   21   24 1
@<TRIPOS>SUBSTRUCTURE
     1 RES1 1

@<TRIPOS>CRYSIN
   6.6756    8.2693   20.4546  90.0000  90.5780  90.0000  14 1

