# MOL2 file generated by ConQuest
# Please check atom types

@<TRIPOS>MOLECULE
YONDUB
    45    47     1
SMALL
NO_CHARGES
****
Generated from CSD

@<TRIPOS>ATOM
      1 C1         6.7374   11.3721    3.2332 C.2       1 RES1    0.0000
      2 C2         7.6743    9.5195    2.1466 C.ar      1 RES1    0.0000
      3 C3         9.0005    9.4874    1.7262 C.ar      1 RES1    0.0000
      4 C4         9.3587    8.7858    0.5868 C.ar      1 RES1    0.0000
      5 H1        10.2648    8.7726    0.3025 H         1 RES1    0.0000
      6 C5         8.3988    8.1072   -0.1357 C.ar      1 RES1    0.0000
      7 H2         8.6440    7.6246   -0.9157 H         1 RES1    0.0000
      8 C6         7.0797    8.1312    0.2776 C.ar      1 RES1    0.0000
      9 H3         6.4180    7.6642   -0.2181 H         1 RES1    0.0000
     10 C7         6.7242    8.8345    1.4109 C.ar      1 RES1    0.0000
     11 H4         5.8162    8.8481    1.6888 H         1 RES1    0.0000
     12 C8         6.5010   11.1026    5.6972 C.3       1 RES1    0.0000
     13 H5         6.9530   10.2397    5.5229 H         1 RES1    0.0000
     14 H6         5.5964   10.9081    6.0492 H         1 RES1    0.0000
     15 C9         7.2813   11.8692    6.7332 C.ar      1 RES1    0.0000
     16 C10        8.6129   12.2002    6.5088 C.ar      1 RES1    0.0000
     17 H7         9.0298   11.9580    5.6902 H         1 RES1    0.0000
     18 C11        9.3352   12.8834    7.4747 C.ar      1 RES1    0.0000
     19 H8        10.2434   13.1117    7.3142 H         1 RES1    0.0000
     20 C12        8.7374   13.2351    8.6725 C.ar      1 RES1    0.0000
     21 H9         9.2384   13.6932    9.3366 H         1 RES1    0.0000
     22 C13        7.4126   12.9196    8.9025 C.ar      1 RES1    0.0000
     23 H10        6.9989   13.1702    9.7195 H         1 RES1    0.0000
     24 C14        6.6866   12.2346    7.9362 C.ar      1 RES1    0.0000
     25 H11        5.7765   12.0146    8.0987 H         1 RES1    0.0000
     26 C15        5.6452   13.1124    4.4891 C.3       1 RES1    0.0000
     27 H12        5.8929   13.6611    3.7030 H         1 RES1    0.0000
     28 H13        5.9223   13.6064    5.3008 H         1 RES1    0.0000
     29 C16        4.1399   12.9395    4.5107 C.ar      1 RES1    0.0000
     30 C17        3.3557   13.8297    5.2347 C.ar      1 RES1    0.0000
     31 H14        3.7718   14.5278    5.7263 H         1 RES1    0.0000
     32 C18        1.9745   13.7114    5.2488 C.ar      1 RES1    0.0000
     33 H15        1.4527   14.3182    5.7599 H         1 RES1    0.0000
     34 C19        1.3539   12.7121    4.5223 C.ar      1 RES1    0.0000
     35 H16        0.4072   12.6377    4.5253 H         1 RES1    0.0000
     36 C20        2.1202   11.8220    3.7916 C.ar      1 RES1    0.0000
     37 H17        1.6987   11.1347    3.2890 H         1 RES1    0.0000
     38 C21        3.5043   11.9312    3.7913 C.ar      1 RES1    0.0000
     39 H18        4.0236   11.3103    3.2939 H         1 RES1    0.0000
     40 N1         6.3777   11.8471    4.4336 N.am      1 RES1    0.0000
     41 N2        10.0711   10.1765    2.4533 N.pl3     1 RES1    0.0000
     42 O1         6.5989   11.9363    2.1665 O.2       1 RES1    0.0000
     43 O2         7.2808   10.1147    3.3345 O.3       1 RES1    0.0000
     44 O3         9.7788   10.9465    3.3559 O.2       1 RES1    0.0000
     45 O4        11.2230    9.9576    2.0911 O.2       1 RES1    0.0000
@<TRIPOS>BOND
     1    1   40 1
     2    2    3 ar
     3    3    4 ar
     4    4    5 1
     5    6    4 ar
     6    7    6 1
     7    8    6 ar
     8    9    8 1
     9   10    2 ar
    10   11   10 1
    11   12   13 1
    12   14   12 1
    13   15   12 1
    14   16   15 ar
    15   17   16 1
    16   18   16 ar
    17   19   18 1
    18   20   18 ar
    19   21   20 1
    20   22   20 ar
    21   23   22 1
    22   24   15 ar
    23   25   24 1
    24   26   27 1
    25   28   26 1
    26   29   26 1
    27   30   29 ar
    28   31   30 1
    29   32   30 ar
    30   33   32 1
    31   34   32 ar
    32   35   34 1
    33   36   34 ar
    34   37   36 1
    35   38   29 ar
    36   39   38 1
    37   40   12 1
    38   41    3 1
    39   42    1 2
    40   43    1 1
    41   44   41 2
    42   45   41 2
    43    2   43 1
    44    8   10 ar
    45   22   24 ar
    46   26   40 1
    47   36   38 ar
@<TRIPOS>SUBSTRUCTURE
     1 RES1 1

@<TRIPOS>CRYSIN
  11.3754   18.8820    8.4719  90.0000 104.6110  90.0000  14 1

