# MOL2 file generated by ConQuest
# Please check atom types

@<TRIPOS>MOLECULE
YONDIP
    56    56     2
SMALL
NO_CHARGES
****
Generated from CSD

@<TRIPOS>ATOM
      1 C1         4.9638    6.5469    3.8652 C.2       1 RES1    0.0000
      2 C2         3.3099    8.2369    4.4533 C.3       1 RES1    0.0000
      3 H1         3.8364    8.7995    3.8156 H         1 RES1    0.0000
      4 C3         1.9885    7.8889    3.7923 C.3       1 RES1    0.0000
      5 H2         2.1578    7.3786    2.9729 H         1 RES1    0.0000
      6 H3         1.5074    8.7133    3.5709 H         1 RES1    0.0000
      7 H4         1.4485    7.3494    4.4065 H         1 RES1    0.0000
      8 C4         3.1272    9.0240    5.7313 C.3       1 RES1    0.0000
      9 H5         2.6455    8.4776    6.3860 H         1 RES1    0.0000
     10 H6         2.6141    9.8377    5.5433 H         1 RES1    0.0000
     11 H7         4.0038    9.2685    6.0928 H         1 RES1    0.0000
     12 C5         6.3983    4.6938    3.5461 C.ar      1 RES1    0.0000
     13 C6         7.6726    5.2308    3.4126 C.ar      1 RES1    0.0000
     14 C7         8.6678    4.5591    2.7281 C.ar      1 RES1    0.0000
     15 H8         9.5321    4.9436    2.6376 H         1 RES1    0.0000
     16 C8         8.3917    3.3175    2.1756 C.ar      1 RES1    0.0000
     17 H9         9.0681    2.8419    1.7097 H         1 RES1    0.0000
     18 C9         7.1288    2.7766    2.3054 C.ar      1 RES1    0.0000
     19 H10        6.9416    1.9255    1.9275 H         1 RES1    0.0000
     20 C10        6.1371    3.4592    2.9782 C.ar      1 RES1    0.0000
     21 H11        5.2685    3.0802    3.0518 H         1 RES1    0.0000
     22 N1         4.0762    7.0234    4.7259 N.am      1 RES1    0.0000
     23 H12        3.9642    6.5813    5.4670 H         1 RES1    0.0000
     24 N2         8.0175    6.5227    4.0171 N.pl3     1 RES1    0.0000
     25 O1         5.3765    7.0754    2.8555 O.2       1 RES1    0.0000
     26 O2         5.3793    5.2891    4.2662 O.3       1 RES1    0.0000
     27 O3         8.8404    7.2195    3.4315 O.2       1 RES1    0.0000
     28 O4         7.4931    6.8288    5.0819 O.2       1 RES1    0.0000
     29 C11        4.1244    6.0022    8.4695 C.2       2 RES2    0.0000
     30 C12        6.2127    7.2781    8.2668 C.3       2 RES2    0.0000
     31 H13        6.0859    7.0807    7.2951 H         2 RES2    0.0000
     32 C13        6.3538    8.7717    8.4373 C.3       2 RES2    0.0000
     33 H14        5.5702    9.2191    8.0553 H         2 RES2    0.0000
     34 H15        7.1628    9.0784    7.9755 H         2 RES2    0.0000
     35 H16        6.4211    8.9871    9.3912 H         2 RES2    0.0000
     36 C14        7.4590    6.5720    8.7411 C.3       2 RES2    0.0000
     37 H17        7.6428    6.8234    9.6700 H         2 RES2    0.0000
     38 H18        8.2156    6.8310    8.1755 H         2 RES2    0.0000
     39 H19        7.3258    5.6027    8.6856 H         2 RES2    0.0000
     40 C15        2.3351    4.6007    9.0543 C.ar      2 RES2    0.0000
     41 C16        1.2328    4.9258    8.2814 C.ar      2 RES2    0.0000
     42 C17        0.3416    3.9450    7.8864 C.ar      2 RES2    0.0000
     43 H20       -0.4032    4.1653    7.3390 H         2 RES2    0.0000
     44 C18        0.5430    2.6446    8.2947 C.ar      2 RES2    0.0000
     45 H21       -0.0594    1.9622    8.0231 H         2 RES2    0.0000
     46 C19        1.6112    2.3351    9.0899 C.ar      2 RES2    0.0000
     47 H22        1.7315    1.4425    9.3921 H         2 RES2    0.0000
     48 C20        2.5054    3.2988    9.4529 C.ar      2 RES2    0.0000
     49 H23        3.2546    3.0663    9.9883 H         2 RES2    0.0000
     50 N3         5.0446    6.7888    8.9944 N.am      2 RES2    0.0000
     51 H24        4.9969    6.8944    9.8036 H         2 RES2    0.0000
     52 N4         0.9854    6.2976    7.8526 N.pl3     2 RES2    0.0000
     53 O5         3.9771    5.6874    7.3065 O.2       2 RES2    0.0000
     54 O6         3.2875    5.5190    9.4593 O.3       2 RES2    0.0000
     55 O7         0.4034    6.4402    6.7771 O.2       2 RES2    0.0000
     56 O8         1.3653    7.2104    8.5543 O.2       2 RES2    0.0000
@<TRIPOS>BOND
     1    1   22 1
     2    2    3 1
     3    4    2 1
     4    5    4 1
     5    6    4 1
     6    7    4 1
     7    8    2 1
     8    9    8 1
     9   10    8 1
    10   11    8 1
    11   12   13 ar
    12   13   14 ar
    13   14   15 1
    14   16   14 ar
    15   17   16 1
    16   18   16 ar
    17   19   18 1
    18   20   12 ar
    19   21   20 1
    20   22    2 1
    21   23   22 1
    22   24   13 1
    23   25    1 2
    24   26    1 1
    25   27   24 2
    26   28   24 2
    27   29   50 1
    28   30   31 1
    29   32   30 1
    30   33   32 1
    31   34   32 1
    32   35   32 1
    33   36   30 1
    34   37   36 1
    35   38   36 1
    36   39   36 1
    37   40   41 ar
    38   41   42 ar
    39   42   43 1
    40   44   42 ar
    41   45   44 1
    42   46   44 ar
    43   47   46 1
    44   48   40 ar
    45   49   48 1
    46   50   30 1
    47   51   50 1
    48   52   41 1
    49   53   29 2
    50   54   29 1
    51   55   52 2
    52   56   52 2
    53   12   26 1
    54   18   20 ar
    55   40   54 1
    56   46   48 ar
@<TRIPOS>SUBSTRUCTURE
     1 RES1 1
     2 RES2 29

@<TRIPOS>CRYSIN
  19.7040   12.6758    8.9795  90.0000  93.2210  90.0000  14 1

