# MOL2 file generated by ConQuest
# Please check atom types

@<TRIPOS>MOLECULE
YONJIU
    61    64     2
SMALL
NO_CHARGES
****
Generated from CSD

@<TRIPOS>ATOM
      1 N1         1.8013   -1.0763   -2.3226 N.3       1 RES1    0.0000
      2 O1         2.5580   -0.0273   -1.5882 O.3       1 RES1    0.0000
      3 C1         3.9791   -0.3190   -1.6959 C.3       1 RES1    0.0000
      4 H1         4.3745   -0.4748   -0.8010 H         1 RES1    0.0000
      5 H2         4.4598    0.4277   -2.1326 H         1 RES1    0.0000
      6 C2         4.0497   -1.5714   -2.5380 C.3       1 RES1    0.0000
      7 H3         4.8389   -2.1384   -2.3030 H         1 RES1    0.0000
      8 C3         3.9212   -1.5747   -4.0459 C.3       1 RES1    0.0000
      9 H4         4.0911   -1.3608   -4.1948 Du        2 SUP2    0.0000
     10 H5         5.0512    0.0467   -4.5453 Du        2 SUP2    0.0000
     11 C4         2.5898   -1.3357   -4.5453 C.3       1 RES1    0.0000
     12 C5         2.1151   -2.7653   -4.5649 C.3       1 RES1    0.0000
     13 H6         2.6690   -3.2987   -5.1877 H         1 RES1    0.0000
     14 H7         1.1738   -2.8068   -4.8704 H         1 RES1    0.0000
     15 C6         2.2321   -3.3365   -3.1294 C.3       1 RES1    0.0000
     16 H8         1.3087   -3.5879   -2.8396 H         1 RES1    0.0000
     17 C7         2.7237   -2.2451   -2.1640 C.3       1 RES1    0.0000
     18 O2         1.6956   -0.6218   -3.6445 O.3       1 RES1    0.0000
     19 O3         2.5326   -0.7007   -5.8045 O.3       1 RES1    0.0000
     20 C8         1.2484   -0.2489   -6.3059 C.3       1 RES1    0.0000
     21 H9         0.5173   -0.6141   -5.7301 H         1 RES1    0.0000
     22 C9         1.2509    1.2672   -6.2217 C.3       1 RES1    0.0000
     23 H10        2.0482    1.6192   -6.6917 H         1 RES1    0.0000
     24 H11        1.3109    1.5400   -5.2719 H         1 RES1    0.0000
     25 C10       -0.0058    1.8733   -6.8405 C.3       1 RES1    0.0000
     26 H12        0.0424    2.8603   -6.7935 H         1 RES1    0.0000
     27 H13       -0.8029    1.5779   -6.3333 H         1 RES1    0.0000
     28 C11       -0.1318    1.4337   -8.2995 C.3       1 RES1    0.0000
     29 H14       -0.9634    1.8041   -8.6872 H         1 RES1    0.0000
     30 H15        0.6341    1.7833   -8.8204 H         1 RES1    0.0000
     31 C12       -0.1583   -0.0885   -8.3895 C.3       1 RES1    0.0000
     32 H16       -0.2055   -0.3532   -9.3433 H         1 RES1    0.0000
     33 H17       -0.9761   -0.4236   -7.9430 H         1 RES1    0.0000
     34 C13        1.0675   -0.7532   -7.7492 C.3       1 RES1    0.0000
     35 H18        1.8730   -0.4724   -8.2701 H         1 RES1    0.0000
     36 C14        0.9865   -2.2593   -7.8079 C.ar      1 RES1    0.0000
     37 C15       -0.1257   -2.9384   -7.3281 C.ar      1 RES1    0.0000
     38 H19       -0.8616   -2.4406   -6.9913 H         1 RES1    0.0000
     39 C16       -0.1901   -4.3230   -7.3242 C.ar      1 RES1    0.0000
     40 H20       -0.9538   -4.7644   -6.9721 H         1 RES1    0.0000
     41 C17        0.8601   -5.0538   -7.8334 C.ar      1 RES1    0.0000
     42 H21        0.8213   -6.0037   -7.8373 H         1 RES1    0.0000
     43 C18        1.9626   -4.4079   -8.3367 C.ar      1 RES1    0.0000
     44 H22        2.6830   -4.9119   -8.6950 H         1 RES1    0.0000
     45 C19        2.0306   -3.0153   -8.3249 C.ar      1 RES1    0.0000
     46 H23        2.7998   -2.5791   -8.6735 H         1 RES1    0.0000
     47 C20        3.0861   -4.5918   -3.0296 C.ar      1 RES1    0.0000
     48 C21        4.2769   -4.7287   -3.7424 C.ar      1 RES1    0.0000
     49 H24        4.5555   -4.0316   -4.3240 H         1 RES1    0.0000
     50 C22        5.0619   -5.8649   -3.6171 C.ar      1 RES1    0.0000
     51 H25        5.8610   -5.9563   -4.1223 H         1 RES1    0.0000
     52 C23        4.6639   -6.8721   -2.7397 C.ar      1 RES1    0.0000
     53 H26        5.1976   -7.6505   -2.6379 H         1 RES1    0.0000
     54 C24        3.4997   -6.7417   -2.0249 C.ar      1 RES1    0.0000
     55 H27        3.2311   -7.4280   -1.4237 H         1 RES1    0.0000
     56 C25        2.7163   -5.6206   -2.1718 C.ar      1 RES1    0.0000
     57 H28        1.9074   -5.5487   -1.6803 H         1 RES1    0.0000
     58 C26        2.6940   -2.7118   -0.7070 C.3       1 RES1    0.0000
     59 H29        3.3859   -3.3924   -0.5679 H         1 RES1    0.0000
     60 H30        1.8145   -3.0949   -0.5053 H         1 RES1    0.0000
     61 H31        2.8619   -1.9498   -0.1155 H         1 RES1    0.0000
@<TRIPOS>BOND
     1    1    2 1
     2    2    3 1
     3    3    4 1
     4    5    3 1
     5    6    3 1
     6    7    6 1
     7    8    6 1
     8   11    8 1
     9   12   11 1
    10   13   12 1
    11   14   12 1
    12   15   12 1
    13   16   15 1
    14   17    1 1
    15   18    1 1
    16   19   11 1
    17   20   19 1
    18   21   20 1
    19   22   20 1
    20   23   22 1
    21   24   22 1
    22   25   22 1
    23   26   25 1
    24   27   25 1
    25   28   25 1
    26   29   28 1
    27   30   28 1
    28   31   28 1
    29   32   31 1
    30   33   31 1
    31   34   20 1
    32   35   34 1
    33   36   34 1
    34   37   36 ar
    35   38   37 1
    36   39   37 ar
    37   40   39 1
    38   41   39 ar
    39   42   41 1
    40   43   41 ar
    41   44   43 1
    42   45   36 ar
    43   46   45 1
    44   47   15 1
    45   48   47 ar
    46   49   48 1
    47   50   48 ar
    48   51   50 1
    49   52   50 ar
    50   53   52 1
    51   54   52 ar
    52   55   54 1
    53   56   47 ar
    54   57   56 1
    55   58   17 1
    56   59   58 1
    57   60   58 1
    58   61   58 1
    59    6   17 1
    60   11   18 1
    61   15   17 1
    62   31   34 1
    63   43   45 ar
    64   54   56 ar
@<TRIPOS>SUBSTRUCTURE
     1 RES1 1
     2 SUP2 9

@<TRIPOS>CRYSIN
   5.6480   10.1180   19.9900  78.4300  87.5900  76.1800   2 1

