# MOL2 file generated by ConQuest
# Please check atom types

@<TRIPOS>MOLECULE
YONJIU01
    61    66     1
SMALL
NO_CHARGES
****
Generated from CSD

@<TRIPOS>ATOM
      1 N1         2.6457    2.8634   17.3490 N.3       1 RES1    0.0000
      2 O1         3.3985    3.8948   17.9952 O.3       1 RES1    0.0000
      3 C1         4.8197    3.6030   17.8875 C.3       1 RES1    0.0000
      4 C2         4.8903    2.3507   17.0454 C.3       1 RES1    0.0000
      5 C3         4.8451    2.6863   15.5375 C.3       1 RES1    0.0000
      6 C4         3.4303    2.5863   15.0381 C.3       1 RES1    0.0000
      7 C5         2.9551    1.1568   15.0185 C.3       1 RES1    0.0000
      8 C6         3.0726    0.5855   16.4540 C.3       1 RES1    0.0000
      9 C7         3.5645    1.6779   17.4195 C.3       1 RES1    0.0000
     10 O2         2.5362    3.3002   15.9390 O.3       1 RES1    0.0000
     11 O3         3.3731    3.2213   13.7789 O.3       1 RES1    0.0000
     12 C8         2.0884    3.6727   13.2756 C.3       1 RES1    0.0000
     13 C9         2.0915    5.1893   13.3618 C.3       1 RES1    0.0000
     14 C10        0.8348    5.7953   12.7429 C.3       1 RES1    0.0000
     15 C11        0.7088    5.3558   11.2840 C.3       1 RES1    0.0000
     16 C12        0.6822    3.8335   11.1939 C.3       1 RES1    0.0000
     17 C13        1.9080    3.1689   11.8343 C.3       1 RES1    0.0000
     18 C14        1.8271    1.6627   11.7755 C.ar      1 RES1    0.0000
     19 C15        0.7149    0.9836   12.2553 C.ar      1 RES1    0.0000
     20 C16        0.6505   -0.4010   12.2592 C.ar      1 RES1    0.0000
     21 C17        1.7006   -1.1321   11.7481 C.ar      1 RES1    0.0000
     22 C18        2.8026   -0.4858   11.2468 C.ar      1 RES1    0.0000
     23 C19        2.8712    0.9068   11.2585 C.ar      1 RES1    0.0000
     24 C20        3.9267   -0.6698   16.5539 C.ar      1 RES1    0.0000
     25 C21        5.1175   -0.8066   15.8410 C.ar      1 RES1    0.0000
     26 C22        5.9024   -1.9428   15.9664 C.ar      1 RES1    0.0000
     27 C23        5.5033   -2.9505   16.8418 C.ar      1 RES1    0.0000
     28 C24        4.3381   -2.8197   17.5585 C.ar      1 RES1    0.0000
     29 C25        3.5568   -1.6990   17.4097 C.ar      1 RES1    0.0000
     30 C26        3.5346    1.2102   18.8765 C.3       1 RES1    0.0000
     31 H1         5.3695    4.0751   18.7825 H         1 RES1    0.0000
     32 H2         5.3004    4.3497   17.4508 H         1 RES1    0.0000
     33 H3         5.6795    1.7837   17.2804 H         1 RES1    0.0000
     34 H4         5.1879    3.6027   15.3887 H         1 RES1    0.0000
     35 H5         5.4212    2.0558   15.0381 H         1 RES1    0.0000
     36 H6         3.5096    0.6233   14.3958 H         1 RES1    0.0000
     37 H7         2.0144    1.1152   14.7130 H         1 RES1    0.0000
     38 H8         2.1493    0.3341   16.7438 H         1 RES1    0.0000
     39 H9         1.3579    3.3080   13.8533 H         1 RES1    0.0000
     40 H10        2.8887    5.5412   12.8918 H         1 RES1    0.0000
     41 H11        2.1514    5.4620   14.3116 H         1 RES1    0.0000
     42 H12        0.8830    6.7823   12.7899 H         1 RES1    0.0000
     43 H13        0.0377    5.5000   13.2502 H         1 RES1    0.0000
     44 H14       -0.1228    5.7261   10.8962 H         1 RES1    0.0000
     45 H15        1.4747    5.7054   10.7631 H         1 RES1    0.0000
     46 H16        0.6350    3.5688   10.2402 H         1 RES1    0.0000
     47 H17       -0.1355    3.4985   11.6404 H         1 RES1    0.0000
     48 H18        2.7130    3.4497   11.3134 H         1 RES1    0.0000
     49 H19       -0.0210    1.4814   12.5922 H         1 RES1    0.0000
     50 H20       -0.1133   -0.8426   12.6098 H         1 RES1    0.0000
     51 H21        1.6618   -2.0820   11.7442 H         1 RES1    0.0000
     52 H22        3.5235   -0.9899   10.8884 H         1 RES1    0.0000
     53 H23        3.6404    1.3430   10.9099 H         1 RES1    0.0000
     54 H24        5.3960   -0.1096   15.2594 H         1 RES1    0.0000
     55 H25        6.7016   -2.0342   15.4611 H         1 RES1    0.0000
     56 H26        6.0376   -3.7285   16.9456 H         1 RES1    0.0000
     57 H27        4.0717   -3.5059   18.1597 H         1 RES1    0.0000
     58 H28        2.7474   -1.6267   17.9032 H         1 RES1    0.0000
     59 H29        4.2265    0.5297   19.0155 H         1 RES1    0.0000
     60 H30        2.6551    0.8271   19.0782 H         1 RES1    0.0000
     61 H31        3.7025    1.9722   19.4679 H         1 RES1    0.0000
@<TRIPOS>BOND
     1    1    2 1
     2    2    3 1
     3    3    4 1
     4    4    5 1
     5    5    6 1
     6    6    7 1
     7    7    8 1
     8    8    9 1
     9    9    1 1
    10   10    1 1
    11   11    6 1
    12   12   11 1
    13   13   12 1
    14   14   13 1
    15   15   14 1
    16   16   15 1
    17   17   12 1
    18   18   17 1
    19   19   18 ar
    20   20   19 ar
    21   21   20 ar
    22   22   21 ar
    23   23   18 ar
    24   24    8 1
    25   25   24 ar
    26   26   25 ar
    27   27   26 ar
    28   28   27 ar
    29   29   24 ar
    30   30    9 1
    31   31    3 1
    32   32    3 1
    33   33    4 1
    34   34    5 1
    35   35    5 1
    36   36    7 1
    37   37    7 1
    38   38    8 1
    39   39   12 1
    40   40   13 1
    41   41   13 1
    42   42   14 1
    43   43   14 1
    44   44   15 1
    45   45   15 1
    46   46   16 1
    47   47   16 1
    48   48   17 1
    49   49   19 1
    50   50   20 1
    51   51   21 1
    52   52   22 1
    53   53   23 1
    54   54   25 1
    55   55   26 1
    56   56   27 1
    57   57   28 1
    58   58   29 1
    59   59   30 1
    60   60   30 1
    61   61   30 1
    62    4    9 1
    63    6   10 1
    64   16   17 1
    65   22   23 ar
    66   28   29 ar
@<TRIPOS>SUBSTRUCTURE
     1 RES1 1

@<TRIPOS>CRYSIN
   5.6480   10.1180   19.9900  78.4300  87.5900  76.1800   2 1

