# MOL2 file generated by ConQuest
# Please check atom types

@<TRIPOS>MOLECULE
YONMAP
    28    29     1
SMALL
NO_CHARGES
****
Generated from CSD

@<TRIPOS>ATOM
      1 N1         5.2457    0.9880    0.7893 N.3       1 RES1    0.0000
      2 C1         5.6214    0.2197   -0.2594 C.2       1 RES1    0.0000
      3 N2         5.5701   -1.0565    0.0245 N.2       1 RES1    0.0000
      4 C2         5.1287   -1.1170    1.3486 C.ar      1 RES1    0.0000
      5 C3         4.9135   -2.2398    2.1245 C.ar      1 RES1    0.0000
      6 C4         4.4682   -1.9899    3.4204 C.ar      1 RES1    0.0000
      7 C5         4.2568   -0.7032    3.8977 C.ar      1 RES1    0.0000
      8 C6         4.4710    0.4161    3.1243 C.ar      1 RES1    0.0000
      9 C7         4.9231    0.1639    1.8381 C.ar      1 RES1    0.0000
     10 C8         5.1534   -3.6078    1.6019 C.3       1 RES1    0.0000
     11 C9         6.0293    0.8171   -1.5628 C.3       1 RES1    0.0000
     12 O1         5.1284    2.3583    0.7502 O.3       1 RES1    0.0000
     13 C10        6.3111    3.0069    1.3168 C.3       1 RES1    0.0000
     14 C11        6.1885    4.4365    0.9986 C.3       1 RES1    0.0000
     15 H1         4.3358   -2.8116    3.9087 H         1 RES1    0.0000
     16 H2         3.8985   -0.5846    4.7739 H         1 RES1    0.0000
     17 H3         4.3141    1.3239    3.4094 H         1 RES1    0.0000
     18 H4         5.1186   -4.2366    2.3264 H         1 RES1    0.0000
     19 H5         6.0180   -3.6438    1.1871 H         1 RES1    0.0000
     20 H6         4.4781   -3.8263    0.9558 H         1 RES1    0.0000
     21 H7         6.5238    1.6237   -1.4049 H         1 RES1    0.0000
     22 H8         5.2473    1.0170   -2.0816 H         1 RES1    0.0000
     23 H9         6.5806    0.1929   -2.0413 H         1 RES1    0.0000
     24 H10        6.2764    2.8790    2.3154 H         1 RES1    0.0000
     25 H11        6.9787    2.5361    0.8456 H         1 RES1    0.0000
     26 H12        6.9023    4.9200    1.4208 H         1 RES1    0.0000
     27 H13        5.3461    4.7654    1.3192 H         1 RES1    0.0000
     28 H14        6.2386    4.5585    0.0477 H         1 RES1    0.0000
@<TRIPOS>BOND
     1    1    2 1
     2    2    3 2
     3    3    4 1
     4    4    5 ar
     5    5    6 ar
     6    6    7 ar
     7    7    8 ar
     8    8    9 ar
     9    9    1 1
    10   10    5 1
    11   11    2 1
    12   12    1 1
    13   13   12 1
    14   14   13 1
    15   15    6 1
    16   16    7 1
    17   17    8 1
    18   18   10 1
    19   19   10 1
    20   20   10 1
    21   21   11 1
    22   22   11 1
    23   23   11 1
    24   24   13 1
    25   25   13 1
    26   26   14 1
    27   27   14 1
    28   28   14 1
    29    4    9 ar
@<TRIPOS>SUBSTRUCTURE
     1 RES1 1

@<TRIPOS>CRYSIN
   7.3700   11.6230   12.3350  90.0000  97.2000  90.0000  14 1

