# MOL2 file generated by ConQuest
# Please check atom types

@<TRIPOS>MOLECULE
YONTIF
    56    62     1
SMALL
NO_CHARGES
****
Generated from CSD

@<TRIPOS>ATOM
      1 O1         5.3542    2.8483   13.0377 O.2       1 RES1    0.0000
      2 O2         6.9888    1.5479   13.5779 O.2       1 RES1    0.0000
      3 N1         6.4002    2.6358   13.6315 N.pl3     1 RES1    0.0000
      4 C1         8.4280    6.8982   16.7837 C.2       1 RES1    0.0000
      5 C2         8.0512    5.6889   16.0362 C.ar      1 RES1    0.0000
      6 C3         8.6053    4.3990   16.0427 C.ar      1 RES1    0.0000
      7 H1         9.3548    4.2084   16.5944 H         1 RES1    0.0000
      8 C4         8.0611    3.4060   15.2486 C.ar      1 RES1    0.0000
      9 H2         8.4259    2.5286   15.2615 H         1 RES1    0.0000
     10 C5         6.9818    3.7009   14.4387 C.ar      1 RES1    0.0000
     11 C6         6.4404    4.9776   14.3625 C.ar      1 RES1    0.0000
     12 H3         5.7154    5.1673   13.7779 H         1 RES1    0.0000
     13 C7         6.9899    5.9649   15.1627 C.ar      1 RES1    0.0000
     14 C8         6.5855    7.4208   15.2058 C.3       1 RES1    0.0000
     15 H4         6.6964    7.8590   14.3138 H         1 RES1    0.0000
     16 C9         5.1876    7.6798   15.7909 C.3       1 RES1    0.0000
     17 H5         4.4675    7.0917   15.4231 H         1 RES1    0.0000
     18 C10        4.8949    9.1802   15.6948 C.3       1 RES1    0.0000
     19 H6         3.9453    9.3728   15.9024 H         1 RES1    0.0000
     20 H7         5.1053    9.5283   14.7930 H         1 RES1    0.0000
     21 C11        5.8350    9.7948   16.7632 C.3       1 RES1    0.0000
     22 H8         6.4784   10.4256   16.3520 H         1 RES1    0.0000
     23 H9         5.3184   10.2681   17.4641 H         1 RES1    0.0000
     24 C12        6.5518    8.5694   17.3389 C.3       1 RES1    0.0000
     25 H10        6.9519    8.7107   18.2449 H         1 RES1    0.0000
     26 C13        7.5449    8.0449   16.2758 C.3       1 RES1    0.0000
     27 H11        8.0940    8.7857   15.8889 H         1 RES1    0.0000
     28 C14        5.4408    7.5166   17.2934 C.3       1 RES1    0.0000
     29 H12        4.6563    7.7613   17.8437 H         1 RES1    0.0000
     30 H13        5.7593    6.6108   17.5341 H         1 RES1    0.0000
     31 C15        9.3138    6.9893   17.8055 C.2       1 RES1    0.0000
     32 C16        9.8893    5.7591   18.4940 C.3       1 RES1    0.0000
     33 H14       10.6971    5.4660   18.0026 H         1 RES1    0.0000
     34 H15        9.2247    5.0269   18.4469 H         1 RES1    0.0000
     35 C17       10.2640    5.9972   19.9622 C.3       1 RES1    0.0000
     36 H16       10.1634    5.1530   20.4717 H         1 RES1    0.0000
     37 H17       11.2112    6.2808   20.0220 H         1 RES1    0.0000
     38 C18        9.3732    7.0680   20.5732 C.3       1 RES1    0.0000
     39 H18        8.4194    6.8186   20.4798 H         1 RES1    0.0000
     40 H19        9.5777    7.1790   21.5353 H         1 RES1    0.0000
     41 C19        9.6583    8.3389   19.8271 C.ar      1 RES1    0.0000
     42 C20        9.9863    9.5340   20.4932 C.ar      1 RES1    0.0000
     43 H20        9.9194    9.5729   21.4410 H         1 RES1    0.0000
     44 C21       10.3984   10.6361   19.8072 C.ar      1 RES1    0.0000
     45 H21       10.5767   11.4433   20.2751 H         1 RES1    0.0000
     46 C22       10.5635   10.5878   18.3973 C.ar      1 RES1    0.0000
     47 C23       11.1188   11.6757   17.6752 C.ar      1 RES1    0.0000
     48 H22       11.3381   12.4771   18.1372 H         1 RES1    0.0000
     49 C24       11.3423   11.5941   16.3364 C.ar      1 RES1    0.0000
     50 H23       11.7106   12.3349   15.8674 H         1 RES1    0.0000
     51 C25       11.0286   10.4133   15.6487 C.ar      1 RES1    0.0000
     52 H24       11.1933   10.3573   14.7149 H         1 RES1    0.0000
     53 C26       10.4880    9.3405   16.3044 C.ar      1 RES1    0.0000
     54 H25       10.2887    8.5486   15.8189 H         1 RES1    0.0000
     55 C27       10.2184    9.3955   17.7040 C.ar      1 RES1    0.0000
     56 C28        9.7079    8.2792   18.4334 C.ar      1 RES1    0.0000
@<TRIPOS>BOND
     1    1    3 2
     2    2    3 2
     3    3   10 1
     4    4    5 1
     5    5    6 ar
     6    6    7 1
     7    8    6 ar
     8    9    8 1
     9   10    8 ar
    10   11   10 ar
    11   12   11 1
    12   13    5 ar
    13   14   13 1
    14   15   14 1
    15   16   14 1
    16   17   16 1
    17   18   16 1
    18   19   18 1
    19   20   18 1
    20   21   18 1
    21   22   21 1
    22   23   21 1
    23   24   21 1
    24   25   24 1
    25   26    4 1
    26   27   26 1
    27   28   16 1
    28   29   28 1
    29   30   28 1
    30   31    4 2
    31   32   31 1
    32   33   32 1
    33   34   32 1
    34   35   32 1
    35   36   35 1
    36   37   35 1
    37   38   35 1
    38   39   38 1
    39   40   38 1
    40   41   38 1
    41   42   41 ar
    42   43   42 1
    43   44   42 ar
    44   45   44 1
    45   46   44 ar
    46   47   46 ar
    47   48   47 1
    48   49   47 ar
    49   50   49 1
    50   51   49 ar
    51   52   51 1
    52   53   51 ar
    53   54   53 1
    54   55   46 ar
    55   56   31 1
    56   11   13 ar
    57   14   26 1
    58   24   26 1
    59   24   28 1
    60   41   56 ar
    61   53   55 ar
    62   55   56 ar
@<TRIPOS>SUBSTRUCTURE
     1 RES1 1

@<TRIPOS>CRYSIN
  16.2693    9.4847   26.9258  90.0000  90.0000  90.0000  61 1

