# MOL2 file generated by ConQuest
# Please check atom types

@<TRIPOS>MOLECULE
YONTOL
    55    62     1
SMALL
NO_CHARGES
****
Generated from CSD

@<TRIPOS>ATOM
      1 O1         2.8323   10.2384   11.2861 O.3       1 RES1    0.0000
      2 O2         4.3776    1.7208    7.9815 O.2       1 RES1    0.0000
      3 O3         5.6845    3.1161    8.9911 O.2       1 RES1    0.0000
      4 N1         4.6356    2.8386    8.4264 N.pl3     1 RES1    0.0000
      5 C1         2.2448   10.0600    9.9810 C.3       1 RES1    0.0000
      6 H1         2.1709   10.8372    9.3562 H         1 RES1    0.0000
      7 C2         3.5558    9.4916   10.2886 C.3       1 RES1    0.0000
      8 H2         4.3781    9.8792    9.8732 H         1 RES1    0.0000
      9 C3         3.3471    7.9896   10.2954 C.3       1 RES1    0.0000
     10 H3         4.0367    7.4549   10.7852 H         1 RES1    0.0000
     11 C4         3.1551    7.6375    8.8026 C.3       1 RES1    0.0000
     12 H4         3.8748    8.0432    8.2392 H         1 RES1    0.0000
     13 C5         1.7565    8.2453    8.4610 C.3       1 RES1    0.0000
     14 H5         1.8266    8.9422    7.7479 H         1 RES1    0.0000
     15 C6         1.3214    8.8649    9.8164 C.3       1 RES1    0.0000
     16 H6         0.3442    9.0521    9.9167 H         1 RES1    0.0000
     17 C7         1.9153    7.8644   10.8129 C.3       1 RES1    0.0000
     18 H7         1.8223    8.1611   11.7529 H         1 RES1    0.0000
     19 H8         1.5473    6.9524   10.7038 H         1 RES1    0.0000
     20 C8         2.9911    6.1708    8.5083 C.ar      1 RES1    0.0000
     21 C9         3.9547    5.1843    8.6453 C.ar      1 RES1    0.0000
     22 H9         4.8196    5.3871    8.9829 H         1 RES1    0.0000
     23 C10        3.6211    3.8977    8.2757 C.ar      1 RES1    0.0000
     24 C11        2.3859    3.5681    7.7445 C.ar      1 RES1    0.0000
     25 H10        2.2004    2.6771    7.4724 H         1 RES1    0.0000
     26 C12        1.4253    4.5566    7.6163 C.ar      1 RES1    0.0000
     27 H11        0.5765    4.3483    7.2458 H         1 RES1    0.0000
     28 C13        1.7042    5.8639    8.0331 C.ar      1 RES1    0.0000
     29 C14        0.8690    7.0815    8.0177 C.2       1 RES1    0.0000
     30 C15       -0.4674    7.1515    7.7963 C.2       1 RES1    0.0000
     31 C16       -1.3587    5.9126    7.7502 C.3       1 RES1    0.0000
     32 H12       -1.3225    5.5230    6.8414 H         1 RES1    0.0000
     33 H13       -1.0045    5.2383    8.3817 H         1 RES1    0.0000
     34 C17       -2.8137    6.2062    8.1039 C.3       1 RES1    0.0000
     35 H14       -3.3006    6.4919    7.2906 H         1 RES1    0.0000
     36 H15       -3.2428    5.3831    8.4455 H         1 RES1    0.0000
     37 C18       -2.8998    7.3030    9.1602 C.3       1 RES1    0.0000
     38 H16       -3.8415    7.4459    9.4294 H         1 RES1    0.0000
     39 H17       -2.3780    7.0483    9.9614 H         1 RES1    0.0000
     40 C19       -2.3369    8.5567    8.5488 C.ar      1 RES1    0.0000
     41 C20       -2.9903    9.8003    8.6789 C.ar      1 RES1    0.0000
     42 H18       -3.7591    9.8692    9.2327 H         1 RES1    0.0000
     43 C21       -2.5346   10.9031    8.0209 C.ar      1 RES1    0.0000
     44 H19       -2.9602   11.7402    8.1632 H         1 RES1    0.0000
     45 C22       -1.4439   10.8263    7.1333 C.ar      1 RES1    0.0000
     46 C23       -1.0324   11.9250    6.3451 C.ar      1 RES1    0.0000
     47 H20       -1.4766   12.7591    6.4464 H         1 RES1    0.0000
     48 C24       -0.0214   11.8231    5.4487 C.ar      1 RES1    0.0000
     49 H21        0.2408   12.5793    4.9386 H         1 RES1    0.0000
     50 C25        0.6370   10.5904    5.2771 C.ar      1 RES1    0.0000
     51 H22        1.3399   10.5145    4.6428 H         1 RES1    0.0000
     52 C26        0.2711    9.5046    6.0177 C.ar      1 RES1    0.0000
     53 H23        0.7232    8.6805    5.8832 H         1 RES1    0.0000
     54 C27       -0.7623    9.5744    6.9805 C.ar      1 RES1    0.0000
     55 C28       -1.1927    8.4500    7.7806 C.ar      1 RES1    0.0000
@<TRIPOS>BOND
     1    1    5 1
     2    2    4 2
     3    3    4 2
     4    4   23 1
     5    5    6 1
     6    7    1 1
     7    8    7 1
     8    9    7 1
     9   10    9 1
    10   11    9 1
    11   12   11 1
    12   13   11 1
    13   14   13 1
    14   15    5 1
    15   16   15 1
    16   17    9 1
    17   18   17 1
    18   19   17 1
    19   20   11 1
    20   21   20 ar
    21   22   21 1
    22   23   21 ar
    23   24   23 ar
    24   25   24 1
    25   26   24 ar
    26   27   26 1
    27   28   20 ar
    28   29   13 1
    29   30   29 2
    30   31   30 1
    31   32   31 1
    32   33   31 1
    33   34   31 1
    34   35   34 1
    35   36   34 1
    36   37   34 1
    37   38   37 1
    38   39   37 1
    39   40   37 1
    40   41   40 ar
    41   42   41 1
    42   43   41 ar
    43   44   43 1
    44   45   43 ar
    45   46   45 ar
    46   47   46 1
    47   48   46 ar
    48   49   48 1
    49   50   48 ar
    50   51   50 1
    51   52   50 ar
    52   53   52 1
    53   54   45 ar
    54   55   30 1
    55    5    7 1
    56   13   15 1
    57   15   17 1
    58   26   28 ar
    59   28   29 1
    60   40   55 ar
    61   52   54 ar
    62   54   55 ar
@<TRIPOS>SUBSTRUCTURE
     1 RES1 1

@<TRIPOS>CRYSIN
  15.2962    9.9891   15.3941  90.0000 118.1640  90.0000 231 1

