# MOL2 file generated by ConQuest
# Please check atom types

@<TRIPOS>MOLECULE
YONTUR
    53    58     1
SMALL
NO_CHARGES
****
Generated from CSD

@<TRIPOS>ATOM
      1 O1         2.2186    8.7567    0.5281 O.2       1 RES1    0.0000
      2 O2         3.7115    8.5726    2.0807 O.2       1 RES1    0.0000
      3 N1         2.7839    8.1198    1.4057 N.pl3     1 RES1    0.0000
      4 C1         1.6120    4.1227    2.1083 C.ar      1 RES1    0.0000
      5 C2         2.3552    4.8360    3.0660 C.ar      1 RES1    0.0000
      6 C3         2.7450    3.9935    4.2385 C.3       1 RES1    0.0000
      7 H1         3.7386    3.9669    4.3524 H         1 RES1    0.0000
      8 C4         2.0398    4.3536    5.5607 C.3       1 RES1    0.0000
      9 H2         2.0046    5.3335    5.7577 H         1 RES1    0.0000
     10 C5         2.6561    3.5078    6.6705 C.3       1 RES1    0.0000
     11 H3         2.3505    3.8084    7.5629 H         1 RES1    0.0000
     12 H4         3.6455    3.5412    6.6388 H         1 RES1    0.0000
     13 C6         2.1281    2.0797    6.3441 C.3       1 RES1    0.0000
     14 H5         2.8751    1.4599    6.1466 H         1 RES1    0.0000
     15 H6         1.5973    1.7156    7.0965 H         1 RES1    0.0000
     16 C7         1.2489    2.2993    5.1011 C.3       1 RES1    0.0000
     17 H7         0.5655    1.5865    4.9419 H         1 RES1    0.0000
     18 C8         2.1763    2.5838    3.9017 C.3       1 RES1    0.0000
     19 H8         2.9061    1.9036    3.8405 H         1 RES1    0.0000
     20 C9         1.4360    2.7270    2.5642 C.2       1 RES1    0.0000
     21 C10        0.6694    3.6936    5.3838 C.3       1 RES1    0.0000
     22 H9         0.1607    4.0615    4.6182 H         1 RES1    0.0000
     23 H10        0.1184    3.7227    6.2069 H         1 RES1    0.0000
     24 C11        0.6971    1.7440    1.9936 C.2       1 RES1    0.0000
     25 C12       -0.3221    2.0042    0.8862 C.3       1 RES1    0.0000
     26 H11        0.1087    1.8563    0.0074 H         1 RES1    0.0000
     27 H12       -0.6105    2.9506    0.9266 H         1 RES1    0.0000
     28 C13       -1.5601    1.0928    1.0013 C.3       1 RES1    0.0000
     29 H13       -2.3609    1.5788    0.6805 H         1 RES1    0.0000
     30 H14       -1.4365    0.2928    0.4319 H         1 RES1    0.0000
     31 C14       -1.7723    0.6597    2.4528 C.3       1 RES1    0.0000
     32 H15       -1.8444    1.4536    3.0407 H         1 RES1    0.0000
     33 H16       -2.6046    0.1304    2.5349 H         1 RES1    0.0000
     34 C15       -0.5874   -0.1713    2.8443 C.ar      1 RES1    0.0000
     35 C16       -0.6984   -1.4254    3.4001 C.ar      1 RES1    0.0000
     36 H17       -1.5540   -1.7680    3.6313 H         1 RES1    0.0000
     37 C17        0.4399   -2.1912    3.6240 C.ar      1 RES1    0.0000
     38 H18        0.3689   -3.0413    4.0423 H         1 RES1    0.0000
     39 C18        1.6718   -1.7127    3.2356 C.ar      1 RES1    0.0000
     40 H19        2.4405   -2.2590    3.3557 H         1 RES1    0.0000
     41 C19        1.8193   -0.4526    2.6730 C.ar      1 RES1    0.0000
     42 C20        0.6840    0.3546    2.5246 C.ar      1 RES1    0.0000
     43 C21        3.1943   -0.0545    2.1867 C.3       1 RES1    0.0000
     44 H20        3.1264    0.7607    1.6465 H         1 RES1    0.0000
     45 H21        3.5696   -0.7773    1.6403 H         1 RES1    0.0000
     46 H22        3.7778    0.1112    2.9558 H         1 RES1    0.0000
     47 C22        1.2543    4.7584    0.9185 C.ar      1 RES1    0.0000
     48 H23        0.7616    4.2852    0.2584 H         1 RES1    0.0000
     49 C23        1.6172    6.0804    0.6964 C.ar      1 RES1    0.0000
     50 H24        1.3708    6.5186   -0.1095 H         1 RES1    0.0000
     51 C24        2.3444    6.7519    1.6698 C.ar      1 RES1    0.0000
     52 C25        2.7126    6.1539    2.8573 C.ar      1 RES1    0.0000
     53 H25        3.1993    6.6362    3.5144 H         1 RES1    0.0000
@<TRIPOS>BOND
     1    1    3 2
     2    2    3 2
     3    3   51 1
     4    4    5 ar
     5    5    6 1
     6    6    7 1
     7    8    6 1
     8    9    8 1
     9   10    8 1
    10   11   10 1
    11   12   10 1
    12   13   10 1
    13   14   13 1
    14   15   13 1
    15   16   13 1
    16   17   16 1
    17   18    6 1
    18   19   18 1
    19   20    4 1
    20   21    8 1
    21   22   21 1
    22   23   21 1
    23   24   20 2
    24   25   24 1
    25   26   25 1
    26   27   25 1
    27   28   25 1
    28   29   28 1
    29   30   28 1
    30   31   28 1
    31   32   31 1
    32   33   31 1
    33   34   31 1
    34   35   34 ar
    35   36   35 1
    36   37   35 ar
    37   38   37 1
    38   39   37 ar
    39   40   39 1
    40   41   39 ar
    41   42   24 1
    42   43   41 1
    43   44   43 1
    44   45   43 1
    45   46   43 1
    46   47    4 ar
    47   48   47 1
    48   49   47 ar
    49   50   49 1
    50   51   49 ar
    51   52    5 ar
    52   53   52 1
    53   16   18 1
    54   16   21 1
    55   18   20 1
    56   34   42 ar
    57   41   42 ar
    58   51   52 ar
@<TRIPOS>SUBSTRUCTURE
     1 RES1 1

@<TRIPOS>CRYSIN
  12.3320   12.7841   13.6455  90.0000 115.6050  90.0000  14 1

