# MOL2 file generated by ConQuest
# Please check atom types

@<TRIPOS>MOLECULE
YOPREA
    19    20     1
SMALL
NO_CHARGES
****
Generated from CSD

@<TRIPOS>ATOM
      1 O1         2.0583    4.9009   13.3271 O.3       1 RES1    0.0000
      2 O2         0.6555    3.6233   14.4289 O.2       1 RES1    0.0000
      3 O3         3.6318    6.0588   12.3156 O.2       1 RES1    0.0000
      4 O4        -0.8242    2.1135    8.5406 O.2       1 RES1    0.0000
      5 O5        -0.6925    1.7984   10.6553 O.2       1 RES1    0.0000
      6 N1         0.6459    3.4761   12.1753 N.am      1 RES1    0.0000
      7 N2        -0.3379    2.3607    9.6327 N.pl3     1 RES1    0.0000
      8 C1         1.0801    3.9660   13.3535 C.2       1 RES1    0.0000
      9 C2         2.7093    5.3068   12.1836 C.2       1 RES1    0.0000
     10 C3         2.2108    4.7548   10.9332 C.ar      1 RES1    0.0000
     11 C4         2.7939    5.1688    9.7202 C.ar      1 RES1    0.0000
     12 C5         2.3217    4.6617    8.5337 C.ar      1 RES1    0.0000
     13 C6         1.2994    3.7544    8.5379 C.ar      1 RES1    0.0000
     14 C7         0.7477    3.3336    9.7105 C.ar      1 RES1    0.0000
     15 C8         1.1905    3.8280   10.9471 C.ar      1 RES1    0.0000
     16 H1        -0.0319    2.8851   12.1850 H         1 RES1    0.0000
     17 H2         3.5143    5.8035    9.7244 H         1 RES1    0.0000
     18 H3         2.7149    4.9411    7.7042 H         1 RES1    0.0000
     19 H4         0.9691    3.4083    7.7056 H         1 RES1    0.0000
@<TRIPOS>BOND
     1    1    8 1
     2    2    8 2
     3    3    9 2
     4    4    7 2
     5    5    7 2
     6    6    8 1
     7    7   14 1
     8    9    1 1
     9   10    9 1
    10   11   10 ar
    11   12   11 ar
    12   13   12 ar
    13   14   13 ar
    14   15    6 1
    15   16    6 1
    16   17   11 1
    17   18   12 1
    18   19   13 1
    19   10   15 ar
    20   14   15 ar
@<TRIPOS>SUBSTRUCTURE
     1 RES1 1

@<TRIPOS>CRYSIN
   5.0660   11.4990   13.8940  90.0000  90.0000  90.0000  19 1

