# MOL2 file generated by ConQuest
# Please check atom types

@<TRIPOS>MOLECULE
YORDUE01
    55    57     1
SMALL
USER_CHARGES
****
Generated from CSD

@<TRIPOS>ATOM
      1 O1        13.9300    1.5918    7.1481 O.2       1 RES1    0.0000
      2 O2         9.9459   -0.2280    8.5751 O.2       1 RES1   -1.0000
      3 O3        10.1830    5.3488   10.0080 O.2       1 RES1   -1.0000
      4 O4         6.6915    4.3451    7.1726 O.2       1 RES1    0.0000
      5 N1        10.2275    2.8080    8.0535 N.ar      1 RES1    0.0000
      6 N2        13.0865    0.7902    7.6778 N.pl3     1 RES1    0.0000
      7 N3        11.1959   -0.0485    8.3931 N.pl3     1 RES1    1.0000
      8 N4         9.0370    5.3354    9.4619 N.pl3     1 RES1    1.0000
      9 N5         7.3880    4.9156    8.0769 N.3       1 RES1    0.0000
     10 C1        11.0690    2.1643    7.2297 C.ar      1 RES1    0.0000
     11 C2        11.2885    2.5223    5.9077 C.ar      1 RES1    0.0000
     12 C3        10.5727    3.5714    5.3838 C.ar      1 RES1    0.0000
     13 C4         9.6808    4.2296    6.1994 C.ar      1 RES1    0.0000
     14 C5         9.5573    3.8355    7.5168 C.ar      1 RES1    0.0000
     15 C6        11.7689    0.9986    7.7793 C.2       1 RES1    0.0000
     16 C7        13.4815   -0.5818    8.1282 C.3       1 RES1    0.0000
     17 C8        12.2261   -0.9831    8.9613 C.3       1 RES1    0.0000
     18 C9        13.6414   -1.4050    6.8575 C.3       1 RES1    0.0000
     19 C10       14.7810   -0.5271    8.8983 C.3       1 RES1    0.0000
     20 C11       11.7799   -2.4088    8.8108 C.3       1 RES1    0.0000
     21 C12       12.3365   -0.6159   10.4362 C.3       1 RES1    0.0000
     22 C13        8.6679    4.6319    8.3908 C.2       1 RES1    0.0000
     23 C14        7.8635    6.0916   10.0453 C.3       1 RES1    0.0000
     24 C15        6.9246    6.1380    8.8143 C.3       1 RES1    0.0000
     25 C16        7.3216    5.2436   11.1772 C.3       1 RES1    0.0000
     26 C17        8.2984    7.4461   10.5552 C.3       1 RES1    0.0000
     27 C18        5.4487    6.0741    9.1154 C.3       1 RES1    0.0000
     28 C19        7.2153    7.2996    7.8680 C.3       1 RES1    0.0000
     29 H1        11.9206    2.0519    5.3756 H         1 RES1    0.0000
     30 H2        10.6918    3.8376    4.4795 H         1 RES1    0.0000
     31 H3         9.1567    4.9455    5.8599 H         1 RES1    0.0000
     32 H4        13.8947   -2.2922    7.0851 H         1 RES1    0.0000
     33 H5        12.8172   -1.4215    6.3850 H         1 RES1    0.0000
     34 H6        14.3131   -1.0151    6.3103 H         1 RES1    0.0000
     35 H7        15.0202   -1.4019    9.1784 H         1 RES1    0.0000
     36 H8        15.4649   -0.1743    8.3406 H         1 RES1    0.0000
     37 H9        14.6744    0.0309    9.6603 H         1 RES1    0.0000
     38 H10       12.4406   -2.9875    9.1737 H         1 RES1    0.0000
     39 H11       10.9604   -2.5346    9.2717 H         1 RES1    0.0000
     40 H12       11.6597   -2.6058    7.8890 H         1 RES1    0.0000
     41 H13       11.5451   -0.8841   10.8890 H         1 RES1    0.0000
     42 H14       13.0859   -1.0574   10.8178 H         1 RES1    0.0000
     43 H15       12.4457    0.3239   10.5202 H         1 RES1    0.0000
     44 H16        6.5777    5.6821   11.5739 H         1 RES1    0.0000
     45 H17        7.0460    4.3998   10.8365 H         1 RES1    0.0000
     46 H18        7.9988    5.1157   11.8294 H         1 RES1    0.0000
     47 H19        7.5500    7.9041   10.9158 H         1 RES1    0.0000
     48 H20        8.9573    7.3336   11.2297 H         1 RES1    0.0000
     49 H21        8.6640    7.9516    9.8376 H         1 RES1    0.0000
     50 H22        5.1867    6.8601    9.5809 H         1 RES1    0.0000
     51 H23        4.9615    6.0111    8.3021 H         1 RES1    0.0000
     52 H24        5.2676    5.3127    9.6533 H         1 RES1    0.0000
     53 H25        6.9445    8.1146    8.2741 H         1 RES1    0.0000
     54 H26        8.1471    7.3326    7.6848 H         1 RES1    0.0000
     55 H27        6.7373    7.1758    7.0571 H         1 RES1    0.0000
@<TRIPOS>BOND
     1    1    6 2
     2    2    7 1
     3    3    8 1
     4    4    9 1
     5    5   10 ar
     6    6   15 1
     7    7   15 2
     8    8   22 2
     9    9   22 1
    10   10   11 ar
    11   11   12 ar
    12   12   13 ar
    13   13   14 ar
    14   14    5 ar
    15   15   10 1
    16   16    6 1
    17   17    7 1
    18   18   16 1
    19   19   16 1
    20   20   17 1
    21   21   17 1
    22   22   14 1
    23   23    8 1
    24   24    9 1
    25   25   23 1
    26   26   23 1
    27   27   24 1
    28   28   24 1
    29   29   11 1
    30   30   12 1
    31   31   13 1
    32   32   18 1
    33   33   18 1
    34   34   18 1
    35   35   19 1
    36   36   19 1
    37   37   19 1
    38   38   20 1
    39   39   20 1
    40   40   20 1
    41   41   21 1
    42   42   21 1
    43   43   21 1
    44   44   25 1
    45   45   25 1
    46   46   25 1
    47   47   26 1
    48   48   26 1
    49   49   26 1
    50   50   27 1
    51   51   27 1
    52   52   27 1
    53   53   28 1
    54   54   28 1
    55   55   28 1
    56   16   17 1
    57   23   24 1
@<TRIPOS>SUBSTRUCTURE
     1 RES1 1

@<TRIPOS>CRYSIN
  16.3340   10.3160   11.9900  90.0000 103.3000  90.0000  14 1

