# MOL2 file generated by ConQuest
# Please check atom types

@<TRIPOS>MOLECULE
YORDUE
    28    30     1
SMALL
NO_CHARGES
****
Generated from CSD

@<TRIPOS>ATOM
      1 O1         2.2286   10.5885    4.2558 O.2       1 RES1    0.0000
      2 O2         4.4924    8.7677    0.6737 O.2       1 RES1    0.0000
      3 O3         0.9129    4.9785    3.6887 O.2       1 RES1    0.0000
      4 O4         2.8661    6.0307    7.7311 O.2       1 RES1    0.0000
      5 N1         2.8037    7.5420    4.0837 N.ar      1 RES1    0.0000
      6 N2         2.6816   10.4109    3.0740 N.3       1 RES1    0.0000
      7 N3         3.7899    9.5716    1.3777 N.pl3     1 RES1    0.0000
      8 N4         1.1761    5.0065    4.9343 N.pl3     1 RES1    0.0000
      9 N5         2.1410    5.4573    6.8519 N.3       1 RES1    0.0000
     10 C1         3.7908    8.1985    3.4482 C.ar      1 RES1    0.0000
     11 C2         5.1349    7.8578    3.5406 C.ar      1 RES1    0.0000
     12 C3         5.4896    6.8087    4.3577 C.ar      1 RES1    0.0000
     13 C4         4.4987    6.1449    5.0410 C.ar      1 RES1    0.0000
     14 C5         3.1843    6.5189    4.8562 C.ar      1 RES1    0.0000
     15 C6         3.4028    9.3712    2.6503 C.2       1 RES1    0.0000
     16 C7         3.4246   10.9375    0.8951 C.3       1 RES1    0.0000
     17 C8         2.3882   11.3634    1.9543 C.3       1 RES1    0.0000
     18 C9         2.9654   10.8773   -0.5367 C.3       1 RES1    0.0000
     19 C10        4.7255   11.7529    0.9970 C.3       1 RES1    0.0000
     20 C11        0.9470   11.0248    1.5290 C.3       1 RES1    0.0000
     21 C12        2.4386   12.7719    2.4321 C.3       1 RES1    0.0000
     22 C13        2.1362    5.7232    5.5315 C.2       1 RES1    0.0000
     23 C14        0.3394    4.2639    5.9488 C.3       1 RES1    0.0000
     24 C15        1.3160    4.2337    7.1450 C.3       1 RES1    0.0000
     25 C16       -0.0540    2.8969    5.4312 C.3       1 RES1    0.0000
     26 C17       -0.8947    5.1177    6.1957 C.3       1 RES1    0.0000
     27 C18        0.6722    4.3345    8.5163 C.3       1 RES1    0.0000
     28 C19        2.3011    3.0725    7.1099 C.3       1 RES1    0.0000
@<TRIPOS>BOND
     1    1    6 1
     2    2    7 1
     3    3    8 1
     4    4    9 1
     5    5   10 ar
     6    6   15 1
     7    7   15 2
     8    8   22 2
     9    9   22 1
    10   10   11 ar
    11   11   12 ar
    12   12   13 ar
    13   13   14 ar
    14   14    5 ar
    15   15   10 1
    16   16    7 1
    17   17    6 1
    18   18   16 1
    19   19   16 1
    20   20   17 1
    21   21   17 1
    22   22   14 1
    23   23    8 1
    24   24    9 1
    25   25   23 1
    26   26   23 1
    27   27   24 1
    28   28   24 1
    29   16   17 1
    30   23   24 1
@<TRIPOS>SUBSTRUCTURE
     1 RES1 1

@<TRIPOS>CRYSIN
  12.0620   10.3870   16.3440  90.0000 102.9670  90.0000  14 2

