# MOL2 file generated by ConQuest
# Please check atom types

@<TRIPOS>MOLECULE
YORKEW
    40    41     1
SMALL
NO_CHARGES
****
Generated from CSD

@<TRIPOS>ATOM
      1 C1         9.4960    4.2674    3.8553 C.3       1 RES1    0.0000
      2 H1         9.4362    4.5857    4.7586 H         1 RES1    0.0000
      3 H2         9.9407    4.9238    3.3131 H         1 RES1    0.0000
      4 H3         9.9956    3.4471    3.8376 H         1 RES1    0.0000
      5 C2         8.1088    4.0251    3.3136 C.3       1 RES1    0.0000
      6 H4         7.6097    4.8564    3.3494 H         1 RES1    0.0000
      7 H5         7.6553    3.3870    3.8866 H         1 RES1    0.0000
      8 C3         8.0873    3.5031    1.8926 C.3       1 RES1    0.0000
      9 H6         8.5103    4.1505    1.3090 H         1 RES1    0.0000
     10 H7         8.5990    2.6803    1.8463 H         1 RES1    0.0000
     11 C4         6.7020    3.2453    1.4146 C.3       1 RES1    0.0000
     12 H8         6.2355    2.6730    2.0425 H         1 RES1    0.0000
     13 H9         6.2160    4.0811    1.3410 H         1 RES1    0.0000
     14 C5         5.6355    2.2407   -0.4756 C.ar      1 RES1    0.0000
     15 C6         4.3634    2.4948    0.0115 C.ar      1 RES1    0.0000
     16 H10        4.2559    2.9502    0.8144 H         1 RES1    0.0000
     17 C7         3.2594    2.0747   -0.6929 C.ar      1 RES1    0.0000
     18 H11        2.4090    2.2695   -0.3688 H         1 RES1    0.0000
     19 C8         3.3898    1.3680   -1.8747 C.ar      1 RES1    0.0000
     20 C9         4.6759    1.1138   -2.3488 C.ar      1 RES1    0.0000
     21 H12        4.7883    0.6515   -3.1490 H         1 RES1    0.0000
     22 C10        5.7624    1.5328   -1.6578 C.ar      1 RES1    0.0000
     23 H13        6.6114    1.3408   -1.9849 H         1 RES1    0.0000
     24 C11        2.2625    0.8541   -2.6326 C.2       1 RES1    0.0000
     25 C12       -0.1178    0.7453   -2.6492 C.ar      1 RES1    0.0000
     26 C13       -1.0072    0.0365   -1.8787 C.ar      1 RES1    0.0000
     27 H14       -0.7865   -0.2005   -1.0063 H         1 RES1    0.0000
     28 C14       -2.2215   -0.3186   -2.4000 C.ar      1 RES1    0.0000
     29 H15       -2.8341   -0.7952   -1.8868 H         1 RES1    0.0000
     30 C15       -2.5234    0.0341   -3.6800 C.ar      1 RES1    0.0000
     31 C16       -1.6428    0.7384   -4.4629 C.ar      1 RES1    0.0000
     32 H16       -1.8670    0.9665   -5.3364 H         1 RES1    0.0000
     33 C17       -0.4280    1.1013   -3.9344 C.ar      1 RES1    0.0000
     34 H17        0.1788    1.5855   -4.4452 H         1 RES1    0.0000
     35 N1        -3.8179   -0.3580   -4.2280 N.pl3     1 RES1    0.0000
     36 O1         6.7784    2.6076    0.1311 O.3       1 RES1    0.0000
     37 O2         2.2995    0.2229   -3.6444 O.2       1 RES1    0.0000
     38 O3         1.0597    1.1439   -2.0303 O.3       1 RES1    0.0000
     39 O4        -4.5683   -1.0116   -3.5342 O.2       1 RES1    0.0000
     40 O5        -4.0907   -0.0053   -5.3579 O.2       1 RES1    0.0000
@<TRIPOS>BOND
     1    1    2 1
     2    3    1 1
     3    4    1 1
     4    5    1 1
     5    6    5 1
     6    7    5 1
     7    8    5 1
     8    9    8 1
     9   10    8 1
    10   11    8 1
    11   12   11 1
    12   13   11 1
    13   14   15 ar
    14   15   16 1
    15   17   15 ar
    16   18   17 1
    17   19   17 ar
    18   20   19 ar
    19   21   20 1
    20   22   14 ar
    21   23   22 1
    22   24   19 1
    23   25   26 ar
    24   26   27 1
    25   28   26 ar
    26   29   28 1
    27   30   28 ar
    28   31   30 ar
    29   32   31 1
    30   33   25 ar
    31   34   33 1
    32   35   30 1
    33   36   11 1
    34   37   24 2
    35   38   24 1
    36   39   35 2
    37   40   35 2
    38   14   36 1
    39   20   22 ar
    40   25   38 1
    41   31   33 ar
@<TRIPOS>SUBSTRUCTURE
     1 RES1 1

@<TRIPOS>CRYSIN
  17.9940    4.0592   21.6250  90.0000  99.6340  90.0000  14 1

