# MOL2 file generated by ConQuest
# Please check atom types

@<TRIPOS>MOLECULE
YORSAB
    42    45     1
SMALL
NO_CHARGES
****
Generated from CSD

@<TRIPOS>ATOM
      1 N1         7.0366   10.8157    1.2999 N.pl3     1 RES1    0.0000
      2 N2        12.4465   15.4787   -1.1587 N.pl3     1 RES1    0.0000
      3 O1         5.8557   12.5637    2.1891 O.3       1 RES1    0.0000
      4 O2        13.5299   14.9116   -1.0931 O.2       1 RES1    0.0000
      5 O3        12.3446   16.6699   -1.3157 O.2       1 RES1    0.0000
      6 O4         8.7503    8.6970   -1.8007 O.2       1 RES1    0.0000
      7 O5         9.0160   10.6054   -2.9579 O.3       1 RES1    0.0000
      8 C1         6.1037    9.0589    2.8707 C.ar      1 RES1    0.0000
      9 H1         6.5583    8.3308    2.5126 H         1 RES1    0.0000
     10 C2         5.2165    8.9172    3.9472 C.ar      1 RES1    0.0000
     11 H2         5.0793    8.0754    4.3205 H         1 RES1    0.0000
     12 C3         4.5464   10.0041    4.4581 C.ar      1 RES1    0.0000
     13 H3         3.9633    9.8786    5.1722 H         1 RES1    0.0000
     14 C4         4.7088   11.2806    3.9443 C.ar      1 RES1    0.0000
     15 H4         4.2497   12.0119    4.2924 H         1 RES1    0.0000
     16 C5         5.5811   11.4089    2.8981 C.ar      1 RES1    0.0000
     17 C6         6.2660   10.3252    2.3742 C.ar      1 RES1    0.0000
     18 C7         7.7126   12.2299   -1.0895 C.3       1 RES1    0.0000
     19 H5         7.3539   12.3295   -1.9960 H         1 RES1    0.0000
     20 C8         6.9111   12.2663    1.2675 C.3       1 RES1    0.0000
     21 H6         7.7451   12.6752    1.5787 H         1 RES1    0.0000
     22 C9         6.6218   12.7151   -0.1261 C.3       1 RES1    0.0000
     23 H7         6.5745   13.6842   -0.1513 H         1 RES1    0.0000
     24 H8         5.7627   12.3638   -0.4078 H         1 RES1    0.0000
     25 C10        7.9606   10.7549   -0.8798 C.2       1 RES1    0.0000
     26 C11        7.5517   10.1374    0.2428 C.2       1 RES1    0.0000
     27 H9         7.6270    9.2121    0.2969 H         1 RES1    0.0000
     28 C12        8.9585   13.0994   -1.0117 C.ar      1 RES1    0.0000
     29 C13        8.9053   14.4416   -1.3986 C.ar      1 RES1    0.0000
     30 H10        8.0905   14.8023   -1.6616 H         1 RES1    0.0000
     31 C14       10.0183   15.2401   -1.4015 C.ar      1 RES1    0.0000
     32 H11        9.9578   16.1383   -1.6321 H         1 RES1    0.0000
     33 C15       11.2169   14.6845   -1.0571 C.ar      1 RES1    0.0000
     34 C16       11.3335   13.3840   -0.6384 C.ar      1 RES1    0.0000
     35 H12       12.1572   13.0365   -0.3869 H         1 RES1    0.0000
     36 C17       10.1880   12.5992   -0.5988 C.ar      1 RES1    0.0000
     37 H13       10.2456   11.7222   -0.2904 H         1 RES1    0.0000
     38 C18        8.6086    9.8901   -1.8972 C.2       1 RES1    0.0000
     39 C19        9.7127    9.7605   -3.9667 C.3       1 RES1    0.0000
     40 H14       10.5704    9.4955   -3.6251 H         1 RES1    0.0000
     41 H15        9.8323   10.2616   -4.7766 H         1 RES1    0.0000
     42 H16        9.1858    8.9785   -4.1497 H         1 RES1    0.0000
@<TRIPOS>BOND
     1    1   17 1
     2    2    4 2
     3    3   16 1
     4    5    2 2
     5    6   38 2
     6    7   38 1
     7    8    9 1
     8   10    8 ar
     9   11   10 1
    10   12   10 ar
    11   13   12 1
    12   14   12 ar
    13   15   14 1
    14   16   14 ar
    15   17    8 ar
    16   18   19 1
    17   20    1 1
    18   21   20 1
    19   22   18 1
    20   23   22 1
    21   24   22 1
    22   25   18 1
    23   26    1 1
    24   27   26 1
    25   28   18 1
    26   29   28 ar
    27   30   29 1
    28   31   29 ar
    29   32   31 1
    30   33    2 1
    31   34   33 ar
    32   35   34 1
    33   36   28 ar
    34   37   36 1
    35   38   25 1
    36   39    7 1
    37   40   39 1
    38   41   39 1
    39   42   39 1
    40    3   20 1
    41   16   17 ar
    42   20   22 1
    43   25   26 2
    44   31   33 ar
    45   34   36 ar
@<TRIPOS>SUBSTRUCTURE
     1 RES1 1

@<TRIPOS>CRYSIN
  14.7610   31.1430    7.2056  90.0000  90.0000  90.0000  56 1

