# MOL2 file generated by ConQuest
# Please check atom types

@<TRIPOS>MOLECULE
YORSEF
    27    30     1
SMALL
NO_CHARGES
****
Generated from CSD

@<TRIPOS>ATOM
      1 C1         0.8511    4.3176   -0.5219 C.2       1 RES1    0.0000
      2 C2         0.9958    5.6252    0.1648 C.3       1 RES1    0.0000
      3 H1         0.3444    6.2774   -0.1980 H         1 RES1    0.0000
      4 H2         1.9086    5.9845    0.0308 H         1 RES1    0.0000
      5 C3         0.7284    5.3801    1.6765 C.3       1 RES1    0.0000
      6 H3         1.1109    6.1370    2.1877 H         1 RES1    0.0000
      7 H4        -0.2499    5.3844    1.8261 H         1 RES1    0.0000
      8 C4         1.3029    4.0641    2.2488 C.3       1 RES1    0.0000
      9 H5         2.2850    4.0471    2.1213 H         1 RES1    0.0000
     10 H6         1.1178    4.0152    3.2205 H         1 RES1    0.0000
     11 C5         0.6743    2.8632    1.5469 C.3       1 RES1    0.0000
     12 H7        -0.2697    2.7416    1.8533 H         1 RES1    0.0000
     13 C6         1.2145    0.5988    0.9012 C.ar      1 RES1    0.0000
     14 C7         1.4385   -0.6769    1.3881 C.ar      1 RES1    0.0000
     15 H8         1.6922   -0.7998    2.2956 H         1 RES1    0.0000
     16 C8         1.2915   -1.7772    0.5521 C.ar      1 RES1    0.0000
     17 H9         1.4477   -2.6494    0.8952 H         1 RES1    0.0000
     18 C9         0.9219   -1.6200   -0.7757 C.ar      1 RES1    0.0000
     19 H10        0.8061   -2.3806   -1.3340 H         1 RES1    0.0000
     20 C10        0.7223   -0.3517   -1.2797 C.ar      1 RES1    0.0000
     21 H11        0.4724   -0.2403   -2.1889 H         1 RES1    0.0000
     22 C11        0.8846    0.7734   -0.4604 C.ar      1 RES1    0.0000
     23 C12        0.8000    2.1660   -0.9043 C.2       1 RES1    0.0000
     24 C13        0.7063    3.1419    0.1001 C.2       1 RES1    0.0000
     25 N1         0.9448    2.6910   -2.0951 N.2       1 RES1    0.0000
     26 O1         0.9654    4.1143   -1.8555 O.3       1 RES1    0.0000
     27 O2         1.4393    1.6421    1.7802 O.3       1 RES1    0.0000
@<TRIPOS>BOND
     1    1    2 1
     2    2    3 1
     3    4    2 1
     4    5    2 1
     5    6    5 1
     6    7    5 1
     7    8    5 1
     8    9    8 1
     9   10    8 1
    10   11    8 1
    11   12   11 1
    12   13   14 ar
    13   14   15 1
    14   16   14 ar
    15   17   16 1
    16   18   16 ar
    17   19   18 1
    18   20   18 ar
    19   21   20 1
    20   22   13 ar
    21   23   22 1
    22   24    1 2
    23   25   23 2
    24   26    1 1
    25   27   11 1
    26   11   24 1
    27   13   27 1
    28   20   22 ar
    29   23   24 1
    30   25   26 1
@<TRIPOS>SUBSTRUCTURE
     1 RES1 1

@<TRIPOS>CRYSIN
   7.6193   10.9706   11.8576  90.0000  90.0000  90.0000  19 1

