# MOL2 file generated by ConQuest
# Please check atom types

@<TRIPOS>MOLECULE
YOSJUN
    76    79     1
SMALL
NO_CHARGES
****
Generated from CSD

@<TRIPOS>ATOM
      1 C1        17.6578    6.0882   11.0511 C.3       1 RES1    0.0000
      2 H1        16.8215    5.6500   11.3458 H         1 RES1    0.0000
      3 H2        17.7846    6.9126   11.5839 H         1 RES1    0.0000
      4 C2        18.8182    5.1648   11.2509 C.3       1 RES1    0.0000
      5 H3        18.8042    4.4319   10.5715 H         1 RES1    0.0000
      6 C3        18.8055    4.6003   12.6296 C.2       1 RES1    0.0000
      7 H4        18.6021    5.1862   13.3505 H         1 RES1    0.0000
      8 C4        19.0586    3.3407   12.9110 C.2       1 RES1    0.0000
      9 H5        19.2353    2.7591   12.1817 H         1 RES1    0.0000
     10 C5        19.0904    2.7438   14.2913 C.3       1 RES1    0.0000
     11 H6        18.7886    3.4334   14.9490 H         1 RES1    0.0000
     12 C6        20.4901    2.3178   14.6426 C.ar      1 RES1    0.0000
     13 C7        21.3279    3.2192   15.2787 C.ar      1 RES1    0.0000
     14 H7        20.9835    4.0608   15.5551 H         1 RES1    0.0000
     15 C8        22.6433    2.9190   15.5168 C.ar      1 RES1    0.0000
     16 H8        23.1956    3.5512   15.9580 H         1 RES1    0.0000
     17 C9        23.1667    1.7051   15.1222 C.ar      1 RES1    0.0000
     18 H9        24.0837    1.5074   15.2737 H         1 RES1    0.0000
     19 C10       22.3545    0.7867   14.5078 C.ar      1 RES1    0.0000
     20 H10       22.7032   -0.0561   14.2430 H         1 RES1    0.0000
     21 C11       21.0172    1.0948   14.2730 C.ar      1 RES1    0.0000
     22 H11       20.4572    0.4528   13.8534 H         1 RES1    0.0000
     23 O1        18.1878    1.6166   14.3479 O.3       1 RES1    0.0000
     24 C12       16.8295    2.0023   14.6093 C.3       1 RES1    0.0000
     25 H12       16.5923    2.7627   14.0049 H         1 RES1    0.0000
     26 C13       15.9498    0.8391   14.2830 C.3       1 RES1    0.0000
     27 H13       15.9614    0.6811   13.3156 H         1 RES1    0.0000
     28 H14       15.0339    1.0320   14.5710 H         1 RES1    0.0000
     29 H15       16.2777    0.0415   14.7492 H         1 RES1    0.0000
     30 C14       16.6507    2.4484   16.0396 C.ar      1 RES1    0.0000
     31 C15       15.9031    3.5341   16.3560 C.ar      1 RES1    0.0000
     32 H16       15.4926    4.0455   15.6683 H         1 RES1    0.0000
     33 C16       15.7333    3.9107   17.7230 C.ar      1 RES1    0.0000
     34 H17       15.2274    4.6772   17.9644 H         1 RES1    0.0000
     35 C17       16.3370    3.1124   18.6838 C.ar      1 RES1    0.0000
     36 H18       16.2339    3.3468   19.5995 H         1 RES1    0.0000
     37 C18       17.0411    2.0505   18.3790 C.ar      1 RES1    0.0000
     38 H19       17.4392    1.5263   19.0634 H         1 RES1    0.0000
     39 C19       17.2024    1.7015   17.0536 C.ar      1 RES1    0.0000
     40 H20       17.7069    0.9264   16.8372 H         1 RES1    0.0000
     41 O2        20.0237    6.0161   11.0780 O.3       1 RES1    0.0000
     42 C20       21.0568    5.4614   10.4466 C.2       1 RES1    0.0000
     43 O3        21.0566    4.3470    9.9754 O.2       1 RES1    0.0000
     44 C21       22.2458    6.3579   10.3767 C.ar      1 RES1    0.0000
     45 C22       22.3447    7.5663   11.0677 C.ar      1 RES1    0.0000
     46 H21       21.6123    7.8964   11.5756 H         1 RES1    0.0000
     47 C23       23.5259    8.2693   11.0011 C.ar      1 RES1    0.0000
     48 C24       24.6048    7.8378   10.2635 C.ar      1 RES1    0.0000
     49 H22       25.4104    8.3389   10.2285 H         1 RES1    0.0000
     50 C25       24.4666    6.6508    9.5825 C.ar      1 RES1    0.0000
     51 C26       23.3211    5.8996    9.6308 C.ar      1 RES1    0.0000
     52 H23       23.2646    5.0763    9.1596 H         1 RES1    0.0000
     53 N1        23.6634    9.5118   11.7604 N.pl3     1 RES1    0.0000
     54 O4        22.7023    9.9195   12.3981 O.2       1 RES1    0.0000
     55 O5        24.7413   10.0983   11.7104 O.2       1 RES1    0.0000
     56 N2        25.6212    6.1528    8.8132 N.pl3     1 RES1    0.0000
     57 O6        26.5894    6.8907    8.6867 O.2       1 RES1    0.0000
     58 O7        25.5431    5.0244    8.3254 O.2       1 RES1    0.0000
     59 O8        17.5780    6.4159    9.6408 O.3       1 RES1    0.0000
     60 C27       16.9773    7.5614    9.3277 C.2       1 RES1    0.0000
     61 O9        16.5921    8.3706   10.1469 O.2       1 RES1    0.0000
     62 C28       16.8171    7.7408    7.8591 C.ar      1 RES1    0.0000
     63 C29       17.2509    6.8132    6.9334 C.ar      1 RES1    0.0000
     64 H24       17.6964    6.0235    7.2164 H         1 RES1    0.0000
     65 C30       17.0255    7.0518    5.5880 C.ar      1 RES1    0.0000
     66 C31       16.3400    8.1601    5.1451 C.ar      1 RES1    0.0000
     67 H25       16.1708    8.2986    4.2210 H         1 RES1    0.0000
     68 C32       15.9150    9.0547    6.0892 C.ar      1 RES1    0.0000
     69 C33       16.1639    8.8863    7.4379 C.ar      1 RES1    0.0000
     70 H26       15.8914    9.5454    8.0656 H         1 RES1    0.0000
     71 N3        17.4775    6.0644    4.6089 N.pl3     1 RES1    0.0000
     72 O10       18.0277    5.0409    5.0302 O.2       1 RES1    0.0000
     73 O11       17.2665    6.3048    3.4284 O.2       1 RES1    0.0000
     74 N4        15.1550   10.2460    5.6562 N.pl3     1 RES1    0.0000
     75 O12       14.8992   10.3467    4.4674 O.2       1 RES1    0.0000
     76 O13       14.8177   11.0436    6.5221 O.2       1 RES1    0.0000
@<TRIPOS>BOND
     1    1    2 1
     2    3    1 1
     3    4    1 1
     4    5    4 1
     5    6    4 1
     6    7    6 1
     7    8    6 2
     8    9    8 1
     9   10    8 1
    10   11   10 1
    11   12   10 1
    12   13   12 ar
    13   14   13 1
    14   15   13 ar
    15   16   15 1
    16   17   15 ar
    17   18   17 1
    18   19   17 ar
    19   20   19 1
    20   21   12 ar
    21   22   21 1
    22   23   10 1
    23   24   23 1
    24   25   24 1
    25   26   24 1
    26   27   26 1
    27   28   26 1
    28   29   26 1
    29   30   24 1
    30   31   30 ar
    31   32   31 1
    32   33   31 ar
    33   34   33 1
    34   35   33 ar
    35   36   35 1
    36   37   35 ar
    37   38   37 1
    38   39   30 ar
    39   40   39 1
    40   41    4 1
    41   42   41 1
    42   43   42 2
    43   44   42 1
    44   45   44 ar
    45   46   45 1
    46   47   45 ar
    47   48   47 ar
    48   49   48 1
    49   50   48 ar
    50   51   44 ar
    51   52   51 1
    52   53   47 1
    53   54   53 2
    54   55   53 2
    55   56   50 1
    56   57   56 2
    57   58   56 2
    58   59    1 1
    59   60   59 1
    60   61   60 2
    61   62   60 1
    62   63   62 ar
    63   64   63 1
    64   65   63 ar
    65   66   65 ar
    66   67   66 1
    67   68   66 ar
    68   69   62 ar
    69   70   69 1
    70   71   65 1
    71   72   71 2
    72   73   71 2
    73   74   68 1
    74   75   74 2
    75   76   74 2
    76   19   21 ar
    77   37   39 ar
    78   50   51 ar
    79   68   69 ar
@<TRIPOS>SUBSTRUCTURE
     1 RES1 1

@<TRIPOS>CRYSIN
  31.9940    6.1028   16.8310  90.0000  98.3940  90.0000   5 1

