# MOL2 file generated by ConQuest
# Please check atom types

@<TRIPOS>MOLECULE
YOTJEY
    53    56     1
SMALL
NO_CHARGES
****
Generated from CSD

@<TRIPOS>ATOM
      1 O1         7.2344    2.4776   11.3354 O.3       1 RES1    0.0000
      2 O2         6.0283    9.6240    5.1172 O.3       1 RES1    0.0000
      3 O3         6.4529    8.7608    9.9660 O.2       1 RES1    0.0000
      4 O4         9.4448    5.9836    7.9609 O.3       1 RES1    0.0000
      5 O5         8.1488   10.2067    4.4671 O.2       1 RES1    0.0000
      6 N1         8.0160    6.1162    8.1529 N.3       1 RES1    0.0000
      7 N2         7.7407    8.9857    6.3446 N.am      1 RES1    0.0000
      8 C1         8.1308    1.5762   10.6829 C.3       1 RES1    0.0000
      9 H1         7.8719    1.4772    9.7645 H         1 RES1    0.0000
     10 H2         8.0977    0.7213   11.1183 H         1 RES1    0.0000
     11 H3         9.0242    1.9245   10.7283 H         1 RES1    0.0000
     12 C2         7.1641    3.7450   10.8714 C.ar      1 RES1    0.0000
     13 C3         7.8009    4.1918    9.7191 C.ar      1 RES1    0.0000
     14 H4         8.3498    3.6350    9.2169 H         1 RES1    0.0000
     15 C4         7.5769    5.5058    9.3601 C.ar      1 RES1    0.0000
     16 C5         7.7037    7.5681    8.2400 C.3       1 RES1    0.0000
     17 C6         6.8585    8.0847    7.0687 C.3       1 RES1    0.0000
     18 H5         6.5727    7.3518    6.5009 H         1 RES1    0.0000
     19 H6         6.0747    8.5562    7.3907 H         1 RES1    0.0000
     20 C7         7.3696    9.6467    5.2258 C.2       1 RES1    0.0000
     21 C8         5.3476   10.1458    3.9160 C.3       1 RES1    0.0000
     22 C9         5.7101   11.5916    3.6500 C.3       1 RES1    0.0000
     23 H7         5.6660   12.0884    4.4707 H         1 RES1    0.0000
     24 H8         5.0936   11.9656    3.0167 H         1 RES1    0.0000
     25 H9         6.6015   11.6386    3.2958 H         1 RES1    0.0000
     26 C10        6.3203    4.5992   11.6253 C.ar      1 RES1    0.0000
     27 H10        5.8768    4.2626   12.3708 H         1 RES1    0.0000
     28 C11        6.1510    5.8998   11.2770 C.ar      1 RES1    0.0000
     29 H11        5.6219    6.4656   11.7923 H         1 RES1    0.0000
     30 C12        6.7940    6.3746   10.1211 C.ar      1 RES1    0.0000
     31 C13        6.9033    7.7115    9.5629 C.2       1 RES1    0.0000
     32 C14       10.0771    7.1762    8.5251 C.3       1 RES1    0.0000
     33 C15        9.0753    8.2753    8.1291 C.3       1 RES1    0.0000
     34 H12        9.1285    9.0351    8.7458 H         1 RES1    0.0000
     35 C16        9.1351    8.7446    6.6798 C.3       1 RES1    0.0000
     36 H13        9.6591    9.5571    6.5975 H         1 RES1    0.0000
     37 H14        9.5187    8.0623    6.1084 H         1 RES1    0.0000
     38 C17        5.6568    9.2302    2.7530 C.3       1 RES1    0.0000
     39 H15        6.5996    9.2513    2.5717 H         1 RES1    0.0000
     40 H16        5.1745    9.5245    1.9777 H         1 RES1    0.0000
     41 H17        5.3930    8.3342    2.9725 H         1 RES1    0.0000
     42 C18        3.8828   10.0575    4.3192 C.3       1 RES1    0.0000
     43 H18        3.6646    9.1481    4.5363 H         1 RES1    0.0000
     44 H19        3.3320   10.3537    3.5916 H         1 RES1    0.0000
     45 H20        3.7276   10.6150    5.0850 H         1 RES1    0.0000
     46 C19       11.4355    7.2651    7.8679 C.3       1 RES1    0.0000
     47 H21       11.9419    6.4753    8.0718 H         1 RES1    0.0000
     48 H22       11.9002    8.0370    8.1983 H         1 RES1    0.0000
     49 H23       11.3260    7.3387    6.9172 H         1 RES1    0.0000
     50 C20       10.2494    7.0684   10.0340 C.3       1 RES1    0.0000
     51 H24        9.3857    7.0370   10.4527 H         1 RES1    0.0000
     52 H25       10.7338    7.8324   10.3561 H         1 RES1    0.0000
     53 H26       10.7359    6.2680   10.2440 H         1 RES1    0.0000
@<TRIPOS>BOND
     1    1    8 1
     2    2   20 1
     3    3   31 2
     4    4    6 1
     5    5   20 2
     6    6   15 1
     7    7   17 1
     8    8    9 1
     9   10    8 1
    10   11    8 1
    11   12    1 1
    12   13   12 ar
    13   14   13 1
    14   15   13 ar
    15   16    6 1
    16   17   16 1
    17   18   17 1
    18   19   17 1
    19   20    7 1
    20   21    2 1
    21   22   21 1
    22   23   22 1
    23   24   22 1
    24   25   22 1
    25   26   12 ar
    26   27   26 1
    27   28   26 ar
    28   29   28 1
    29   30   15 ar
    30   31   16 1
    31   32    4 1
    32   33   16 1
    33   34   33 1
    34   35    7 1
    35   36   35 1
    36   37   35 1
    37   38   21 1
    38   39   38 1
    39   40   38 1
    40   41   38 1
    41   42   21 1
    42   43   42 1
    43   44   42 1
    44   45   42 1
    45   46   32 1
    46   47   46 1
    47   48   46 1
    48   49   46 1
    49   50   32 1
    50   51   50 1
    51   52   50 1
    52   53   50 1
    53   28   30 ar
    54   30   31 1
    55   32   33 1
    56   33   35 1
@<TRIPOS>SUBSTRUCTURE
     1 RES1 1

@<TRIPOS>CRYSIN
   7.9804    9.8900   12.2837  77.0700  84.7530  87.9470   2 1

