# MOL2 file generated by ConQuest
# Please check atom types

@<TRIPOS>MOLECULE
YOTLAV
    73    78     1
SMALL
NO_CHARGES
****
Generated from CSD

@<TRIPOS>ATOM
      1 O1         6.3345   10.2991    4.9079 O.3       1 RES1    0.0000
      2 H1         6.1811   10.1003    5.7415 H         1 RES1    0.0000
      3 O2         0.7878   17.1907    0.1081 O.3       1 RES1    0.0000
      4 N1         5.0618   10.0541    4.3595 N.2       1 RES1    0.0000
      5 C1         5.5142   10.5813    0.8009 C.3       1 RES1    0.0000
      6 H2         5.6800    9.7331    0.3605 H         1 RES1    0.0000
      7 H3         5.8739   11.2919    0.2471 H         1 RES1    0.0000
      8 C2         6.1687   10.6000    2.1857 C.3       1 RES1    0.0000
      9 H4         6.9036    9.9691    2.2341 H         1 RES1    0.0000
     10 H5         6.4983   11.4868    2.4042 H         1 RES1    0.0000
     11 C3         5.0529   10.2000    3.0994 C.2       1 RES1    0.0000
     12 C4         3.7799    9.9855    2.3313 C.3       1 RES1    0.0000
     13 H6         3.7338    9.0359    2.0946 H         1 RES1    0.0000
     14 C5         2.5140   10.3307    3.0914 C.3       1 RES1    0.0000
     15 H7         1.7423   10.0566    2.5713 H         1 RES1    0.0000
     16 H8         2.4989    9.8418    3.9289 H         1 RES1    0.0000
     17 C6         2.4256   11.8111    3.3749 C.3       1 RES1    0.0000
     18 H9         3.1635   12.0660    3.9507 H         1 RES1    0.0000
     19 H10        1.6013   11.9905    3.8548 H         1 RES1    0.0000
     20 C7         2.4618   12.6828    2.1001 C.3       1 RES1    0.0000
     21 C8         3.7255   12.3045    1.2692 C.3       1 RES1    0.0000
     22 H11        4.4841   12.6108    1.8097 H         1 RES1    0.0000
     23 C9         3.9951   10.7857    1.0207 C.3       1 RES1    0.0000
     24 C10        3.7942   13.1360   -0.0122 C.3       1 RES1    0.0000
     25 H12        4.6037   12.9104   -0.4957 H         1 RES1    0.0000
     26 H13        3.0377   12.9143   -0.5771 H         1 RES1    0.0000
     27 C11        3.7839   14.6295    0.2750 C.3       1 RES1    0.0000
     28 H14        3.7338   15.1134   -0.5640 H         1 RES1    0.0000
     29 H15        4.6163   14.8734    0.7093 H         1 RES1    0.0000
     30 C12        2.6169   15.0525    1.1631 C.3       1 RES1    0.0000
     31 H16        1.7951   14.8456    0.6715 H         1 RES1    0.0000
     32 C13        2.5788   14.2231    2.4789 C.3       1 RES1    0.0000
     33 C14        1.3613   14.6963    3.3039 C.3       1 RES1    0.0000
     34 H17        0.5501   14.4771    2.8199 H         1 RES1    0.0000
     35 H18        1.3432   14.2120    4.1441 H         1 RES1    0.0000
     36 C15        1.3747   16.1963    3.5965 C.3       1 RES1    0.0000
     37 H19        0.5463   16.4349    4.0423 H         1 RES1    0.0000
     38 H20        2.1036   16.3898    4.2066 H         1 RES1    0.0000
     39 C16        1.5313   17.0630    2.3575 C.3       1 RES1    0.0000
     40 C17        2.6259   16.5664    1.3974 C.3       1 RES1    0.0000
     41 H21        3.5072   16.8524    1.7152 H         1 RES1    0.0000
     42 C18        2.2317   17.3647    0.1605 C.3       1 RES1    0.0000
     43 H22        2.6474   16.9783   -0.6381 H         1 RES1    0.0000
     44 C19        2.5532   18.8686    0.2519 C.3       1 RES1    0.0000
     45 C20        1.8266   19.4361    1.4754 C.3       1 RES1    0.0000
     46 H23        2.2332   20.2855    1.7108 H         1 RES1    0.0000
     47 H24        0.9039   19.6094    1.2341 H         1 RES1    0.0000
     48 C21        1.8490   18.5305    2.6969 C.3       1 RES1    0.0000
     49 H25        1.2010   18.8539    3.3417 H         1 RES1    0.0000
     50 H26        2.7255   18.5782    3.1091 H         1 RES1    0.0000
     51 C22        3.1900   10.1850   -0.1356 C.3       1 RES1    0.0000
     52 H27        3.4921    9.2891   -0.3038 H         1 RES1    0.0000
     53 H28        3.3159   10.7180   -0.9245 H         1 RES1    0.0000
     54 H29        2.2584   10.1706    0.0959 H         1 RES1    0.0000
     55 C23        1.1544   12.4169    1.3188 C.3       1 RES1    0.0000
     56 H30        1.0851   11.4802    1.1192 H         1 RES1    0.0000
     57 H31        1.1632   12.9183    0.5000 H         1 RES1    0.0000
     58 H32        0.4028   12.6877    1.8518 H         1 RES1    0.0000
     59 C24        3.8383   14.5125    3.3317 C.3       1 RES1    0.0000
     60 H33        4.6150   14.1749    2.8795 H         1 RES1    0.0000
     61 H34        3.7527   14.0821    4.1848 H         1 RES1    0.0000
     62 H35        3.9277   15.4593    3.4594 H         1 RES1    0.0000
     63 C25        0.3070   16.9964    1.4463 C.3       1 RES1    0.0000
     64 H36       -0.1297   16.1340    1.5277 H         1 RES1    0.0000
     65 H37       -0.3286   17.6901    1.6818 H         1 RES1    0.0000
     66 C26        4.0649   19.0692    0.3663 C.3       1 RES1    0.0000
     67 H38        4.2739   19.9991    0.2544 H         1 RES1    0.0000
     68 H39        4.5080   18.5570   -0.3140 H         1 RES1    0.0000
     69 H40        4.3620   18.7770    1.2312 H         1 RES1    0.0000
     70 C27        2.0469   19.5547   -1.0189 C.3       1 RES1    0.0000
     71 H41        2.1640   20.5042   -0.9390 H         1 RES1    0.0000
     72 H42        1.1154   19.3563   -1.1396 H         1 RES1    0.0000
     73 H43        2.5429   19.2330   -1.7762 H         1 RES1    0.0000
@<TRIPOS>BOND
     1    1    2 1
     2    3   42 1
     3    4    1 1
     4    5    6 1
     5    7    5 1
     6    8    5 1
     7    9    8 1
     8   10    8 1
     9   11    4 2
    10   12   11 1
    11   13   12 1
    12   14   12 1
    13   15   14 1
    14   16   14 1
    15   17   14 1
    16   18   17 1
    17   19   17 1
    18   20   17 1
    19   21   20 1
    20   22   21 1
    21   23    5 1
    22   24   21 1
    23   25   24 1
    24   26   24 1
    25   27   24 1
    26   28   27 1
    27   29   27 1
    28   30   27 1
    29   31   30 1
    30   32   20 1
    31   33   32 1
    32   34   33 1
    33   35   33 1
    34   36   33 1
    35   37   36 1
    36   38   36 1
    37   39   36 1
    38   40   30 1
    39   41   40 1
    40   42   40 1
    41   43   42 1
    42   44   42 1
    43   45   44 1
    44   46   45 1
    45   47   45 1
    46   48   39 1
    47   49   48 1
    48   50   48 1
    49   51   23 1
    50   52   51 1
    51   53   51 1
    52   54   51 1
    53   55   20 1
    54   56   55 1
    55   57   55 1
    56   58   55 1
    57   59   32 1
    58   60   59 1
    59   61   59 1
    60   62   59 1
    61   63    3 1
    62   64   63 1
    63   65   63 1
    64   66   44 1
    65   67   66 1
    66   68   66 1
    67   69   66 1
    68   70   44 1
    69   71   70 1
    70   72   70 1
    71   73   70 1
    72    8   11 1
    73   12   23 1
    74   21   23 1
    75   30   32 1
    76   39   40 1
    77   39   63 1
    78   45   48 1
@<TRIPOS>SUBSTRUCTURE
     1 RES1 1

@<TRIPOS>CRYSIN
  12.5887   13.2550   14.5355  90.0000  90.0000  90.0000  19 1

