# MOL2 file generated by ConQuest
# Please check atom types

@<TRIPOS>MOLECULE
YOTMEA
   130   138     2
SMALL
NO_CHARGES
****
Generated from CSD

@<TRIPOS>ATOM
      1 O1         6.7828    7.3587   10.3628 O.3       1 RES1    0.0000
      2 O2         9.0707    9.1835    7.3961 O.3       1 RES1    0.0000
      3 H1         8.3110    9.2518    7.0937 H         1 RES1    0.0000
      4 O3         9.6612    5.7197    6.4275 O.3       1 RES1    0.0000
      5 O4         7.4697    5.5404    5.8792 O.2       1 RES1    0.0000
      6 O5         8.6543    3.8226    6.4562 O.2       1 RES1    0.0000
      7 O6        14.8395   10.0389    4.4578 O.3       1 RES1    0.0000
      8 O7        17.3122    9.2213    6.6929 O.2       1 RES1    0.0000
      9 O8         6.1676    9.2724   11.3068 O.2       1 RES1    0.0000
     10 N1         8.4773    4.9683    6.2245 N.pl3     1 RES1    0.0000
     11 C1        10.3503    8.5776    9.8373 C.3       1 RES1    0.0000
     12 H2        11.1278    8.5387   10.4153 H         1 RES1    0.0000
     13 H3        10.1991    9.5081    9.6088 H         1 RES1    0.0000
     14 C2         9.1305    8.0535   10.6098 C.3       1 RES1    0.0000
     15 H4         9.3189    7.1630   10.9455 H         1 RES1    0.0000
     16 H5         8.9571    8.6318   11.3695 H         1 RES1    0.0000
     17 C3         7.9139    8.0096    9.7204 C.3       1 RES1    0.0000
     18 H6         7.6612    8.9243    9.4760 H         1 RES1    0.0000
     19 C4         8.1670    7.2138    8.4634 C.3       1 RES1    0.0000
     20 H7         7.3742    7.2269    7.9045 H         1 RES1    0.0000
     21 H8         8.3573    6.2917    8.6961 H         1 RES1    0.0000
     22 C5         9.3476    7.8019    7.6919 C.3       1 RES1    0.0000
     23 C6         9.5236    7.1535    6.3170 C.3       1 RES1    0.0000
     24 H9         8.7234    7.3433    5.7846 H         1 RES1    0.0000
     25 C7        10.7355    7.6767    5.5541 C.3       1 RES1    0.0000
     26 H10       10.5449    8.5746    5.2395 H         1 RES1    0.0000
     27 H11       10.8822    7.1163    4.7763 H         1 RES1    0.0000
     28 C8        12.0223    7.7096    6.3900 C.3       1 RES1    0.0000
     29 H12       12.3083    6.7934    6.5858 H         1 RES1    0.0000
     30 C9        11.7781    8.4682    7.7149 C.3       1 RES1    0.0000
     31 H13       11.4409    9.3534    7.4656 H         1 RES1    0.0000
     32 C10       10.6507    7.7921    8.5474 C.3       1 RES1    0.0000
     33 C11       13.0769    8.7092    8.5016 C.3       1 RES1    0.0000
     34 H14       13.3789    7.8643    8.8703 H         1 RES1    0.0000
     35 H15       12.8846    9.3025    9.2444 H         1 RES1    0.0000
     36 C12       14.2161    9.3184    7.6601 C.3       1 RES1    0.0000
     37 H16       13.9846   10.2250    7.4061 H         1 RES1    0.0000
     38 H17       15.0294    9.3518    8.1892 H         1 RES1    0.0000
     39 C13       14.4539    8.4767    6.4034 C.3       1 RES1    0.0000
     40 C14       13.1224    8.4352    5.6336 C.3       1 RES1    0.0000
     41 H18       12.8264    9.3656    5.5551 H         1 RES1    0.0000
     42 C15       13.5024    7.9917    4.2163 C.3       1 RES1    0.0000
     43 H19       13.5927    7.0281    4.1589 H         1 RES1    0.0000
     44 H20       12.8492    8.2908    3.5649 H         1 RES1    0.0000
     45 C16       14.8297    8.6822    4.0197 C.3       1 RES1    0.0000
     46 H21       15.4223    8.4008    3.2908 H         1 RES1    0.0000
     47 C17       15.3977    9.0226    5.3362 C.3       1 RES1    0.0000
     48 C18       14.9894    7.0739    6.7633 C.3       1 RES1    0.0000
     49 H22       15.0909    6.5548    5.9621 H         1 RES1    0.0000
     50 H23       14.3693    6.6358    7.3509 H         1 RES1    0.0000
     51 H24       15.8389    7.1578    7.2000 H         1 RES1    0.0000
     52 C19       11.0629    6.3658    8.9468 C.3       1 RES1    0.0000
     53 H25       11.7844    6.4058    9.5791 H         1 RES1    0.0000
     54 H26       11.3468    5.8840    8.1669 H         1 RES1    0.0000
     55 H27       10.3134    5.9164    9.3453 H         1 RES1    0.0000
     56 C20       16.8552    9.2473    5.5594 C.2       1 RES1    0.0000
     57 C21       17.7312    9.5170    4.3874 C.3       1 RES1    0.0000
     58 H28       18.5588    9.9000    4.6881 H         1 RES1    0.0000
     59 H29       17.2921   10.1311    3.7944 H         1 RES1    0.0000
     60 H30       17.9080    8.6955    3.9241 H         1 RES1    0.0000
     61 C22        5.9427    8.1194   11.0550 C.2       1 RES1    0.0000
     62 C23        4.7563    7.3603   11.5299 C.3       1 RES1    0.0000
     63 H31        5.0397    6.6672   12.1303 H         1 RES1    0.0000
     64 H32        4.3048    6.9686   10.7787 H         1 RES1    0.0000
     65 H33        4.1591    7.9557   11.9879 H         1 RES1    0.0000
     66 O9         2.9639    2.9777    4.4686 O.3       2 RES2    0.0000
     67 O10        5.1234    3.2505    0.8233 O.3       2 RES2    0.0000
     68 H34        4.3665    3.1839    0.5164 H         2 RES2    0.0000
     69 O11        5.7053   -0.3110    1.5507 O.3       2 RES2    0.0000
     70 O12        3.4817   -0.6496    1.3973 O.2       2 RES2    0.0000
     71 O13        4.7824   -2.0514    2.4333 O.2       2 RES2    0.0000
     72 O14       10.7318    2.6938   -2.2624 O.3       2 RES2    0.0000
     73 O15       13.3596    2.6670    0.0188 O.2       2 RES2    0.0000
     74 O16        1.7428    4.6716    3.8826 O.2       2 RES2    0.0000
     75 N2         4.5424   -1.0565    1.8000 N.pl3     2 RES2    0.0000
     76 C24        6.4318    3.8346    3.2196 C.3       2 RES2    0.0000
     77 H35        7.2254    4.0844    3.7201 H         2 RES2    0.0000
     78 H36        6.2613    4.5319    2.5672 H         2 RES2    0.0000
     79 C25        5.2349    3.7485    4.1865 C.3       2 RES2    0.0000
     80 H37        5.4419    3.1250    4.9006 H         2 RES2    0.0000
     81 H38        5.0782    4.6185    4.5839 H         2 RES2    0.0000
     82 C26        3.9927    3.2951    3.4725 C.3       2 RES2    0.0000
     83 H39        3.6739    4.0037    2.8764 H         2 RES2    0.0000
     84 C27        4.2063    2.0175    2.6894 C.3       2 RES2    0.0000
     85 H40        3.3991    1.8052    2.1942 H         2 RES2    0.0000
     86 H41        4.3806    1.2881    3.3046 H         2 RES2    0.0000
     87 C28        5.3781    2.1508    1.7159 C.3       2 RES2    0.0000
     88 C29        5.5162    0.9344    0.7937 C.3       2 RES2    0.0000
     89 H42        4.7031    0.8548    0.2529 H         2 RES2    0.0000
     90 C30        6.7119    1.0435   -0.1381 C.3       2 RES2    0.0000
     91 H43        6.5205    1.7133   -0.8129 H         2 RES2    0.0000
     92 H44        6.8305    0.1941   -0.5919 H         2 RES2    0.0000
     93 C31        8.0182    1.4114    0.5616 C.3       2 RES2    0.0000
     94 H45        8.3087    0.6665    1.1274 H         2 RES2    0.0000
     95 C32        7.8339    2.6774    1.4277 C.3       2 RES2    0.0000
     96 H46        7.5453    3.3907    0.8203 H         2 RES2    0.0000
     97 C33        6.6998    2.5081    2.4807 C.3       2 RES2    0.0000
     98 C34        9.1756    3.1393    2.0401 C.3       2 RES2    0.0000
     99 H47        9.0365    3.9831    2.4970 H         2 RES2    0.0000
    100 H48        9.4572    2.4880    2.7021 H         2 RES2    0.0000
    101 C35       10.3016    3.3150    1.0084 C.3       2 RES2    0.0000
    102 H49       10.0949    4.0654    0.4293 H         2 RES2    0.0000
    103 H50       11.1328    3.5092    1.4674 H         2 RES2    0.0000
    104 C36       10.4670    2.0592    0.1704 C.3       2 RES2    0.0000
    105 C37        9.0965    1.7216   -0.4626 C.3       2 RES2    0.0000
    106 H51        8.8039    2.5414   -0.9127 H         2 RES2    0.0000
    107 C38        9.4158    0.7263   -1.5854 C.3       2 RES2    0.0000
    108 H52        9.5173   -0.1753   -1.2421 H         2 RES2    0.0000
    109 H53        8.7307    0.7331   -2.2718 H         2 RES2    0.0000
    110 C39       10.7282    1.2728   -2.1050 C.3       2 RES2    0.0000
    111 H54       11.2910    0.7168   -2.6841 H         2 RES2    0.0000
    112 C40       11.3510    2.1206   -1.0700 C.3       2 RES2    0.0000
    113 C41       11.0216    0.9079    1.0286 C.3       2 RES2    0.0000
    114 H55       11.8643    1.1679    1.4068 H         2 RES2    0.0000
    115 H56       11.1439    0.1296    0.4792 H         2 RES2    0.0000
    116 H57       10.4026    0.7076    1.7341 H         2 RES2    0.0000
    117 C42        7.0892    1.4379    3.5097 C.3       2 RES2    0.0000
    118 H58        7.7877    1.7758    4.0750 H         2 RES2    0.0000
    119 H59        7.3988    0.6520    3.0528 H         2 RES2    0.0000
    120 H60        6.3238    1.2155    4.0452 H         2 RES2    0.0000
    121 C43       12.8232    2.4054   -1.0222 C.2       2 RES2    0.0000
    122 C44       13.5859    2.4109   -2.2983 C.3       2 RES2    0.0000
    123 H61       14.4641    2.7684   -2.1453 H         2 RES2    0.0000
    124 H62       13.1277    2.9553   -2.9433 H         2 RES2    0.0000
    125 H63       13.6585    1.5131   -2.6320 H         2 RES2    0.0000
    126 C45        1.8929    3.7099    4.5361 C.2       2 RES2    0.0000
    127 C46        0.9144    3.2207    5.5222 C.3       2 RES2    0.0000
    128 H64        0.8050    3.8746    6.2171 H         2 RES2    0.0000
    129 H65        1.2284    2.3983    5.9047 H         2 RES2    0.0000
    130 H66        0.0711    3.0703    5.0886 H         2 RES2    0.0000
@<TRIPOS>BOND
     1    1   17 1
     2    2    3 1
     3    4   10 1
     4    5   10 2
     5    6   10 2
     6    7   45 1
     7    8   56 2
     8    9   61 2
     9   11   12 1
    10   13   11 1
    11   14   11 1
    12   15   14 1
    13   16   14 1
    14   17   14 1
    15   18   17 1
    16   19   17 1
    17   20   19 1
    18   21   19 1
    19   22    2 1
    20   23    4 1
    21   24   23 1
    22   25   23 1
    23   26   25 1
    24   27   25 1
    25   28   25 1
    26   29   28 1
    27   30   28 1
    28   31   30 1
    29   32   11 1
    30   33   30 1
    31   34   33 1
    32   35   33 1
    33   36   33 1
    34   37   36 1
    35   38   36 1
    36   39   36 1
    37   40   28 1
    38   41   40 1
    39   42   40 1
    40   43   42 1
    41   44   42 1
    42   45   42 1
    43   46   45 1
    44   47    7 1
    45   48   39 1
    46   49   48 1
    47   50   48 1
    48   51   48 1
    49   52   32 1
    50   53   52 1
    51   54   52 1
    52   55   52 1
    53   56   47 1
    54   57   56 1
    55   58   57 1
    56   59   57 1
    57   60   57 1
    58   61    1 1
    59   62   61 1
    60   63   62 1
    61   64   62 1
    62   65   62 1
    63   66   82 1
    64   67   68 1
    65   69   75 1
    66   70   75 2
    67   71   75 2
    68   72  110 1
    69   73  121 2
    70   74  126 2
    71   76   77 1
    72   78   76 1
    73   79   76 1
    74   80   79 1
    75   81   79 1
    76   82   79 1
    77   83   82 1
    78   84   82 1
    79   85   84 1
    80   86   84 1
    81   87   67 1
    82   88   69 1
    83   89   88 1
    84   90   88 1
    85   91   90 1
    86   92   90 1
    87   93   90 1
    88   94   93 1
    89   95   93 1
    90   96   95 1
    91   97   76 1
    92   98   95 1
    93   99   98 1
    94  100   98 1
    95  101   98 1
    96  102  101 1
    97  103  101 1
    98  104  101 1
    99  105   93 1
   100  106  105 1
   101  107  105 1
   102  108  107 1
   103  109  107 1
   104  110  107 1
   105  111  110 1
   106  112   72 1
   107  113  104 1
   108  114  113 1
   109  115  113 1
   110  116  113 1
   111  117   97 1
   112  118  117 1
   113  119  117 1
   114  120  117 1
   115  121  112 1
   116  122  121 1
   117  123  122 1
   118  124  122 1
   119  125  122 1
   120  126   66 1
   121  127  126 1
   122  128  127 1
   123  129  127 1
   124  130  127 1
   125   19   22 1
   126   22   23 1
   127   22   32 1
   128   30   32 1
   129   39   40 1
   130   39   47 1
   131   45   47 1
   132   84   87 1
   133   87   88 1
   134   87   97 1
   135   95   97 1
   136  104  105 1
   137  104  112 1
   138  110  112 1
@<TRIPOS>SUBSTRUCTURE
     1 RES1 1
     2 RES2 66

@<TRIPOS>CRYSIN
  10.9740   11.0721   11.1686  77.2135  73.2087  64.3465   1 1

