# MOL2 file generated by ConQuest
# Please check atom types

@<TRIPOS>MOLECULE
YOTSUW
    32    32     1
SMALL
NO_CHARGES
****
Generated from CSD

@<TRIPOS>ATOM
      1 O1         2.5217    7.6038    3.1752 O.2       1 RES1    0.0000
      2 O2         5.9085    4.5762    2.0430 O.2       1 RES1    0.0000
      3 O3         4.6845    5.5944    3.5138 O.2       1 RES1    0.0000
      4 N1         1.5021    5.7540    4.0343 N.am      1 RES1    0.0000
      5 N2         0.6500    5.1324   -1.3354 N.3       1 RES1    0.0000
      6 N3         4.8372    5.0916    2.3952 N.pl3     1 RES1    0.0000
      7 C1         1.4892    5.6927    0.8634 C.ar      1 RES1    0.0000
      8 H1         0.6654    6.0590    1.0908 H         1 RES1    0.0000
      9 C2         1.6725    5.1654   -0.4441 C.ar      1 RES1    0.0000
     10 C3         2.9542    4.6521   -0.7748 C.ar      1 RES1    0.0000
     11 H2         3.1206    4.3388   -1.6342 H         1 RES1    0.0000
     12 C4         3.9532    4.6167    0.1747 C.ar      1 RES1    0.0000
     13 H3         4.7818    4.2564   -0.0458 H         1 RES1    0.0000
     14 C5         3.7399    5.1142    1.4626 C.ar      1 RES1    0.0000
     15 C6         2.5033    5.6766    1.8092 C.ar      1 RES1    0.0000
     16 C7         2.2060    6.4120    3.0958 C.2       1 RES1    0.0000
     17 C8         1.0332    6.4624    5.2159 C.3       1 RES1    0.0000
     18 H4         1.3241    7.3767    5.1774 H         1 RES1    0.0000
     19 H5         1.3919    6.0452    6.0027 H         1 RES1    0.0000
     20 H6         0.0747    6.4331    5.2466 H         1 RES1    0.0000
     21 C9         1.0822    4.3616    3.9300 C.3       1 RES1    0.0000
     22 H7         1.6185    3.9144    3.2715 H         1 RES1    0.0000
     23 H8         0.1589    4.3242    3.6694 H         1 RES1    0.0000
     24 H9         1.1922    3.9297    4.7806 H         1 RES1    0.0000
     25 C10       -0.6240    5.7621   -1.0192 C.3       1 RES1    0.0000
     26 H10       -0.9185    5.4713   -0.1537 H         1 RES1    0.0000
     27 H11       -1.2761    5.5143   -1.6790 H         1 RES1    0.0000
     28 H12       -0.5175    6.7160   -1.0166 H         1 RES1    0.0000
     29 C11        0.8947    4.7743   -2.7279 C.3       1 RES1    0.0000
     30 H13        1.2471    3.8823   -2.7719 H         1 RES1    0.0000
     31 H14        1.5272    5.3874   -3.1097 H         1 RES1    0.0000
     32 H15        0.0705    4.8179   -3.2186 H         1 RES1    0.0000
@<TRIPOS>BOND
     1    1   16 2
     2    2    6 2
     3    3    6 2
     4    4   16 1
     5    5    9 1
     6    6   14 1
     7    7    8 1
     8    9    7 ar
     9   10    9 ar
    10   11   10 1
    11   12   10 ar
    12   13   12 1
    13   14   12 ar
    14   15    7 ar
    15   16   15 1
    16   17    4 1
    17   18   17 1
    18   19   17 1
    19   20   17 1
    20   21    4 1
    21   22   21 1
    22   23   21 1
    23   24   21 1
    24   25    5 1
    25   26   25 1
    26   27   25 1
    27   28   25 1
    28   29    5 1
    29   30   29 1
    30   31   29 1
    31   32   29 1
    32   14   15 ar
@<TRIPOS>SUBSTRUCTURE
     1 RES1 1

@<TRIPOS>CRYSIN
   7.8581    7.2921   10.5183  90.0000 104.6630  90.0000   4 1

