# MOL2 file generated by ConQuest
# Please check atom types

@<TRIPOS>MOLECULE
YOTTOR
    32    32     1
SMALL
NO_CHARGES
****
Generated from CSD

@<TRIPOS>ATOM
      1 C1         7.2711    1.8041    1.8463 C.2       1 RES1    0.0000
      2 H1         8.2186    1.8041    1.9129 H         1 RES1    0.0000
      3 C2         6.6041    1.8041    2.9800 C.2       1 RES1    0.0000
      4 H2         5.6540    1.8041    2.9612 H         1 RES1    0.0000
      5 C3         7.3082    1.8041    4.2967 C.2       1 RES1    0.0000
      6 C4         6.4394    1.8041    5.5562 C.3       1 RES1    0.0000
      7 C5         7.3399    1.8041    6.7850 C.3       1 RES1    0.0000
      8 H3         6.7878    1.8041    7.5948 H         1 RES1    0.0000
      9 H4         7.9056    2.6044    6.7750 H         1 RES1    0.0000
     10 C6         5.5462    0.5607    5.5568 C.3       1 RES1    0.0000
     11 H5         6.1052   -0.2439    5.5266 H         1 RES1    0.0000
     12 H6         4.9590    0.5795    4.7725 H         1 RES1    0.0000
     13 H7         5.0021    0.5492    6.3718 H         1 RES1    0.0000
     14 C7         6.7087    1.8041    0.4850 C.ar      1 RES1    0.0000
     15 C8         7.5859    1.8041   -0.5924 C.ar      1 RES1    0.0000
     16 H8         8.5247    1.8041   -0.4465 H         1 RES1    0.0000
     17 C9         7.0766    1.8041   -1.8803 C.ar      1 RES1    0.0000
     18 C10        5.7266    1.8041   -2.1436 C.ar      1 RES1    0.0000
     19 H9         5.4012    1.8041   -3.0358 H         1 RES1    0.0000
     20 C11        4.8539    1.8041   -1.0646 C.ar      1 RES1    0.0000
     21 H10        3.9160    1.8041   -1.2155 H         1 RES1    0.0000
     22 C12        5.3397    1.8041    0.2297 C.ar      1 RES1    0.0000
     23 H11        4.7289    1.8041    0.9572 H         1 RES1    0.0000
     24 N1         8.0239    1.8041   -3.0089 N.pl3     1 RES1    0.0000
     25 O1         7.5807    1.8041   -4.1479 O.2       1 RES1    0.0000
     26 O2         9.2184    1.8041   -2.7561 O.2       1 RES1    0.0000
     27 O3         8.5196    1.8041    4.3560 O.2       1 RES1    0.0000
     28 H4F        7.9056    1.0038    6.7750 H         1 RES1    0.0000
     29 C6F        5.5462    3.0474    5.5568 C.3       1 RES1    0.0000
     30 H5F        6.1052    3.8521    5.5266 H         1 RES1    0.0000
     31 H6F        4.9590    3.0287    4.7725 H         1 RES1    0.0000
     32 H7F        5.0021    3.0590    6.3718 H         1 RES1    0.0000
@<TRIPOS>BOND
     1    1    2 1
     2    3    1 2
     3    4    3 1
     4    5    3 1
     5    6    5 1
     6    7    6 1
     7    8    7 1
     8    9    7 1
     9   10    6 1
    10   11   10 1
    11   12   10 1
    12   13   10 1
    13   14    1 1
    14   15   14 ar
    15   16   15 1
    16   17   15 ar
    17   18   17 ar
    18   19   18 1
    19   20   18 ar
    20   21   20 1
    21   22   14 ar
    22   23   22 1
    23   24   17 1
    24   25   24 2
    25   26   24 2
    26   27    5 2
    27   28    7 1
    28   29    6 1
    29   30   29 1
    30   31   29 1
    31   32   29 1
    32   20   22 ar
@<TRIPOS>SUBSTRUCTURE
     1 RES1 1

@<TRIPOS>CRYSIN
  11.3375    7.2163   14.9327  90.0000  90.0000  90.0000  62 1

