# MOL2 file generated by ConQuest
# Please check atom types

@<TRIPOS>MOLECULE
YOVCOD
    33    33     1
SMALL
NO_CHARGES
****
Generated from CSD

@<TRIPOS>ATOM
      1 O1         0.5246    4.6324    1.1150 O.3       1 RES1    0.0000
      2 H1        -0.3277    4.3348    1.0803 H         1 RES1    0.0000
      3 O2         0.9257    3.3632    3.4965 O.2       1 RES1    0.0000
      4 O3         6.0123    1.2544    6.6773 O.3       1 RES1    0.0000
      5 N1         1.2664    3.4755    1.2742 N.am      1 RES1    0.0000
      6 H2         1.5741    3.1128    0.5122 H         1 RES1    0.0000
      7 C1         1.4284    2.9177    2.4524 C.2       1 RES1    0.0000
      8 C2         2.2659    1.6693    2.4304 C.3       1 RES1    0.0000
      9 H3         2.7801    1.6463    1.5861 H         1 RES1    0.0000
     10 H4         1.6670    0.8823    2.4373 H         1 RES1    0.0000
     11 C3         3.2278    1.5597    3.5932 C.ar      1 RES1    0.0000
     12 C4         4.2469    2.4864    3.7758 C.ar      1 RES1    0.0000
     13 H5         4.3232    3.2185    3.1758 H         1 RES1    0.0000
     14 C5         5.1489    2.3647    4.8098 C.ar      1 RES1    0.0000
     15 H6         5.8355    3.0119    4.9174 H         1 RES1    0.0000
     16 C6         5.0566    1.3032    5.6919 C.ar      1 RES1    0.0000
     17 C7         4.0462    0.3798    5.5381 C.ar      1 RES1    0.0000
     18 H7         3.9642   -0.3469    6.1449 H         1 RES1    0.0000
     19 C8         3.1426    0.5179    4.4865 C.ar      1 RES1    0.0000
     20 H8         2.4511   -0.1239    4.3847 H         1 RES1    0.0000
     21 C9         5.9370    0.1726    7.6099 C.3       1 RES1    0.0000
     22 H9         6.0147   -0.6927    7.1349 H         1 RES1    0.0000
     23 H10        5.0693    0.1929    8.0858 H         1 RES1    0.0000
     24 C10        7.0706    0.3288    8.5915 C.3       1 RES1    0.0000
     25 H11        7.0502    1.2489    8.9557 H         1 RES1    0.0000
     26 H12        6.9237   -0.2948    9.3468 H         1 RES1    0.0000
     27 C11        8.4314    0.0718    8.0160 C.3       1 RES1    0.0000
     28 H13        9.1125    0.3875    8.6614 H         1 RES1    0.0000
     29 H14        8.5325    0.6078    7.1899 H         1 RES1    0.0000
     30 C12        8.7123   -1.3777    7.6881 C.3       1 RES1    0.0000
     31 H15        8.5830   -1.9246    8.4909 H         1 RES1    0.0000
     32 H16        9.6369   -1.4687    7.3761 H         1 RES1    0.0000
     33 H17        8.0994   -1.6780    6.9850 H         1 RES1    0.0000
@<TRIPOS>BOND
     1    1    2 1
     2    3    7 2
     3    4   16 1
     4    5    1 1
     5    6    5 1
     6    7    5 1
     7    8    7 1
     8    9    8 1
     9   10    8 1
    10   11    8 1
    11   12   11 ar
    12   13   12 1
    13   14   12 ar
    14   15   14 1
    15   16   14 ar
    16   17   16 ar
    17   18   17 1
    18   19   11 ar
    19   20   19 1
    20   21    4 1
    21   22   21 1
    22   23   21 1
    23   24   21 1
    24   25   24 1
    25   26   24 1
    26   27   24 1
    27   28   27 1
    28   29   27 1
    29   30   27 1
    30   31   30 1
    31   32   30 1
    32   33   30 1
    33   17   19 ar
@<TRIPOS>SUBSTRUCTURE
     1 RES1 1

@<TRIPOS>CRYSIN
  47.0072    5.4802    9.5037  90.0000 101.4880  90.0000  15 1

