# MOL2 file generated by ConQuest
# Please check atom types

@<TRIPOS>MOLECULE
YOVJUP
    18    18     1
SMALL
NO_CHARGES
****
Generated from CSD

@<TRIPOS>ATOM
      1 O1         6.7690   -2.5852    2.1315 O.2       1 RES1    0.0000
      2 O2         8.2151   -1.5185    3.2087 O.2       1 RES1    0.0000
      3 N1         5.1573    0.8728    0.5948 N.ar      1 RES1    0.0000
      4 N2         4.8099   -1.3369    0.9376 N.3       1 RES1    0.0000
      5 N3         7.3221   -1.5322    2.4035 N.pl3     1 RES1    0.0000
      6 C1         5.6206   -0.2844    1.1108 C.ar      1 RES1    0.0000
      7 C2         6.8701   -0.3062    1.7944 C.ar      1 RES1    0.0000
      8 C3         7.6676    0.8441    1.8667 C.ar      1 RES1    0.0000
      9 C4         7.1467    1.9841    1.2905 C.ar      1 RES1    0.0000
     10 C5         5.9041    1.9442    0.7007 C.ar      1 RES1    0.0000
     11 C6         9.0327    0.9252    2.4908 C.3       1 RES1    0.0000
     12 H1         4.0843   -1.1452    0.4724 H         1 RES1    0.0000
     13 H2         5.0997   -2.1102    1.1166 H         1 RES1    0.0000
     14 H3         7.6337    2.7770    1.3005 H         1 RES1    0.0000
     15 H4         5.5690    2.7375    0.3506 H         1 RES1    0.0000
     16 H5         9.4297    1.7738    2.2824 H         1 RES1    0.0000
     17 H6         9.5849    0.2198    2.1453 H         1 RES1    0.0000
     18 H7         8.9551    0.8332    3.4432 H         1 RES1    0.0000
@<TRIPOS>BOND
     1    1    5 2
     2    2    5 2
     3    3    6 ar
     4    4    6 1
     5    5    7 1
     6    6    7 ar
     7    7    8 ar
     8    8    9 ar
     9    9   10 ar
    10   10    3 ar
    11   11    8 1
    12   12    4 1
    13   13    4 1
    14   14    9 1
    15   15   10 1
    16   16   11 1
    17   17   11 1
    18   18   11 1
@<TRIPOS>SUBSTRUCTURE
     1 RES1 1

@<TRIPOS>CRYSIN
   7.3776   12.8673    7.3884  90.0000 104.3640  90.0000 231 1

