# MOL2 file generated by ConQuest
# Please check atom types

@<TRIPOS>MOLECULE
YOVJOK
    53    54     2
SMALL
NO_CHARGES
****
Generated from CSD

@<TRIPOS>ATOM
      1 O1         0.0089    5.7187   13.4295 O.3       1 RES1    0.0000
      2 O2        -0.4342    4.3310    9.3824 O.3       1 RES1    0.0000
      3 O3         3.8148    2.9502   10.2737 O.2       1 RES1    0.0000
      4 N1         2.8898    3.4056   12.2140 N.am      1 RES1    0.0000
      5 H1         2.4752    3.6966   12.4042 H         1 RES1    0.0000
      6 O4         1.9226    2.9853   14.5640 O.3       1 RES1    0.0000
      7 N2        -0.0445    4.1317   11.7148 N.pl3     1 RES1    0.0000
      8 H2        -0.6481    3.6609   12.1583 H         1 RES1    0.0000
      9 N3         0.7529    6.9218   13.6926 N.2       1 RES1    0.0000
     10 C1         0.4236    5.2777   12.2353 C.2       1 RES1    0.0000
     11 C2         1.5352    7.0922   12.6548 C.2       1 RES1    0.0000
     12 C3         1.3726    6.0759   11.6958 C.2       1 RES1    0.0000
     13 C4         1.8896    5.7711   10.3220 C.3       1 RES1    0.0000
     14 H3         2.7968    6.1209   10.2037 H         1 RES1    0.0000
     15 C5         1.8613    4.2317   10.1442 C.3       1 RES1    0.0000
     16 H4         2.0305    4.0726    9.1915 H         1 RES1    0.0000
     17 C6         0.4190    3.7454   10.3983 C.3       1 RES1    0.0000
     18 C7         0.9536    6.3347    9.2807 C.ar      1 RES1    0.0000
     19 C8         1.1482    7.5846    8.7049 C.ar      1 RES1    0.0000
     20 H5         1.8804    8.0987    8.9599 H         1 RES1    0.0000
     21 C9         0.2625    8.0737    7.7534 C.ar      1 RES1    0.0000
     22 H6         0.3941    8.9157    7.3822 H         1 RES1    0.0000
     23 C10       -0.8138    7.3040    7.3627 C.ar      1 RES1    0.0000
     24 H7        -1.4034    7.6272    6.7199 H         1 RES1    0.0000
     25 C11       -1.0217    6.0623    7.9162 C.ar      1 RES1    0.0000
     26 H8        -1.7446    5.5441    7.6461 H         1 RES1    0.0000
     27 C12       -0.1439    5.5893    8.8817 C.ar      1 RES1    0.0000
     28 C13        2.9655    3.4993   10.8831 C.2       1 RES1    0.0000
     29 C14        3.6776    2.6229   13.0847 C.ar      1 RES1    0.0000
     30 C15        4.9299    2.1123   12.7725 C.ar      1 RES1    0.0000
     31 H9         5.3003    2.2591   11.9322 H         1 RES1    0.0000
     32 C16        5.6251    1.3804   13.7251 C.ar      1 RES1    0.0000
     33 H10        6.4633    1.0340   13.5171 H         1 RES1    0.0000
     34 C17        5.0947    1.1635   14.9608 C.ar      1 RES1    0.0000
     35 H11        5.5691    0.6652   15.5865 H         1 RES1    0.0000
     36 C18        3.8559    1.6787   15.2918 C.ar      1 RES1    0.0000
     37 H12        3.4987    1.5287   16.1375 H         1 RES1    0.0000
     38 C19        3.1516    2.4160   14.3644 C.ar      1 RES1    0.0000
     39 C20        1.2571    2.7332   15.7969 C.3       1 RES1    0.0000
     40 H13        0.4028    3.1707   15.7947 H         1 RES1    0.0000
     41 H14        1.7873    3.0716   16.5216 H         1 RES1    0.0000
     42 H15        1.1316    1.7876   15.9060 H         1 RES1    0.0000
     43 C21        0.2353    2.2519   10.2296 C.3       1 RES1    0.0000
     44 H16       -0.7007    2.0385   10.2684 H         1 RES1    0.0000
     45 H17        0.6978    1.7912   10.9343 H         1 RES1    0.0000
     46 H18        0.5914    1.9796    9.3817 H         1 RES1    0.0000
     47 C22        2.4510    8.2675   12.6026 C.3       1 RES1    0.0000
     48 H19        3.3476    7.9674   12.4365 H         1 RES1    0.0000
     49 H20        2.4195    8.7353   13.4399 H         1 RES1    0.0000
     50 H21        2.1759    8.8568   11.8963 H         1 RES1    0.0000
     51 O5         4.0106    3.2832   10.2899 Du        2 SUP2    0.0000
     52 N4         2.8354    3.1797   12.1548 Du        2 SUP2    0.0000
     53 H22        1.9080    3.3931   12.6286 Du        2 SUP2    0.0000
@<TRIPOS>BOND
     1    1    9 1
     2    2   17 1
     3    3   28 2
     4    4    5 1
     5    6   38 1
     6    7    8 1
     7    9   11 2
     8   10    1 1
     9   11   12 1
    10   12   10 2
    11   13   12 1
    12   14   13 1
    13   15   13 1
    14   16   15 1
    15   17    7 1
    16   18   13 1
    17   19   18 ar
    18   20   19 1
    19   21   19 ar
    20   22   21 1
    21   23   21 ar
    22   24   23 1
    23   25   23 ar
    24   26   25 1
    25   27    2 1
    26   28    4 1
    27   29    4 1
    28   30   29 ar
    29   31   30 1
    30   32   30 ar
    31   33   32 1
    32   34   32 ar
    33   35   34 1
    34   36   34 ar
    35   37   36 1
    36   38   29 ar
    37   39    6 1
    38   40   39 1
    39   41   39 1
    40   42   39 1
    41   43   17 1
    42   44   43 1
    43   45   43 1
    44   46   43 1
    45   47   11 1
    46   48   47 1
    47   49   47 1
    48   50   47 1
    49    7   10 1
    50   15   17 1
    51   15   28 1
    52   18   27 ar
    53   25   27 ar
    54   36   38 ar
@<TRIPOS>SUBSTRUCTURE
     1 RES1 1
     2 SUP2 51

@<TRIPOS>CRYSIN
  12.3582    8.9291   18.5899  90.0000 105.0940  90.0000 231 1

