# MOL2 file generated by ConQuest
# Please check atom types

@<TRIPOS>MOLECULE
YOVKIE
    35    37     1
SMALL
NO_CHARGES
****
Generated from CSD

@<TRIPOS>ATOM
      1 O1        -3.1706    8.3596    6.6674 O.3       1 RES1    0.0000
      2 O2        -0.6352    6.1492    4.4240 O.3       1 RES1    0.0000
      3 N1        -0.6413    7.9861    8.4462 N.3       1 RES1    0.0000
      4 N2        -1.5008    7.6666   10.4806 N.2       1 RES1    0.0000
      5 N3        -0.0961    6.9944    5.3881 N.2       1 RES1    0.0000
      6 C1        -1.5783    8.3247    9.3592 C.2       1 RES1    0.0000
      7 H1        -2.2247    8.9742    9.1997 H         1 RES1    0.0000
      8 C2        -0.4214    6.8175   10.2997 C.ar      1 RES1    0.0000
      9 C3         0.1413    5.8897   11.1658 C.ar      1 RES1    0.0000
     10 H2        -0.2223    5.7436   12.0094 H         1 RES1    0.0000
     11 C4         1.2375    5.2004   10.7487 C.ar      1 RES1    0.0000
     12 H3         1.6247    4.5744   11.3159 H         1 RES1    0.0000
     13 C5         1.7897    5.4156    9.4900 C.ar      1 RES1    0.0000
     14 H4         2.5504    4.9412    9.2431 H         1 RES1    0.0000
     15 C6         1.2419    6.3135    8.5980 C.ar      1 RES1    0.0000
     16 H5         1.6004    6.4454    7.7500 H         1 RES1    0.0000
     17 C7         0.1289    7.0065    9.0361 C.ar      1 RES1    0.0000
     18 C8        -0.4733    8.5358    7.1074 C.3       1 RES1    0.0000
     19 H6         0.4692    8.6956    6.9446 H         1 RES1    0.0000
     20 H7        -0.9335    9.3886    7.0536 H         1 RES1    0.0000
     21 C9        -1.0086    7.6181    6.0440 C.2       1 RES1    0.0000
     22 C10       -2.4397    7.5243    5.8603 C.2       1 RES1    0.0000
     23 C11       -3.2862    6.8129    5.0861 C.2       1 RES1    0.0000
     24 H8        -3.0519    6.1738    4.4523 H         1 RES1    0.0000
     25 C12       -4.5940    7.2234    5.4216 C.2       1 RES1    0.0000
     26 H9        -5.3868    6.9092    5.0513 H         1 RES1    0.0000
     27 C13       -4.4720    8.1459    6.3678 C.2       1 RES1    0.0000
     28 H10       -5.1856    8.5862    6.7710 H         1 RES1    0.0000
     29 C14        0.4452    5.5441    3.6942 C.3       1 RES1    0.0000
     30 H11        1.0172    5.0488    4.3018 H         1 RES1    0.0000
     31 H12        0.9791    6.2320    3.2659 H         1 RES1    0.0000
     32 C15       -0.0980    4.6539    2.6988 C.3       1 RES1    0.0000
     33 H13        0.6190    4.2005    2.2483 H         1 RES1    0.0000
     34 H14       -0.6068    5.1599    2.0602 H         1 RES1    0.0000
     35 H15       -0.6684    4.0083    3.1232 H         1 RES1    0.0000
@<TRIPOS>BOND
     1    1   22 1
     2    2    5 1
     3    3    6 1
     4    4    6 2
     5    5   21 2
     6    6    7 1
     7    8    4 1
     8    9    8 ar
     9   10    9 1
    10   11    9 ar
    11   12   11 1
    12   13   11 ar
    13   14   13 1
    14   15   13 ar
    15   16   15 1
    16   17    3 1
    17   18    3 1
    18   19   18 1
    19   20   18 1
    20   21   18 1
    21   22   21 1
    22   23   22 2
    23   24   23 1
    24   25   23 1
    25   26   25 1
    26   27    1 1
    27   28   27 1
    28   29    2 1
    29   30   29 1
    30   31   29 1
    31   32   29 1
    32   33   32 1
    33   34   32 1
    34   35   32 1
    35    8   17 ar
    36   15   17 ar
    37   25   27 2
@<TRIPOS>SUBSTRUCTURE
     1 RES1 1

@<TRIPOS>CRYSIN
   8.4448   17.6345   10.3147  90.0000 110.7550  90.0000  14 1

