# MOL2 file generated by ConQuest
# Please check atom types

@<TRIPOS>MOLECULE
YOVLOL
    40    38     3
SMALL
NO_CHARGES
****
Generated from CSD

@<TRIPOS>ATOM
      1 O1         4.2783    1.1268    4.4134 O.3       1 RES1    0.0000
      2 O2         3.5339    2.3718    2.2645 O.2       1 RES1    0.0000
      3 O3         3.2248    1.1784    0.4964 O.2       1 RES1    0.0000
      4 O4         4.7303   -0.2516    6.4446 O.2       1 RES1    0.0000
      5 N1         3.3539    1.2978    1.7523 N.pl3     1 RES1    0.0000
      6 N2         3.9265   -2.3190    6.6783 N.am      1 RES1    0.0000
      7 C1         3.6130   -1.1727    4.5644 C.ar      1 RES1    0.0000
      8 C2         3.7404    0.0421    3.8619 C.ar      1 RES1    0.0000
      9 C3         3.2688    0.0722    2.5440 C.ar      1 RES1    0.0000
     10 C4         2.7149   -1.0437    1.9416 C.ar      1 RES1    0.0000
     11 C5         2.6259   -2.2206    2.6244 C.ar      1 RES1    0.0000
     12 C6         3.0695   -2.2788    3.9225 C.ar      1 RES1    0.0000
     13 C7         4.1151   -1.2335    5.9609 C.2       1 RES1    0.0000
     14 O5         2.8906    7.7650    3.6378 O.3       2 RES2    0.0000
     15 O6         4.2625    8.0729    5.8666 O.2       2 RES2    0.0000
     16 O7         3.3269    7.1114    7.5159 O.2       2 RES2    0.0000
     17 O8         1.8251    7.0384    1.4967 O.2       2 RES2    0.0000
     18 N3         3.5536    7.2104    6.3268 N.pl3     2 RES2    0.0000
     19 N4         1.0716    4.9749    1.1694 N.am      2 RES2    0.0000
     20 C8         2.0510    5.5427    3.3198 C.ar      2 RES2    0.0000
     21 C9         2.6561    6.5416    4.1063 C.ar      2 RES2    0.0000
     22 C10        2.9688    6.2141    5.4360 C.ar      2 RES2    0.0000
     23 C11        2.7225    4.9618    5.9533 C.ar      2 RES2    0.0000
     24 C12        2.1721    3.9933    5.1700 C.ar      2 RES2    0.0000
     25 C13        1.8315    4.2810    3.8709 C.ar      2 RES2    0.0000
     26 C14        1.6376    5.8811    1.9324 C.2       2 RES2    0.0000
     27 H1         3.4292   -3.0237    6.3884 H         1 RES1    0.0000
     28 H2         4.5457    0.9462    5.1671 H         1 RES1    0.0000
     29 H3         2.2170   -3.0425    2.2282 H         1 RES1    0.0000
     30 H4         3.0057   -3.0595    4.3997 H         1 RES1    0.0000
     31 H5         2.4435   -1.0138    1.0621 H         1 RES1    0.0000
     32 H6         4.2593   -2.3836    7.4789 H         1 RES1    0.0000
     33 H7         2.6338    7.8141    2.8606 H         2 RES2    0.0000
     34 H8         0.9024    4.2429    1.4356 H         2 RES2    0.0000
     35 H9         0.8034    5.2367    0.3136 H         2 RES2    0.0000
     36 H10        2.9091    4.7754    6.8139 H         2 RES2    0.0000
     37 H11        1.9992    3.1805    5.4870 H         2 RES2    0.0000
     38 H12        1.4021    3.6521    3.3675 H         2 RES2    0.0000
     39 O9         2.4009    1.6023    1.0653 Du        3 SUP3    0.0000
     40 O10        4.3659    1.9689    1.8689 Du        3 SUP3    0.0000
@<TRIPOS>BOND
     1    1    8 1
     2    2    5 2
     3    3    5 2
     4    4   13 2
     5    5    9 1
     6    6   13 1
     7    7    8 ar
     8    8    9 ar
     9    9   10 ar
    10   10   11 ar
    11   11   12 ar
    12   12    7 ar
    13   13    7 1
    14   14   21 1
    15   15   18 2
    16   16   18 2
    17   17   26 2
    18   18   22 1
    19   19   26 1
    20   20   21 ar
    21   21   22 ar
    22   22   23 ar
    23   23   24 ar
    24   24   25 ar
    25   25   20 ar
    26   26   20 1
    27   27    6 1
    28   28    1 1
    29   29   11 1
    30   30   12 1
    31   31   10 1
    32   32    6 1
    33   33   14 1
    34   34   19 1
    35   35   19 1
    36   36   23 1
    37   37   24 1
    38   38   25 1
@<TRIPOS>SUBSTRUCTURE
     1 RES1 1
     2 RES2 14
     3 SUP3 39

@<TRIPOS>CRYSIN
   3.8390   13.0347   16.0409  98.2070  95.6580  98.3650   2 1

