# MOL2 file generated by ConQuest
# Please check atom types

@<TRIPOS>MOLECULE
YOWCIW
    16    17     1
SMALL
NO_CHARGES
****
Generated from CSD

@<TRIPOS>ATOM
      1 C1        -0.0657    2.4242   -3.5269 C.3       1 RES1    0.0000
      2 O1        -1.0827    2.6375   -4.5723 O.3       1 RES1    0.0000
      3 C2        -1.3941    3.9209   -4.7123 C.2       1 RES1    0.0000
      4 C3        -0.5277    4.7655   -3.7942 C.3       1 RES1    0.0000
      5 C4        -0.0057    3.7722   -2.7725 C.3       1 RES1    0.0000
      6 C5        -0.9311    3.5321   -1.6144 C.2       1 RES1    0.0000
      7 C6        -1.2452    2.2426   -1.4889 C.2       1 RES1    0.0000
      8 C7        -0.5759    1.3882   -2.5525 C.3       1 RES1    0.0000
      9 O2        -2.2382    4.3219   -5.4595 O.2       1 RES1    0.0000
     10 C8        -1.2542    5.9807   -3.3178 C.2       1 RES1    0.0000
     11 N1        -0.8333    6.8484   -2.4925 N.2       1 RES1    0.0000
     12 O3         0.4549    6.5340   -2.0652 O.3       1 RES1    0.0000
     13 C9         0.8881    7.5371   -1.1490 C.3       1 RES1    0.0000
     14 C10        0.2707    7.3676    0.2145 C.2       1 RES1    0.0000
     15 O4        -0.5759    6.5827    0.4981 O.co2     1 RES1    0.0000
     16 O5         0.8087    8.2452    1.0526 O.co2     1 RES1    0.0000
@<TRIPOS>BOND
     1    1    2 1
     2    2    3 1
     3    3    4 1
     4    4    5 1
     5    5    1 1
     6    6    5 1
     7    7    6 2
     8    8    1 1
     9    9    3 2
    10   10    4 1
    11   11   10 2
    12   12   11 1
    13   13   12 1
    14   14   13 1
    15   15   14 2
    16   16   14 1
    17    7    8 1
@<TRIPOS>SUBSTRUCTURE
     1 RES1 1

@<TRIPOS>CRYSIN
   4.7240   12.1880   18.1800  90.0000  90.0000  90.0000  19 1

