# MOL2 file generated by ConQuest
# Please check atom types

@<TRIPOS>MOLECULE
YOWFEX
    68    72     1
SMALL
NO_CHARGES
****
Generated from CSD

@<TRIPOS>ATOM
      1 O1         8.6994    5.3512    3.1763 O.3       1 RES1    0.0000
      2 N1         8.1486    4.1038    3.6103 N.3       1 RES1    0.0000
      3 C1         7.2976    4.3687    4.7803 C.3       1 RES1    0.0000
      4 H1         7.9263    4.5894    5.4977 H         1 RES1    0.0000
      5 C2         6.6732    3.0600    5.2117 C.ar      1 RES1    0.0000
      6 C3         6.5115    1.9981    4.2579 C.ar      1 RES1    0.0000
      7 C4         6.8201    2.1824    2.8766 C.ar      1 RES1    0.0000
      8 C5         7.4909    3.4839    2.4484 C.3       1 RES1    0.0000
      9 H2         6.7911    4.0950    2.1366 H         1 RES1    0.0000
     10 C6         6.2939    2.8930    6.5250 C.ar      1 RES1    0.0000
     11 C7         5.7703    1.6494    6.9290 C.ar      1 RES1    0.0000
     12 H3         5.5449    1.5226    7.8231 H         1 RES1    0.0000
     13 C8         5.5856    0.6332    6.0558 C.ar      1 RES1    0.0000
     14 H4         5.2311   -0.1748    6.3529 H         1 RES1    0.0000
     15 C9         5.9270    0.7924    4.6980 C.ar      1 RES1    0.0000
     16 C10        5.6545   -0.2087    3.7359 C.ar      1 RES1    0.0000
     17 H5         5.3134   -1.0284    4.0122 H         1 RES1    0.0000
     18 C11        5.8814    0.0071    2.4309 C.ar      1 RES1    0.0000
     19 H6         5.6528   -0.6552    1.8201 H         1 RES1    0.0000
     20 C12        6.4582    1.2101    1.9547 C.ar      1 RES1    0.0000
     21 C13        6.4192    3.9984    7.5454 C.3       1 RES1    0.0000
     22 H7         6.0998    3.6876    8.3964 H         1 RES1    0.0000
     23 H8         5.8969    4.7542    7.2650 H         1 RES1    0.0000
     24 H9         7.3396    4.2574    7.6259 H         1 RES1    0.0000
     25 C14        6.5764    1.3738    0.4623 C.3       1 RES1    0.0000
     26 H10        6.2700    0.5744    0.0264 H         1 RES1    0.0000
     27 H11        7.4947    1.5332    0.2305 H         1 RES1    0.0000
     28 H12        6.0409    2.1181    0.1791 H         1 RES1    0.0000
     29 C15        6.3836    5.6072    4.6680 C.ar      1 RES1    0.0000
     30 C16        5.0826    5.5797    4.1095 C.ar      1 RES1    0.0000
     31 C17        4.3907    6.7763    3.9844 C.ar      1 RES1    0.0000
     32 H13        3.5427    6.7518    3.6040 H         1 RES1    0.0000
     33 C18        4.8773    7.9919    4.3856 C.ar      1 RES1    0.0000
     34 C19        6.1180    7.9961    4.9909 C.ar      1 RES1    0.0000
     35 H14        6.4569    8.8007    5.3116 H         1 RES1    0.0000
     36 C20        6.8860    6.8321    5.1395 C.ar      1 RES1    0.0000
     37 C21        8.5364    3.3607    1.3421 C.ar      1 RES1    0.0000
     38 C22        9.6433    2.4958    1.4687 C.ar      1 RES1    0.0000
     39 C23       10.5758    2.4534    0.4526 C.ar      1 RES1    0.0000
     40 H15       11.3082    1.8871    0.5456 H         1 RES1    0.0000
     41 C24       10.4701    3.2119   -0.6914 C.ar      1 RES1    0.0000
     42 C25        9.3882    4.0513   -0.7955 C.ar      1 RES1    0.0000
     43 H16        9.2989    4.5751   -1.5591 H         1 RES1    0.0000
     44 C26        8.4223    4.1455    0.1958 C.ar      1 RES1    0.0000
     45 C27        4.3598    4.3510    3.6443 C.3       1 RES1    0.0000
     46 H17        4.9233    3.5831    3.7651 H         1 RES1    0.0000
     47 H18        4.1393    4.4422    2.7141 H         1 RES1    0.0000
     48 H19        3.5537    4.2396    4.1538 H         1 RES1    0.0000
     49 C28        4.0842    9.2694    4.1538 C.3       1 RES1    0.0000
     50 H20        3.2485    9.0547    3.7331 H         1 RES1    0.0000
     51 H21        4.5866    9.8586    3.5860 H         1 RES1    0.0000
     52 H22        3.9178    9.7000    4.9951 H         1 RES1    0.0000
     53 C29        8.2411    6.9866    5.7961 C.3       1 RES1    0.0000
     54 H23        8.3729    7.9042    6.0460 H         1 RES1    0.0000
     55 H24        8.9275    6.7211    5.1811 H         1 RES1    0.0000
     56 H25        8.2819    6.4344    6.5805 H         1 RES1    0.0000
     57 C30        9.8349    1.5883    2.6711 C.3       1 RES1    0.0000
     58 H26       10.6412    1.0792    2.5614 H         1 RES1    0.0000
     59 H27        9.0868    0.9915    2.7433 H         1 RES1    0.0000
     60 H28        9.8976    2.1214    3.4666 H         1 RES1    0.0000
     61 C31       11.5108    3.1466   -1.7937 C.3       1 RES1    0.0000
     62 H29       12.1992    2.5240   -1.5480 H         1 RES1    0.0000
     63 H30       11.8971    4.0170   -1.9214 H         1 RES1    0.0000
     64 H31       11.0956    2.8591   -2.6086 H         1 RES1    0.0000
     65 C32        7.2731    5.1123   -0.0389 C.3       1 RES1    0.0000
     66 H32        7.3893    5.5482   -0.8857 H         1 RES1    0.0000
     67 H33        7.2611    5.7712    0.6608 H         1 RES1    0.0000
     68 H34        6.4431    4.6308   -0.0375 H         1 RES1    0.0000
@<TRIPOS>BOND
     1    1    2 1
     2    2    3 1
     3    3    4 1
     4    5    3 1
     5    6    5 ar
     6    7    6 ar
     7    8    2 1
     8    9    8 1
     9   10    5 ar
    10   11   10 ar
    11   12   11 1
    12   13   11 ar
    13   14   13 1
    14   15    6 ar
    15   16   15 ar
    16   17   16 1
    17   18   16 ar
    18   19   18 1
    19   20    7 ar
    20   21   10 1
    21   22   21 1
    22   23   21 1
    23   24   21 1
    24   25   20 1
    25   26   25 1
    26   27   25 1
    27   28   25 1
    28   29    3 1
    29   30   29 ar
    30   31   30 ar
    31   32   31 1
    32   33   31 ar
    33   34   33 ar
    34   35   34 1
    35   36   29 ar
    36   37    8 1
    37   38   37 ar
    38   39   38 ar
    39   40   39 1
    40   41   39 ar
    41   42   41 ar
    42   43   42 1
    43   44   37 ar
    44   45   30 1
    45   46   45 1
    46   47   45 1
    47   48   45 1
    48   49   33 1
    49   50   49 1
    50   51   49 1
    51   52   49 1
    52   53   36 1
    53   54   53 1
    54   55   53 1
    55   56   53 1
    56   57   38 1
    57   58   57 1
    58   59   57 1
    59   60   57 1
    60   61   41 1
    61   62   61 1
    62   63   61 1
    63   64   61 1
    64   65   44 1
    65   66   65 1
    66   67   65 1
    67   68   65 1
    68    7    8 1
    69   13   15 ar
    70   18   20 ar
    71   34   36 ar
    72   42   44 ar
@<TRIPOS>SUBSTRUCTURE
     1 RES1 1

@<TRIPOS>CRYSIN
   7.7360   12.2850   14.6430  71.8200  88.3100  73.5500   2 1

