# MOL2 file generated by ConQuest
# Please check atom types

@<TRIPOS>MOLECULE
YOWLUS
    28    28     1
SMALL
USER_CHARGES
****
Generated from CSD

@<TRIPOS>ATOM
      1 O1        -1.3623    3.6472    1.3472 O.3       1 RES1    0.0000
      2 N1         0.6425    3.5911    0.2860 N.ar      1 RES1    0.0000
      3 N2         1.8259    1.5683    0.4582 N.pl3     1 RES1    1.0000
      4 O2         2.8252   -0.8596    0.6689 O.2       1 RES1    0.0000
      5 N3         2.6595    3.3189   -0.7893 N.3       1 RES1    0.0000
      6 O3         1.8537   -2.3288    1.9579 O.2       1 RES1    0.0000
      7 N4        -0.0163   -0.6681    2.7721 N.pl3     1 RES1    0.0000
      8 C1         0.8599    1.0676    1.2687 C.ar      1 RES1    0.0000
      9 N5        -0.2080    1.7715    1.5982 N.ar      1 RES1    0.0000
     10 O4         0.1802   -0.3361    3.9091 O.2       1 RES1    0.0000
     11 C2         0.9672   -0.2507    1.7759 C.2       1 RES1   -1.0000
     12 C3        -0.2525    2.9983    1.0532 C.ar      1 RES1    0.0000
     13 C4         1.7053    2.8454   -0.0225 C.ar      1 RES1    0.0000
     14 N6         1.8976   -1.1782    1.4702 N.pl3     1 RES1    0.0000
     15 C5         2.6048    4.6636   -1.3920 C.3       1 RES1    0.0000
     16 C6         1.5919    4.7785   -2.5007 C.3       1 RES1    0.0000
     17 O5        -0.9824   -1.2702    2.4249 O.2       1 RES1    0.0000
     18 C7        -1.5383    4.9719    0.7856 C.3       1 RES1    0.0000
     19 H1         2.3477    5.2938   -0.6560 H         1 RES1    0.0000
     20 H2         3.5588    4.7684   -1.8622 H         1 RES1    0.0000
     21 H3         2.5790    1.0748    0.2847 H         1 RES1    0.0000
     22 H4         3.4257    2.7073   -1.0084 H         1 RES1    0.0000
     23 H5        -2.3656    5.2373    1.1576 H         1 RES1    0.0000
     24 H6         0.5898    4.6113   -2.1766 H         1 RES1    0.0000
     25 H7         1.8074    4.1258   -3.1911 H         1 RES1    0.0000
     26 H8        -1.4922    4.8777   -0.1707 H         1 RES1    0.0000
     27 H9        -0.8161    5.4986    1.0412 H         1 RES1    0.0000
     28 H10        1.6744    5.7762   -2.8431 H         1 RES1    0.0000
@<TRIPOS>BOND
     1    1   12 1
     2    2   12 ar
     3    3    8 ar
     4    4   14 2
     5    5   13 1
     6    6   14 2
     7    7   10 2
     8    8    9 ar
     9    9   12 ar
    10   11    7 1
    11   13    2 ar
    12   14   11 1
    13   15    5 1
    14   16   15 1
    15   17    7 2
    16   18    1 1
    17   19   15 1
    18   20   15 1
    19   21    3 1
    20   22    5 1
    21   23   18 1
    22   24   16 1
    23   25   16 1
    24   26   18 1
    25   27   18 1
    26   28   16 1
    27    3   13 ar
    28    8   11 1
@<TRIPOS>SUBSTRUCTURE
     1 RES1 1

@<TRIPOS>CRYSIN
   7.3060   13.2670   11.7800  90.0000 104.3600  90.0000 231 1

