# MOL2 file generated by ConQuest
# Please check atom types

@<TRIPOS>MOLECULE
YOWXIS
    33    34     1
SMALL
NO_CHARGES
****
Generated from CSD

@<TRIPOS>ATOM
      1 N1         3.2134   -0.2617   11.6566 N.pl3     1 RES1    0.0000
      2 O1         3.6328   -0.7511   12.7451 O.2       1 RES1    0.0000
      3 C1         3.0995   -1.0815   10.4134 C.3       1 RES1    0.0000
      4 N2         2.4439    1.1859   10.2273 N.pl3     1 RES1    0.0000
      5 O2         1.9628    2.2684    9.7563 O.2       1 RES1    0.0000
      6 C2         2.0405   -2.1466   10.6762 C.3       1 RES1    0.0000
      7 H1         2.3683   -2.7699   11.3302 H         1 RES1    0.0000
      8 H2         1.8467   -2.6137    9.8591 H         1 RES1    0.0000
      9 H3         1.2400   -1.7301   11.0024 H         1 RES1    0.0000
     10 N3         1.3656    2.3275   12.8879 N.pl3     1 RES1    0.0000
     11 O3         0.3559    1.8116   12.2930 O.2       1 RES1    0.0000
     12 C3         4.4162   -1.7494   10.1376 C.3       1 RES1    0.0000
     13 H4         4.6035   -2.3861   10.8301 H         1 RES1    0.0000
     14 H5         5.1112   -1.0874   10.1145 H         1 RES1    0.0000
     15 H6         4.3747   -2.1987    9.2897 H         1 RES1    0.0000
     16 N4         3.5583    3.3650   14.2511 N.ar      1 RES1    0.0000
     17 C4         2.6589   -0.0179    9.3645 C.3       1 RES1    0.0000
     18 C5         3.7371    0.3377    8.3572 C.3       1 RES1    0.0000
     19 H7         3.3997    0.9952    7.7448 H         1 RES1    0.0000
     20 H8         3.9926   -0.4493    7.8710 H         1 RES1    0.0000
     21 H9         4.5013    0.6902    8.8173 H         1 RES1    0.0000
     22 C6         1.3656   -0.2945    8.6404 C.3       1 RES1    0.0000
     23 H10        1.1868    0.4180    8.0218 H         1 RES1    0.0000
     24 H11        0.6493   -0.3526    9.2759 H         1 RES1    0.0000
     25 H12        1.4369   -1.1231    8.1618 H         1 RES1    0.0000
     26 C7         2.7674    0.9814   11.4901 C.2       1 RES1    0.0000
     27 C8         2.6355    1.9691   12.5558 C.ar      1 RES1    0.0000
     28 C9         1.2070    3.2311   13.8877 C.ar      1 RES1    0.0000
     29 H13        0.3566    3.5137   14.1339 H         1 RES1    0.0000
     30 C10        2.3044    3.7175   14.5287 C.ar      1 RES1    0.0000
     31 H14        2.1692    4.3393   15.2080 H         1 RES1    0.0000
     32 C11        3.6881    2.5027   13.2574 C.ar      1 RES1    0.0000
     33 H15        4.5471    2.2403   13.0182 H         1 RES1    0.0000
@<TRIPOS>BOND
     1    1    2 1
     2    3    1 1
     3    4    5 1
     4    6    3 1
     5    7    6 1
     6    8    6 1
     7    9    6 1
     8   10   11 1
     9   12    3 1
    10   13   12 1
    11   14   12 1
    12   15   12 1
    13   16   30 ar
    14   17    3 1
    15   18   17 1
    16   19   18 1
    17   20   18 1
    18   21   18 1
    19   22   17 1
    20   23   22 1
    21   24   22 1
    22   25   22 1
    23   26    1 1
    24   27   10 ar
    25   28   10 ar
    26   29   28 1
    27   30   28 ar
    28   31   30 1
    29   32   16 ar
    30   33   32 1
    31    4   17 1
    32    4   26 2
    33   26   27 1
    34   27   32 ar
@<TRIPOS>SUBSTRUCTURE
     1 RES1 1

@<TRIPOS>CRYSIN
  10.6440   14.8760   15.3880  90.0000  90.0000  90.0000  61 1

