# MOL2 file generated by ConQuest
# Please check atom types

@<TRIPOS>MOLECULE
YOWXAK01
    34    35     1
SMALL
NO_CHARGES
****
Generated from CSD

@<TRIPOS>ATOM
      1 N1        -2.3014    1.8205    2.0442 N.pl3     1 RES1    0.0000
      2 O1        -2.4448    0.5477    2.0249 O.2       1 RES1    0.0000
      3 C1        -2.6488    2.6759    0.8558 C.3       1 RES1    0.0000
      4 N2        -1.7535    3.8246    2.7425 N.pl3     1 RES1    0.0000
      5 O2        -1.3361    4.7534    3.5073 O.2       1 RES1    0.0000
      6 C2        -1.6964    2.2627   -0.2580 C.3       1 RES1    0.0000
      7 H1        -1.8434    1.2770   -0.4914 H         1 RES1    0.0000
      8 H2        -0.6900    2.4343    0.1228 H         1 RES1    0.0000
      9 H3        -1.8877    2.7735   -0.9725 H         1 RES1    0.0000
     10 N3        -0.1745    1.9123    4.7492 N.pl3     1 RES1    0.0000
     11 O3         0.7657    2.2457    3.9285 O.2       1 RES1    0.0000
     12 C3        -4.0740    2.3644    0.4689 C.3       1 RES1    0.0000
     13 H4        -4.0874    1.4765    0.1228 H         1 RES1    0.0000
     14 H5        -4.3930    2.9131   -0.2252 H         1 RES1    0.0000
     15 H6        -4.7774    2.4742    1.1159 H         1 RES1    0.0000
     16 C4        -2.4142    4.1249    1.4219 C.3       1 RES1    0.0000
     17 C5        -1.4753    4.9942    0.6112 C.3       1 RES1    0.0000
     18 H7        -1.2362    5.7864    1.1363 H         1 RES1    0.0000
     19 H8        -1.9246    5.2277   -0.2150 H         1 RES1    0.0000
     20 H9        -0.6446    4.5293    0.4914 H         1 RES1    0.0000
     21 C6        -3.6946    4.8745    1.7567 C.3       1 RES1    0.0000
     22 H10       -3.4175    5.7465    2.2419 H         1 RES1    0.0000
     23 H11       -4.2704    4.2899    2.3443 H         1 RES1    0.0000
     24 H12       -4.0777    5.1579    0.9418 H         1 RES1    0.0000
     25 C7        -1.7857    2.5308    3.0517 C.2       1 RES1    0.0000
     26 C8        -1.4830    1.9921    4.3836 C.ar      1 RES1    0.0000
     27 C9         0.1168    1.4372    6.0021 C.ar      1 RES1    0.0000
     28 H13        1.0730    1.3847    6.1935 H         1 RES1    0.0000
     29 C10       -0.8606    1.0176    6.8517 C.ar      1 RES1    0.0000
     30 H14       -0.5927    0.7023    7.7188 H         1 RES1    0.0000
     31 C11       -2.1787    1.0707    6.4873 C.ar      1 RES1    0.0000
     32 H15       -2.9176    0.7662    6.9613 H         1 RES1    0.0000
     33 C12       -2.4807    1.5723    5.2230 C.ar      1 RES1    0.0000
     34 H16       -3.4007    1.6880    4.8831 H         1 RES1    0.0000
@<TRIPOS>BOND
     1    1    2 1
     2    3    1 1
     3    4    5 1
     4    6    3 1
     5    7    6 1
     6    8    6 1
     7    9    6 1
     8   10   11 1
     9   12    3 1
    10   13   12 1
    11   14   12 1
    12   15   12 1
    13   16    3 1
    14   17   16 1
    15   18   17 1
    16   19   17 1
    17   20   17 1
    18   21   16 1
    19   22   21 1
    20   23   21 1
    21   24   21 1
    22   25    1 1
    23   26   10 ar
    24   27   10 ar
    25   28   27 1
    26   29   27 ar
    27   30   29 1
    28   31   29 ar
    29   32   31 1
    30   33   26 ar
    31   34   33 1
    32    4   16 1
    33    4   25 2
    34   25   26 1
    35   31   33 ar
@<TRIPOS>SUBSTRUCTURE
     1 RES1 1

@<TRIPOS>CRYSIN
   6.3148   19.9530   10.2590  90.0000  93.7380  90.0000 231 1

