# MOL2 file generated by ConQuest
# Please check atom types

@<TRIPOS>MOLECULE
YOWYEP
    78    82     2
SMALL
NO_CHARGES
****
Generated from CSD

@<TRIPOS>ATOM
      1 O1         6.2765    5.7067    1.1195 O.2       1 RES1    0.0000
      2 N1         6.0445    4.4656    1.1126 N.pl3     1 RES1    0.0000
      3 C1         6.6702    3.5081    2.0880 C.3       1 RES1    0.0000
      4 O2         4.5593    1.6461   -0.1179 O.2       1 RES1    0.0000
      5 N2         5.2551    2.5199    0.4948 N.pl3     1 RES1    0.0000
      6 C2         5.9056    3.6692    3.3845 C.3       1 RES1    0.0000
      7 H1         5.9566    4.5591    3.6656 H         1 RES1    0.0000
      8 H2         6.1541    3.0405    4.0672 H         1 RES1    0.0000
      9 H3         4.8877    3.4964    3.3029 H         1 RES1    0.0000
     10 O3         3.4677    5.8974    0.7561 O.2       1 RES1    0.0000
     11 C3         8.1216    3.8578    2.2706 C.3       1 RES1    0.0000
     12 H4         8.1145    4.7305    2.7201 H         1 RES1    0.0000
     13 H5         8.5427    3.9490    1.3989 H         1 RES1    0.0000
     14 H6         8.6604    3.1091    2.8107 H         1 RES1    0.0000
     15 C4         6.4077    2.1603    1.3782 C.3       1 RES1    0.0000
     16 C5         7.5276    1.7349    0.4274 C.3       1 RES1    0.0000
     17 H7         7.1867    0.8673   -0.1036 H         1 RES1    0.0000
     18 H8         8.3954    1.4294    0.9326 H         1 RES1    0.0000
     19 H9         7.7528    2.5916   -0.1943 H         1 RES1    0.0000
     20 C6         6.0435    1.0112    2.2900 C.3       1 RES1    0.0000
     21 H10        5.9354    0.0959    1.6839 H         1 RES1    0.0000
     22 H11        5.2685    1.3368    2.8755 H         1 RES1    0.0000
     23 H12        6.6390    0.9289    2.9273 H         1 RES1    0.0000
     24 C7         5.1865    3.8339    0.3070 C.2       1 RES1    0.0000
     25 C8         4.4201    4.4671   -0.7396 C.ar      1 RES1    0.0000
     26 C9         4.4852    4.0215   -2.0698 C.ar      1 RES1    0.0000
     27 H13        4.9367    3.3561   -2.2020 H         1 RES1    0.0000
     28 N3         3.9372    4.6211   -3.0879 N.ar      1 RES1    0.0000
     29 C10        3.2713    5.7798   -2.7978 C.ar      1 RES1    0.0000
     30 C11        2.6777    6.5007   -3.8431 C.ar      1 RES1    0.0000
     31 H14        2.8065    6.1569   -4.7536 H         1 RES1    0.0000
     32 C12        2.0140    7.6491   -3.5918 C.ar      1 RES1    0.0000
     33 H15        1.6018    8.1212   -4.2485 H         1 RES1    0.0000
     34 C13        1.8691    8.1012   -2.2874 C.ar      1 RES1    0.0000
     35 H16        1.4468    8.8170   -2.2020 H         1 RES1    0.0000
     36 C14        2.3894    7.4179   -1.2396 C.ar      1 RES1    0.0000
     37 H17        2.3168    7.6274   -0.4015 H         1 RES1    0.0000
     38 C15        3.1039    6.2617   -1.5012 C.ar      1 RES1    0.0000
     39 N4         3.6657    5.5335   -0.4482 N.pl3     1 RES1    0.0000
     40 O4        10.1747    1.0949    2.7348 O.2       2 RES2    0.0000
     41 O5        10.7515   -1.6585    6.3476 O.2       2 RES2    0.0000
     42 O6         8.4147    1.7992    4.8872 O.2       2 RES2    0.0000
     43 N5        10.6376   -1.2826    5.1370 N.pl3     2 RES2    0.0000
     44 N6        10.3322    0.0352    3.4092 N.pl3     2 RES2    0.0000
     45 C16       10.9235   -2.1585    3.9726 C.3       2 RES2    0.0000
     46 C17       12.4418   -2.2973    3.9182 C.3       2 RES2    0.0000
     47 H18       12.7723   -2.8180    4.6241 H         2 RES2    0.0000
     48 H19       12.9258   -1.1417    3.8858 H         2 RES2    0.0000
     49 H20       12.6969   -2.9448    3.1734 H         2 RES2    0.0000
     50 C18       10.2966   -3.5307    4.1656 C.3       2 RES2    0.0000
     51 H21       10.7790   -4.0384    4.9479 H         2 RES2    0.0000
     52 H22       10.4472   -4.1309    3.3548 H         2 RES2    0.0000
     53 H23        9.2977   -3.5825    4.2226 H         2 RES2    0.0000
     54 C19       10.3240   -1.3182    2.8107 C.3       2 RES2    0.0000
     55 C20       11.1523   -1.3195    1.5349 C.3       2 RES2    0.0000
     56 H24       10.7051   -0.7851    0.8808 H         2 RES2    0.0000
     57 H25       11.2873   -2.3277    1.2305 H         2 RES2    0.0000
     58 H26       12.0924   -0.9085    1.6968 H         2 RES2    0.0000
     59 C21        8.8732   -1.6486    2.4986 C.3       2 RES2    0.0000
     60 H27        8.5459   -0.9085    1.9688 H         2 RES2    0.0000
     61 H28        8.2931   -1.4468    3.3159 H         2 RES2    0.0000
     62 H29        8.9060   -2.6945    2.0983 H         2 RES2    0.0000
     63 C22       10.4229   -0.0290    4.7407 C.2       2 RES2    0.0000
     64 C23       10.4654    1.1224    5.6215 C.ar      2 RES2    0.0000
     65 C24       11.5473    1.3528    6.4725 C.ar      2 RES2    0.0000
     66 H30       12.2124    0.6887    6.5282 H         2 RES2    0.0000
     67 N7        11.7274    2.4230    7.1823 N.ar      2 RES2    0.0000
     68 C25       10.7629    3.3739    7.0566 C.ar      2 RES2    0.0000
     69 C26        8.6623    4.2117    6.1500 C.ar      2 RES2    0.0000
     70 H31        7.9461    3.9831    5.6474 H         2 RES2    0.0000
     71 C27        8.8411    5.3786    6.8131 C.ar      2 RES2    0.0000
     72 H32        8.2405    6.0296    6.7743 H         2 RES2    0.0000
     73 C28        9.9635    5.5668    7.6136 C.ar      2 RES2    0.0000
     74 H33       10.0554    6.2866    7.9789 H         2 RES2    0.0000
     75 C29       10.9030    4.5929    7.7380 C.ar      2 RES2    0.0000
     76 H34       11.7097    4.6652    8.3027 H         2 RES2    0.0000
     77 C30        9.6277    3.2118    6.2497 C.ar      2 RES2    0.0000
     78 N8         9.4665    2.0206    5.5606 N.pl3     2 RES2    0.0000
@<TRIPOS>BOND
     1    1    2 1
     2    2    3 1
     3    3    6 1
     4    4    5 1
     5    5   15 1
     6    6    7 1
     7    8    6 1
     8    9    6 1
     9   10   39 1
    10   11    3 1
    11   12   11 1
    12   13   11 1
    13   14   11 1
    14   15    3 1
    15   16   15 1
    16   17   16 1
    17   18   16 1
    18   19   16 1
    19   20   15 1
    20   21   20 1
    21   22   20 1
    22   23   20 1
    23   24    2 1
    24   25   24 1
    25   26   25 ar
    26   27   26 1
    27   28   26 ar
    28   29   28 ar
    29   30   29 ar
    30   31   30 1
    31   32   30 ar
    32   33   32 1
    33   34   32 ar
    34   35   34 1
    35   36   34 ar
    36   37   36 1
    37   38   29 ar
    38   39   25 ar
    39   40   44 1
    40   41   43 1
    41   42   78 1
    42   43   45 1
    43   44   54 1
    44   45   46 1
    45   46   47 1
    46   48   46 1
    47   49   46 1
    48   50   45 1
    49   51   50 1
    50   52   50 1
    51   53   50 1
    52   54   45 1
    53   55   54 1
    54   56   55 1
    55   57   55 1
    56   58   55 1
    57   59   54 1
    58   60   59 1
    59   61   59 1
    60   62   59 1
    61   63   43 2
    62   64   63 1
    63   65   64 ar
    64   66   65 1
    65   67   65 ar
    66   68   67 ar
    67   69   70 1
    68   71   69 ar
    69   72   71 1
    70   73   71 ar
    71   74   73 1
    72   75   68 ar
    73   76   75 1
    74   77   68 ar
    75   78   64 ar
    76    5   24 2
    77   36   38 ar
    78   38   39 ar
    79   44   63 1
    80   69   77 ar
    81   73   75 ar
    82   77   78 ar
@<TRIPOS>SUBSTRUCTURE
     1 RES1 1
     2 RES2 40

@<TRIPOS>CRYSIN
  10.8030   11.1280   14.4400  68.7890  68.1060  67.5420   2 1

