# MOL2 file generated by ConQuest
# Please check atom types

@<TRIPOS>MOLECULE
YOWYAL
    78    82     2
SMALL
NO_CHARGES
****
Generated from CSD

@<TRIPOS>ATOM
      1 N1         4.0402    6.1774    9.1600 N.pl3     1 RES1    0.0000
      2 O1         4.1286    5.2735   10.0570 O.2       1 RES1    0.0000
      3 C1         5.1334    6.4447    8.1539 C.3       1 RES1    0.0000
      4 C2         6.2215    7.1918    8.9181 C.3       1 RES1    0.0000
      5 H1         6.5101    6.6046    9.6069 H         1 RES1    0.0000
      6 H2         5.8887    8.0578    9.3314 H         1 RES1    0.0000
      7 H3         6.9058    7.4316    8.3468 H         1 RES1    0.0000
      8 C3         5.6543    5.1383    7.5975 C.3       1 RES1    0.0000
      9 H4         6.1445    4.6669    8.2948 H         1 RES1    0.0000
     10 H5         6.2738    5.2931    6.9150 H         1 RES1    0.0000
     11 H6         4.9231    4.5724    7.2921 H         1 RES1    0.0000
     12 C4         4.3772    7.3336    7.1266 C.3       1 RES1    0.0000
     13 C5         3.6730    6.5561    6.0175 C.3       1 RES1    0.0000
     14 H7         3.1559    7.1481    5.4922 H         1 RES1    0.0000
     15 H8         3.1529    5.7634    6.4001 H         1 RES1    0.0000
     16 H9         4.3375    6.2501    5.3680 H         1 RES1    0.0000
     17 C6         5.1779    8.4737    6.5340 C.3       1 RES1    0.0000
     18 H10        4.5818    8.9794    5.9891 H         1 RES1    0.0000
     19 H11        5.9045    8.1405    6.0478 H         1 RES1    0.0000
     20 H12        5.5723    8.9794    7.1747 H         1 RES1    0.0000
     21 N2         3.2732    7.8756    7.9945 N.pl3     1 RES1    0.0000
     22 O2         2.5216    8.8379    7.6512 O.2       1 RES1    0.0000
     23 C7         3.0709    7.0948    9.0665 C.2       1 RES1    0.0000
     24 C8         1.9062    7.2628    9.9226 C.ar      1 RES1    0.0000
     25 C9         0.5928    6.9707    9.4746 C.ar      1 RES1    0.0000
     26 C10        0.3228    6.3907    8.2226 C.ar      1 RES1    0.0000
     27 H13        1.0133    6.1438    7.6264 H         1 RES1    0.0000
     28 C11       -0.9692    6.1284    7.8705 C.ar      1 RES1    0.0000
     29 H14       -1.1094    5.7657    7.0731 H         1 RES1    0.0000
     30 C12       -2.0368    6.4085    8.7406 C.ar      1 RES1    0.0000
     31 H15       -2.9140    6.1792    8.4710 H         1 RES1    0.0000
     32 C13       -1.7931    6.9638    9.9617 C.ar      1 RES1    0.0000
     33 H16       -2.4921    7.0890   10.5373 H         1 RES1    0.0000
     34 C14       -0.4737    7.2581   10.3406 C.ar      1 RES1    0.0000
     35 C15       -0.1232    7.8085   11.5969 C.ar      1 RES1    0.0000
     36 H17       -0.8819    7.9751   12.1972 H         1 RES1    0.0000
     37 N3         1.0796    8.0844   12.0053 N.ar      1 RES1    0.0000
     38 N4         2.1112    7.8089   11.1331 N.pl3     1 RES1    0.0000
     39 O3         3.2696    8.1208   11.5330 O.2       1 RES1    0.0000
     40 N5         2.1993   13.1897    8.9452 N.pl3     2 RES2    0.0000
     41 O4         1.1012   13.7887    9.1589 O.2       2 RES2    0.0000
     42 C16        2.9791   12.5358   10.0466 C.3       2 RES2    0.0000
     43 C17        3.0616   13.4904   11.2284 C.3       2 RES2    0.0000
     44 H18        2.1655   13.4927   11.6304 H         2 RES2    0.0000
     45 H19        3.3784   14.3907   10.9484 H         2 RES2    0.0000
     46 H20        3.7243   13.1855   11.9578 H         2 RES2    0.0000
     47 C18        2.2227   11.2644   10.4091 C.3       2 RES2    0.0000
     48 H21        1.3850   11.4724   10.6548 H         2 RES2    0.0000
     49 H22        2.7127   10.7635   11.1855 H         2 RES2    0.0000
     50 H23        2.1414   10.6808    9.6814 H         2 RES2    0.0000
     51 C19        4.3334   12.2805    9.3323 C.3       2 RES2    0.0000
     52 C20        5.3154   13.4514    9.4323 C.3       2 RES2    0.0000
     53 H24        6.1138   13.2564    8.7691 H         2 RES2    0.0000
     54 H25        5.6423   13.4927   10.3092 H         2 RES2    0.0000
     55 H26        4.8537   14.2843    9.2388 H         2 RES2    0.0000
     56 C21        5.0275   10.9726    9.6643 C.3       2 RES2    0.0000
     57 H27        5.8501   10.9289    9.1440 H         2 RES2    0.0000
     58 H28        4.4097   10.2082    9.6001 H         2 RES2    0.0000
     59 H29        5.3752   11.0116   10.5644 H         2 RES2    0.0000
     60 N6         3.8926   12.2700    7.8953 N.pl3     2 RES2    0.0000
     61 O5         4.6439   11.8751    6.9518 O.2       2 RES2    0.0000
     62 C22        2.7273   12.9227    7.7479 C.2       2 RES2    0.0000
     63 C23        2.1754   13.3101    6.4541 C.ar      2 RES2    0.0000
     64 C24        1.8240   12.3920    5.4426 C.ar      2 RES2    0.0000
     65 C25        1.8609   11.0045    5.6212 C.ar      2 RES2    0.0000
     66 H30        2.1658   10.6453    6.4385 H         2 RES2    0.0000
     67 C26        1.5017   10.1869    4.6000 C.ar      2 RES2    0.0000
     68 H31        1.4958    9.2630    4.7538 H         2 RES2    0.0000
     69 C27        1.1043   10.7068    3.3498 C.ar      2 RES2    0.0000
     70 H32        0.8334   10.1018    2.6829 H         2 RES2    0.0000
     71 C28        1.0573   12.0312    3.1587 C.ar      2 RES2    0.0000
     72 H33        0.8088   12.4294    2.4119 H         2 RES2    0.0000
     73 C29        1.4060   12.9162    4.2077 C.ar      2 RES2    0.0000
     74 C30        1.3474   14.3103    4.0973 C.ar      2 RES2    0.0000
     75 H34        1.1112   14.7569    3.3017 H         2 RES2    0.0000
     76 N7         1.6488   15.1647    5.0510 N.ar      2 RES2    0.0000
     77 N8         2.0881   14.6365    6.2411 N.pl3     2 RES2    0.0000
     78 O6         2.4206   15.4777    7.1205 O.2       2 RES2    0.0000
@<TRIPOS>BOND
     1    1    2 1
     2    3    1 1
     3    4    3 1
     4    5    4 1
     5    6    4 1
     6    7    4 1
     7    8    3 1
     8    9    8 1
     9   10    8 1
    10   11    8 1
    11   12    3 1
    12   13   12 1
    13   14   13 1
    14   15   13 1
    15   16   13 1
    16   17   12 1
    17   18   17 1
    18   19   17 1
    19   20   17 1
    20   21   12 1
    21   22   21 1
    22   23    1 1
    23   24   23 1
    24   25   24 ar
    25   26   25 ar
    26   27   26 1
    27   28   26 ar
    28   29   28 1
    29   30   28 ar
    30   31   30 1
    31   32   30 ar
    32   33   32 1
    33   34   25 ar
    34   35   34 ar
    35   36   35 1
    36   37   35 ar
    37   38   24 ar
    38   39   38 1
    39   40   41 1
    40   42   40 1
    41   43   42 1
    42   44   43 1
    43   45   43 1
    44   46   43 1
    45   47   42 1
    46   48   47 1
    47   49   47 1
    48   50   47 1
    49   51   42 1
    50   52   51 1
    51   53   52 1
    52   54   52 1
    53   55   52 1
    54   56   51 1
    55   57   56 1
    56   58   56 1
    57   59   56 1
    58   60   51 1
    59   61   60 1
    60   62   40 1
    61   63   62 1
    62   64   63 ar
    63   65   64 ar
    64   66   65 1
    65   67   65 ar
    66   68   67 1
    67   69   67 ar
    68   70   69 1
    69   71   69 ar
    70   72   71 1
    71   73   64 ar
    72   74   73 ar
    73   75   74 1
    74   76   74 ar
    75   77   63 ar
    76   78   77 1
    77   21   23 2
    78   32   34 ar
    79   37   38 ar
    80   60   62 2
    81   71   73 ar
    82   76   77 ar
@<TRIPOS>SUBSTRUCTURE
     1 RES1 1
     2 RES2 40

@<TRIPOS>CRYSIN
  22.2750   11.8150   22.5840  90.0000  90.4700  90.0000  15 1

