# MOL2 file generated by ConQuest
# Please check atom types

@<TRIPOS>MOLECULE
YOYHUQ
   108   114     2
SMALL
NO_CHARGES
****
Generated from CSD

@<TRIPOS>ATOM
      1 C1        12.1435    7.1704    1.2429 C.ar      1 RES1    0.0000
      2 H1        11.6027    7.4051    0.5237 H         1 RES1    0.0000
      3 C2        12.9593    6.0671    1.1439 C.ar      1 RES1    0.0000
      4 H2        12.9574    5.5564    0.3666 H         1 RES1    0.0000
      5 C3        13.7700    5.7197    2.1864 C.ar      1 RES1    0.0000
      6 H3        14.3269    4.9778    2.1175 H         1 RES1    0.0000
      7 C4        13.7617    6.4647    3.3256 C.ar      1 RES1    0.0000
      8 H4        14.3121    6.2288    4.0371 H         1 RES1    0.0000
      9 C5        12.9401    7.5655    3.4306 C.ar      1 RES1    0.0000
     10 H5        12.9425    8.0661    4.2138 H         1 RES1    0.0000
     11 C6        12.1149    7.9361    2.3902 C.ar      1 RES1    0.0000
     12 C7        11.2521    9.1661    2.4869 C.3       1 RES1    0.0000
     13 H6        11.2127    9.4507    3.4234 H         1 RES1    0.0000
     14 C8        11.8286   10.3067    1.6494 C.3       1 RES1    0.0000
     15 H7        12.6852   10.5767    2.0161 H         1 RES1    0.0000
     16 H8        11.9737   10.0003    0.7413 H         1 RES1    0.0000
     17 C9        10.9021   11.4730    1.6377 C.2       1 RES1    0.0000
     18 C10        9.4768   11.1741    1.2530 C.3       1 RES1    0.0000
     19 H9         9.4820   10.8393    0.3322 H         1 RES1    0.0000
     20 C11        8.9942   10.0167    2.1711 C.3       1 RES1    0.0000
     21 H10        9.0284   10.3231    3.1010 H         1 RES1    0.0000
     22 C12        7.5808    9.5846    1.8616 C.ar      1 RES1    0.0000
     23 C13        6.5533    9.8256    2.7387 C.ar      1 RES1    0.0000
     24 H11        6.7274   10.2626    3.5412 H         1 RES1    0.0000
     25 C14        5.2691    9.4299    2.4478 C.ar      1 RES1    0.0000
     26 H12        4.5866    9.5993    3.0569 H         1 RES1    0.0000
     27 C15        4.9885    8.7974    1.2835 C.ar      1 RES1    0.0000
     28 H13        4.1165    8.5430    1.0850 H         1 RES1    0.0000
     29 C16        5.9962    8.5385    0.4083 C.ar      1 RES1    0.0000
     30 H14        5.8148    8.0986   -0.3911 H         1 RES1    0.0000
     31 C17        7.2836    8.9239    0.7015 C.ar      1 RES1    0.0000
     32 H15        7.9662    8.7322    0.0998 H         1 RES1    0.0000
     33 C18        8.5619   12.3794    1.2964 C.3       1 RES1    0.0000
     34 H16        8.8989   13.0579    0.7069 H         1 RES1    0.0000
     35 H17        8.5255   12.7220    2.1928 H         1 RES1    0.0000
     36 H18        7.6803   12.1215    1.0162 H         1 RES1    0.0000
     37 C19       12.7624   14.1632    2.6559 C.3       1 RES1    0.0000
     38 H19       12.0748   14.4965    3.2532 H         1 RES1    0.0000
     39 H20       12.7309   14.6794    1.8344 H         1 RES1    0.0000
     40 C20       14.1059   14.3016    3.2948 C.ar      1 RES1    0.0000
     41 C21       15.2134   13.7556    2.7427 C.ar      1 RES1    0.0000
     42 H21       15.1404   13.2413    1.9703 H         1 RES1    0.0000
     43 C22       16.4520   13.9545    3.3170 C.ar      1 RES1    0.0000
     44 H22       17.2079   13.5661    2.9390 H         1 RES1    0.0000
     45 C23       16.5612   14.7151    4.4315 C.ar      1 RES1    0.0000
     46 H23       17.3969   14.8601    4.8144 H         1 RES1    0.0000
     47 C24       15.4773   15.2598    4.9813 C.ar      1 RES1    0.0000
     48 H24       15.5589   15.7860    5.7422 H         1 RES1    0.0000
     49 C25       14.2469   15.0442    4.4295 C.ar      1 RES1    0.0000
     50 H25       13.4929   15.4097    4.8340 H         1 RES1    0.0000
     51 C26        9.4847    5.5620    3.9634 C.ar      2 RES2    0.0000
     52 H26       10.3266    5.6217    4.3562 H         2 RES2    0.0000
     53 C27        9.3475    4.9785    2.7001 C.ar      2 RES2    0.0000
     54 H27       10.0920    4.6335    2.2632 H         2 RES2    0.0000
     55 C28        8.1246    4.9125    2.1090 C.ar      2 RES2    0.0000
     56 H28        8.0250    4.4966    1.2830 H         2 RES2    0.0000
     57 C29        7.0530    5.4586    2.7312 C.ar      2 RES2    0.0000
     58 H29        6.2237    5.4611    2.3106 H         2 RES2    0.0000
     59 C30        7.1912    6.0071    3.9770 C.ar      2 RES2    0.0000
     60 H30        6.4425    6.3652    4.3971 H         2 RES2    0.0000
     61 C31        8.3955    6.0464    4.6241 C.ar      2 RES2    0.0000
     62 C32        8.5099    6.7138    5.9677 C.3       2 RES2    0.0000
     63 H31        7.6334    6.6916    6.4066 H         2 RES2    0.0000
     64 C33        8.9460    8.1718    5.8180 C.3       2 RES2    0.0000
     65 H32        9.7799    8.2133    5.3233 H         2 RES2    0.0000
     66 H33        8.2743    8.6632    5.3200 H         2 RES2    0.0000
     67 C34        9.1280    8.7894    7.1576 C.2       2 RES2    0.0000
     68 C35       10.0264    8.0462    8.0977 C.3       2 RES2    0.0000
     69 H34       10.9222    8.0453    7.7010 H         2 RES2    0.0000
     70 C36        9.5603    6.5773    8.1727 C.3       2 RES2    0.0000
     71 H35        8.6664    6.5543    8.5749 H         2 RES2    0.0000
     72 C37       10.4853    5.7279    9.0089 C.ar      2 RES2    0.0000
     73 C38       10.0882    5.2489   10.2440 C.ar      2 RES2    0.0000
     74 H36        9.2353    5.4422   10.5599 H         2 RES2    0.0000
     75 C39       10.9468    4.4869   11.0124 C.ar      2 RES2    0.0000
     76 H37       10.6637    4.1617   11.8363 H         2 RES2    0.0000
     77 C40       12.1930    4.2109   10.5731 C.ar      2 RES2    0.0000
     78 H38       12.7673    3.7020   11.0999 H         2 RES2    0.0000
     79 C41       12.6165    4.6733    9.3584 C.ar      2 RES2    0.0000
     80 H39       13.4769    4.4859    9.0609 H         2 RES2    0.0000
     81 C42       11.7553    5.4271    8.5688 C.ar      2 RES2    0.0000
     82 H40       12.0384    5.7309    7.7370 H         2 RES2    0.0000
     83 C43       10.1457    8.6732    9.4731 C.3       2 RES2    0.0000
     84 H41       10.4624    9.5757    9.3866 H         2 RES2    0.0000
     85 H42       10.7652    8.1662   10.0035 H         2 RES2    0.0000
     86 H43        9.2860    8.6757    9.9004 H         2 RES2    0.0000
     87 C44        7.3560   11.7342    7.0694 C.3       2 RES2    0.0000
     88 H44        7.1211   11.7043    8.0103 H         2 RES2    0.0000
     89 H45        6.5816   12.0508    6.5784 H         2 RES2    0.0000
     90 C45        8.4890   12.6923    6.8750 C.ar      2 RES2    0.0000
     91 C46        8.8530   13.0801    5.6213 C.ar      2 RES2    0.0000
     92 H46        8.3870   12.7405    4.8913 H         2 RES2    0.0000
     93 C47        9.8509   13.9286    5.4084 C.ar      2 RES2    0.0000
     94 H47       10.0727   14.1681    4.5378 H         2 RES2    0.0000
     95 C48       10.5421   14.4439    6.4312 C.ar      2 RES2    0.0000
     96 H48       11.2318   15.0467    6.2675 H         2 RES2    0.0000
     97 C49       10.2358   14.0840    7.7256 C.ar      2 RES2    0.0000
     98 H49       10.7203   14.4231    8.4423 H         2 RES2    0.0000
     99 C50        9.1791   13.1962    7.9285 C.ar      2 RES2    0.0000
    100 H50        8.9452   12.9485    8.7942 H         2 RES2    0.0000
    101 N1         9.4747    6.0346    6.8174 N.3       2 RES2    0.0000
    102 H51        9.9525    5.3732    6.5474 H         2 RES2    0.0000
    103 N2         8.5591    9.8438    7.5914 N.2       2 RES2    0.0000
    104 O1         7.6943   10.4100    6.6205 O.3       2 RES2    0.0000
    105 N3         9.9000    8.8905    2.0248 N.3       1 RES1    0.0000
    106 H52        9.6595    8.1327    1.6953 H         1 RES1    0.0000
    107 N4        11.1762   12.6652    1.9680 N.2       1 RES1    0.0000
    108 O2        12.5378   12.7951    2.3750 O.3       1 RES1    0.0000
@<TRIPOS>BOND
     1    1    2 1
     2    3    1 ar
     3    4    3 1
     4    5    3 ar
     5    6    5 1
     6    7    5 ar
     7    8    7 1
     8    9    7 ar
     9   10    9 1
    10   11    1 ar
    11   12   11 1
    12   13   12 1
    13   14   12 1
    14   15   14 1
    15   16   14 1
    16   17   14 1
    17   18   17 1
    18   19   18 1
    19   20   18 1
    20   21   20 1
    21   22   20 1
    22   23   22 ar
    23   24   23 1
    24   25   23 ar
    25   26   25 1
    26   27   25 ar
    27   28   27 1
    28   29   27 ar
    29   30   29 1
    30   31   22 ar
    31   32   31 1
    32   33   18 1
    33   34   33 1
    34   35   33 1
    35   36   33 1
    36   37   38 1
    37   39   37 1
    38   40   37 1
    39   41   40 ar
    40   42   41 1
    41   43   41 ar
    42   44   43 1
    43   45   43 ar
    44   46   45 1
    45   47   45 ar
    46   48   47 1
    47   49   40 ar
    48   50   49 1
    49   51   52 1
    50   53   51 ar
    51   54   53 1
    52   55   53 ar
    53   56   55 1
    54   57   55 ar
    55   58   57 1
    56   59   57 ar
    57   60   59 1
    58   61   51 ar
    59   62   61 1
    60   63   62 1
    61   64   62 1
    62   65   64 1
    63   66   64 1
    64   67   64 1
    65   68   67 1
    66   69   68 1
    67   70   68 1
    68   71   70 1
    69   72   70 1
    70   73   72 ar
    71   74   73 1
    72   75   73 ar
    73   76   75 1
    74   77   75 ar
    75   78   77 1
    76   79   77 ar
    77   80   79 1
    78   81   72 ar
    79   82   81 1
    80   83   68 1
    81   84   83 1
    82   85   83 1
    83   86   83 1
    84   87   88 1
    85   89   87 1
    86   90   87 1
    87   91   90 ar
    88   92   91 1
    89   93   91 ar
    90   94   93 1
    91   95   93 ar
    92   96   95 1
    93   97   95 ar
    94   98   97 1
    95   99   90 ar
    96  100   99 1
    97  101   62 1
    98  102  101 1
    99  103   67 2
   100  104   87 1
   101  105   12 1
   102  106  105 1
   103  107   17 2
   104  108   37 1
   105    9   11 ar
   106   20  105 1
   107   29   31 ar
   108   47   49 ar
   109   59   61 ar
   110   70  101 1
   111   79   81 ar
   112   97   99 ar
   113  103  104 1
   114  107  108 1
@<TRIPOS>SUBSTRUCTURE
     1 RES1 1
     2 RES2 51

@<TRIPOS>CRYSIN
  10.8698   11.9958   16.9692  77.3810  80.8320  87.3310   2 1

