# MOL2 file generated by ConQuest
# Please check atom types

@<TRIPOS>MOLECULE
YOYSUC
    52    50     2
SMALL
NO_CHARGES
****
Generated from CSD

@<TRIPOS>ATOM
      1 N1        -0.4896    3.7778   11.4400 N.pl3     1 RES1    0.0000
      2 N2        -1.2520    5.7069   15.8572 N.pl3     1 RES1    0.0000
      3 O1         0.3726    3.9042   12.5671 O.3       1 RES1    0.0000
      4 O2        -0.7880    4.7823   10.8481 O.2       1 RES1    0.0000
      5 O3        -0.8020    2.6462   11.2439 O.2       1 RES1    0.0000
      6 O4        -0.3792    5.1584   14.9147 O.3       1 RES1    0.0000
      7 O5        -1.7822    6.7508   15.6077 O.2       1 RES1    0.0000
      8 O6        -1.3507    5.0145   16.8422 O.2       1 RES1    0.0000
      9 C1         0.7755    5.2622   12.8669 C.3       1 RES1    0.0000
     10 H1         0.9119    5.7595   12.0333 H         1 RES1    0.0000
     11 C2        -0.2695    5.9582   13.7133 C.3       1 RES1    0.0000
     12 H2         0.0098    6.8621   13.9280 H         1 RES1    0.0000
     13 H3        -1.1194    5.9953   13.2471 H         1 RES1    0.0000
     14 N3        -0.4341    2.1928    3.7694 N.pl3     2 RES2    0.0000
     15 N4         2.6176    3.9155    0.4587 N.pl3     2 RES2    0.0000
     16 O7         1.1972    3.8184    0.4657 O.3       2 RES2    0.0000
     17 O8         3.2522    2.9430    0.1867 O.2       2 RES2    0.0000
     18 O9         2.9809    5.0266    0.7343 O.2       2 RES2    0.0000
     19 O10       -0.2127    2.6747    2.4765 O.3       2 RES2    0.0000
     20 O11        0.0073    1.1231    4.0638 O.2       2 RES2    0.0000
     21 O12       -1.0727    2.9672    4.4366 O.2       2 RES2    0.0000
     22 C3         0.6880    2.4714    0.3267 C.3       2 RES2    0.0000
     23 H4         1.2660    1.9565   -0.2737 H         2 RES2    0.0000
     24 C4         0.6296    1.8043    1.6839 C.3       2 RES2    0.0000
     25 H5         0.2435    0.9168    1.6170 H         2 RES2    0.0000
     26 H6         1.5156    1.7326    2.0719 H         2 RES2    0.0000
     27 N1B        3.3929    6.5412   15.0039 N.pl3     1 RES1    0.0000
     28 N2B        4.1554    4.6121   10.5867 N.pl3     1 RES1    0.0000
     29 O1B        2.5308    6.4148   13.8768 O.3       1 RES1    0.0000
     30 O2B        3.6913    5.5367   15.5958 O.2       1 RES1    0.0000
     31 O3B        3.7054    7.6728   15.1999 O.2       1 RES1    0.0000
     32 O4B        3.2826    5.1606   11.5291 O.3       1 RES1    0.0000
     33 O5B        4.6856    3.5682   10.8362 O.2       1 RES1    0.0000
     34 O6B        4.2540    5.3045    9.6016 O.2       1 RES1    0.0000
     35 C1B        2.1279    5.0568   13.5769 C.3       1 RES1    0.0000
     36 H1B        1.9914    4.5595   14.4106 H         1 RES1    0.0000
     37 C2B        3.1728    4.3608   12.7306 C.3       1 RES1    0.0000
     38 H2B        2.8935    3.4569   12.5159 H         1 RES1    0.0000
     39 H3B        4.0228    4.3237   13.1968 H         1 RES1    0.0000
     40 N3B        0.4341    2.9667   -3.7694 N.pl3     2 RES2    0.0000
     41 N4B       -2.6176    1.2440   -0.4587 N.pl3     2 RES2    0.0000
     42 O7B       -1.1972    1.3411   -0.4657 O.3       2 RES2    0.0000
     43 O8B       -3.2522    2.2165   -0.1867 O.2       2 RES2    0.0000
     44 O9B       -2.9809    0.1329   -0.7343 O.2       2 RES2    0.0000
     45 O10B       0.2127    2.4848   -2.4765 O.3       2 RES2    0.0000
     46 O11B      -0.0073    4.0364   -4.0638 O.2       2 RES2    0.0000
     47 O12B       1.0727    2.1923   -4.4366 O.2       2 RES2    0.0000
     48 C3B       -0.6880    2.6881   -0.3267 C.3       2 RES2    0.0000
     49 H4B       -1.2660    3.2030    0.2737 H         2 RES2    0.0000
     50 C4B       -0.6296    3.3552   -1.6839 C.3       2 RES2    0.0000
     51 H5B       -0.2435    4.2427   -1.6170 H         2 RES2    0.0000
     52 H6B       -1.5156    3.4269   -2.0719 H         2 RES2    0.0000
@<TRIPOS>BOND
     1    1    3 1
     2    2    6 1
     3    3    9 1
     4    4    1 2
     5    5    1 2
     6    6   11 1
     7    7    2 2
     8    8    2 2
     9    9   10 1
    10   11    9 1
    11   12   11 1
    12   13   11 1
    13   14   19 1
    14   15   16 1
    15   16   22 1
    16   17   15 2
    17   18   15 2
    18   19   24 1
    19   20   14 2
    20   21   14 2
    21   22   23 1
    22   24   22 1
    23   25   24 1
    24   26   24 1
    25   27   29 1
    26   28   32 1
    27   29   35 1
    28   30   27 2
    29   31   27 2
    30   32   37 1
    31   33   28 2
    32   34   28 2
    33   35    9 1
    34   36   35 1
    35   37   35 1
    36   38   37 1
    37   39   37 1
    38   40   45 1
    39   41   42 1
    40   42   48 1
    41   43   41 2
    42   44   41 2
    43   45   50 1
    44   46   40 2
    45   47   40 2
    46   48   22 1
    47   49   48 1
    48   50   48 1
    49   51   50 1
    50   52   50 1
@<TRIPOS>SUBSTRUCTURE
     1 RES1 1
     2 RES2 14

@<TRIPOS>CRYSIN
  15.8930    5.1595   14.7310  90.0000 116.1610  90.0000  14 1

