# MOL2 file generated by ConQuest
# Please check atom types

@<TRIPOS>MOLECULE
YOZBOG
    50    54     1
SMALL
NO_CHARGES
****
Generated from CSD

@<TRIPOS>ATOM
      1 O1         3.7507    1.3259   11.2520 O.3       1 RES1    0.0000
      2 N1         4.8856    1.2018   10.4212 N.2       1 RES1    0.0000
      3 N2         2.7942    1.6971   14.0562 N.ar      1 RES1    0.0000
      4 C1         1.8869    2.3206   13.3557 C.ar      1 RES1    0.0000
      5 C2         0.4926    2.3296   13.7031 C.ar      1 RES1    0.0000
      6 C3        -0.4831    3.0621   12.9746 C.ar      1 RES1    0.0000
      7 H1        -0.2221    3.5634   12.2363 H         1 RES1    0.0000
      8 C4        -1.7932    3.0400   13.3410 C.ar      1 RES1    0.0000
      9 H2        -2.4197    3.5144   12.8438 H         1 RES1    0.0000
     10 C5        -2.1977    2.3256   14.4345 C.ar      1 RES1    0.0000
     11 H3        -3.0944    2.3186   14.6771 H         1 RES1    0.0000
     12 C6        -1.2838    1.6191   15.1730 C.ar      1 RES1    0.0000
     13 H4        -1.5710    1.1448   15.9202 H         1 RES1    0.0000
     14 C7         0.0811    1.5941   14.8271 C.ar      1 RES1    0.0000
     15 C8         1.0705    0.8486   15.5732 C.ar      1 RES1    0.0000
     16 C9         0.7729    0.0240   16.6777 C.ar      1 RES1    0.0000
     17 H5        -0.1070   -0.0620   16.9643 H         1 RES1    0.0000
     18 C10        1.7685   -0.6524   17.3310 C.ar      1 RES1    0.0000
     19 H6         1.5561   -1.1998   18.0518 H         1 RES1    0.0000
     20 C11        3.0942   -0.5294   16.9274 C.ar      1 RES1    0.0000
     21 H7         3.7665   -0.9827   17.3838 H         1 RES1    0.0000
     22 C12        3.4038    0.2552   15.8633 C.ar      1 RES1    0.0000
     23 H8         4.2904    0.3322   15.5915 H         1 RES1    0.0000
     24 C13        2.4108    0.9466   15.1717 C.ar      1 RES1    0.0000
     25 C14        2.3151    3.0340   12.0824 C.3       1 RES1    0.0000
     26 H9         1.6929    2.8049   11.3737 H         1 RES1    0.0000
     27 H10        2.2558    3.9907   12.2276 H         1 RES1    0.0000
     28 C15        3.6810    2.7098   11.6336 C.3       1 RES1    0.0000
     29 H11        4.2840    2.8389   12.3963 H         1 RES1    0.0000
     30 C16        4.2772    3.4653   10.4322 C.3       1 RES1    0.0000
     31 C17        5.2223    2.3596   10.0033 C.2       1 RES1    0.0000
     32 C18        6.4350    2.4606    9.1526 C.ar      1 RES1    0.0000
     33 C19        6.6075    3.4693    8.2202 C.ar      1 RES1    0.0000
     34 H12        5.9660    4.1378    8.1352 H         1 RES1    0.0000
     35 C20        7.7335    3.4843    7.4125 C.ar      1 RES1    0.0000
     36 H13        7.8417    4.1648    6.7883 H         1 RES1    0.0000
     37 C21        8.6863    2.5087    7.5227 C.ar      1 RES1    0.0000
     38 H14        9.4328    2.5197    6.9678 H         1 RES1    0.0000
     39 C22        8.5346    1.5150    8.4569 C.ar      1 RES1    0.0000
     40 H15        9.1798    0.8496    8.5351 H         1 RES1    0.0000
     41 C23        7.4306    1.5000    9.2803 C.ar      1 RES1    0.0000
     42 H16        7.3503    0.8396    9.9296 H         1 RES1    0.0000
     43 C24        4.9318    4.7582   10.8862 C.3       1 RES1    0.0000
     44 H17        4.2730    5.3266   11.2894 H         1 RES1    0.0000
     45 H18        5.3189    5.2045   10.1285 H         1 RES1    0.0000
     46 H19        5.6200    4.5611   11.5272 H         1 RES1    0.0000
     47 C25        3.2754    3.7195    9.3121 C.3       1 RES1    0.0000
     48 H20        2.6568    4.4019    9.5837 H         1 RES1    0.0000
     49 H21        2.7958    2.9099    9.1210 H         1 RES1    0.0000
     50 H22        3.7427    4.0077    8.5243 H         1 RES1    0.0000
@<TRIPOS>BOND
     1    1    2 1
     2    2   31 2
     3    3    4 ar
     4    4    5 ar
     5    5    6 ar
     6    6    7 1
     7    8    6 ar
     8    9    8 1
     9   10    8 ar
    10   11   10 1
    11   12   10 ar
    12   13   12 1
    13   14    5 ar
    14   15   14 ar
    15   16   15 ar
    16   17   16 1
    17   18   16 ar
    18   19   18 1
    19   20   18 ar
    20   21   20 1
    21   22   20 ar
    22   23   22 1
    23   24    3 ar
    24   25    4 1
    25   26   25 1
    26   27   25 1
    27   28    1 1
    28   29   28 1
    29   30   28 1
    30   31   30 1
    31   32   31 1
    32   33   32 ar
    33   34   33 1
    34   35   33 ar
    35   36   35 1
    36   37   35 ar
    37   38   37 1
    38   39   37 ar
    39   40   39 1
    40   41   32 ar
    41   42   41 1
    42   43   30 1
    43   44   43 1
    44   45   43 1
    45   46   43 1
    46   47   30 1
    47   48   47 1
    48   49   47 1
    49   50   47 1
    50   12   14 ar
    51   15   24 ar
    52   22   24 ar
    53   25   28 1
    54   39   41 ar
@<TRIPOS>SUBSTRUCTURE
     1 RES1 1

