# MOL2 file generated by ConQuest
# Please check atom types

@<TRIPOS>MOLECULE
YUBVAU
   134   140     2
SMALL
NO_CHARGES
****
Generated from CSD

@<TRIPOS>ATOM
      1 O1         6.3860   12.8582   21.3123 O.2       1 RES1    0.0000
      2 O2         5.6992    9.5042   21.9620 O.3       1 RES1    0.0000
      3 O3         6.1001   13.1239    8.6020 O.3       1 RES1    0.0000
      4 H1         6.8990   13.2451    8.3187 H         1 RES1    0.0000
      5 N1         6.2786   10.7789   22.1251 N.am      1 RES1    0.0000
      6 C1         4.8277   12.8812   12.1012 C.3       1 RES1    0.0000
      7 H2         3.9393   12.6047   12.4363 H         1 RES1    0.0000
      8 H3         4.9737   13.8190   12.3827 H         1 RES1    0.0000
      9 C2         4.8076   12.8274   10.5669 C.3       1 RES1    0.0000
     10 H4         4.5797   11.9111   10.2687 H         1 RES1    0.0000
     11 H5         4.1154   13.4446   10.2210 H         1 RES1    0.0000
     12 C3         6.1527   13.2168   10.0197 C.3       1 RES1    0.0000
     13 H6         6.3427   14.1648   10.2747 H         1 RES1    0.0000
     14 C4         7.2428   12.3236   10.5979 C.3       1 RES1    0.0000
     15 H7         7.1191   11.4037   10.2568 H         1 RES1    0.0000
     16 H8         8.1235   12.6465   10.2836 H         1 RES1    0.0000
     17 C5         7.2420   12.2889   12.1119 C.2       1 RES1    0.0000
     18 C6         8.3552   12.4971   12.7947 C.2       1 RES1    0.0000
     19 H9         9.1409   12.7035   12.3022 H         1 RES1    0.0000
     20 C7         8.4703   12.4306   14.2873 C.3       1 RES1    0.0000
     21 H10        8.5924   13.3458   14.6427 H         1 RES1    0.0000
     22 H11        9.2746   11.9035   14.5265 H         1 RES1    0.0000
     23 C8         7.2505   11.8003   14.9463 C.3       1 RES1    0.0000
     24 H12        7.2914   10.8108   14.8127 H         1 RES1    0.0000
     25 C9         5.9649   12.3333   14.2823 C.3       1 RES1    0.0000
     26 H13        6.0144   13.3306   14.3446 H         1 RES1    0.0000
     27 C10        5.9000   11.9993   12.7676 C.3       1 RES1    0.0000
     28 C11        4.6987   11.9212   15.0515 C.3       1 RES1    0.0000
     29 H14        3.9316   12.4337   14.6934 H         1 RES1    0.0000
     30 H15        4.5233   10.9628   14.8783 H         1 RES1    0.0000
     31 C12        4.7652   12.1393   16.5707 C.3       1 RES1    0.0000
     32 H16        4.7713   13.1102   16.7597 H         1 RES1    0.0000
     33 H17        3.9571   11.7515   16.9923 H         1 RES1    0.0000
     34 C13        6.0090   11.4991   17.1858 C.3       1 RES1    0.0000
     35 C14        7.2234   12.0869   16.4424 C.3       1 RES1    0.0000
     36 H18        7.1500   13.0798   16.5331 H         1 RES1    0.0000
     37 C15        8.4232   11.6743   17.2842 C.3       1 RES1    0.0000
     38 H19        9.1788   12.3006   17.1562 H         1 RES1    0.0000
     39 H20        8.7214   10.7595   17.0519 H         1 RES1    0.0000
     40 C16        7.8909   11.7345   18.7347 C.3       1 RES1    0.0000
     41 H21        8.2934   12.5002   19.2165 H         1 RES1    0.0000
     42 H22        8.1181   10.9020   19.2195 H         1 RES1    0.0000
     43 C17        6.3458   11.9035   18.6450 C.3       1 RES1    0.0000
     44 H23        6.1403   12.8764   18.7454 H         1 RES1    0.0000
     45 C18        5.9433    9.9644   17.0626 C.3       1 RES1    0.0000
     46 H24        5.8946    9.7143   16.1157 H         1 RES1    0.0000
     47 H25        5.1483    9.6326   17.5289 H         1 RES1    0.0000
     48 H26        6.7460    9.5699   17.4633 H         1 RES1    0.0000
     49 C19        5.5609   10.5145   12.5255 C.3       1 RES1    0.0000
     50 H27        5.6899   10.2996   11.5776 H         1 RES1    0.0000
     51 H28        4.6284   10.3471   12.7733 H         1 RES1    0.0000
     52 H29        6.1504    9.9519   13.0714 H         1 RES1    0.0000
     53 C20        5.6327   11.1612   19.7732 C.3       1 RES1    0.0000
     54 H30        5.8498   10.1875   19.7025 H         1 RES1    0.0000
     55 C21        4.1085   11.3237   19.7816 C.3       1 RES1    0.0000
     56 H31        3.7338   10.9267   18.9691 H         1 RES1    0.0000
     57 H32        3.8821   12.2759   19.8129 H         1 RES1    0.0000
     58 H33        3.7361   10.8716   20.5672 H         1 RES1    0.0000
     59 C22        6.1225   11.6711   21.1158 C.2       1 RES1    0.0000
     60 C23        6.4416   11.1624   23.5199 C.3       1 RES1    0.0000
     61 H34        7.0450   10.5296   23.9633 H         1 RES1    0.0000
     62 H35        5.5694   11.1510   23.9663 H         1 RES1    0.0000
     63 H36        6.8209   12.0650   23.5697 H         1 RES1    0.0000
     64 C24        6.7336    8.5209   21.8383 C.3       1 RES1    0.0000
     65 H37        6.3389    7.6240   21.8761 H         1 RES1    0.0000
     66 H38        7.3741    8.6274   22.5709 H         1 RES1    0.0000
     67 H39        7.1956    8.6388   20.9817 H         1 RES1    0.0000
     68 O4         2.5093    5.5523   10.1557 O.2       2 RES2    0.0000
     69 O5         0.7726    8.3379    9.0155 O.3       2 RES2    0.0000
     70 O6         2.8894    5.4991   22.5920 O.3       2 RES2    0.0000
     71 H40        2.3795    4.9218   22.9078 H         2 RES2    0.0000
     72 N2         1.7522    7.3131    9.0006 N.am      2 RES2    0.0000
     73 C25        1.2392    5.8693   19.2210 C.3       2 RES2    0.0000
     74 H41        0.3175    6.1266   18.9691 H         2 RES2    0.0000
     75 H42        1.3968    4.9522   18.8826 H         2 RES2    0.0000
     76 C26        1.3419    5.8537   20.7410 C.3       2 RES2    0.0000
     77 H43        1.1187    6.7499   21.0979 H         2 RES2    0.0000
     78 H44        0.6930    5.2049   21.1099 H         2 RES2    0.0000
     79 C27        2.7325    5.4744   21.1644 C.3       2 RES2    0.0000
     80 H45        2.9342    4.5531   20.8326 H         2 RES2    0.0000
     81 C28        3.7485    6.4384   20.5896 C.3       2 RES2    0.0000
     82 H46        4.6593    6.1190   20.8117 H         2 RES2    0.0000
     83 H47        3.6272    7.3257   21.0115 H         2 RES2    0.0000
     84 C29        3.6233    6.5824   19.0800 C.2       2 RES2    0.0000
     85 C30        4.7049    6.4909   18.3170 C.2       2 RES2    0.0000
     86 H48        5.5354    6.3299   18.7484 H         2 RES2    0.0000
     87 C31        4.7149    6.6225   16.8223 C.3       2 RES2    0.0000
     88 H49        4.9027    5.7351   16.4228 H         2 RES2    0.0000
     89 H50        5.4489    7.2325   16.5599 H         2 RES2    0.0000
     90 C32        3.4047    7.1522   16.2513 C.3       2 RES2    0.0000
     91 H51        3.3815    8.1466   16.3601 H         2 RES2    0.0000
     92 C33        2.2103    6.5433   16.9934 C.3       2 RES2    0.0000
     93 H52        2.2968    5.5527   16.8939 H         2 RES2    0.0000
     94 C34        2.2273    6.8268   18.5263 C.3       2 RES2    0.0000
     95 C35        0.8823    6.9241   16.3247 C.3       2 RES2    0.0000
     96 H53        0.7154    7.8881   16.4735 H         2 RES2    0.0000
     97 H54        0.1499    6.4211   16.7627 H         2 RES2    0.0000
     98 C36        0.8421    6.6431   14.8112 C.3       2 RES2    0.0000
     99 H55        0.8691    5.6648   14.6606 H         2 RES2    0.0000
    100 H56       -0.0100    6.9836   14.4400 H         2 RES2    0.0000
    101 C37        2.0110    7.2981   14.0703 C.3       2 RES2    0.0000
    102 C38        3.2996    6.8149   14.7677 C.3       2 RES2    0.0000
    103 H57        3.2741    5.8168   14.7203 H         2 RES2    0.0000
    104 C39        4.4314    7.2420   13.8422 C.3       2 RES2    0.0000
    105 H58        5.2063    6.6301   13.9242 H         2 RES2    0.0000
    106 H59        4.7273    8.1637   14.0464 H         2 RES2    0.0000
    107 C40        3.8072    7.1601   12.4259 C.3       2 RES2    0.0000
    108 H60        3.8922    8.0288   11.9593 H         2 RES2    0.0000
    109 H61        4.2614    6.4648   11.8877 H         2 RES2    0.0000
    110 C41        2.3161    6.7983   12.6284 C.3       2 RES2    0.0000
    111 H62        2.2590    5.7997   12.6480 H         2 RES2    0.0000
    112 C42        1.8711    8.8265   14.0825 C.3       2 RES2    0.0000
    113 H63        1.8534    9.1461   15.0095 H         2 RES2    0.0000
    114 H64        1.0383    9.0815   13.6320 H         2 RES2    0.0000
    115 H65        2.6321    9.2279   13.6141 H         2 RES2    0.0000
    116 C43        1.8248    8.2857   18.8301 C.3       2 RES2    0.0000
    117 H66        0.8637    8.3993   18.6769 H         2 RES2    0.0000
    118 H67        2.3231    8.8915   18.2416 H         2 RES2    0.0000
    119 H68        2.0334    8.4943   19.7652 H         2 RES2    0.0000
    120 C44        1.4377    7.2713   11.4661 C.3       2 RES2    0.0000
    121 H69        1.5165    8.2644   11.3868 H         2 RES2    0.0000
    122 C45       -0.0433    6.9017   11.6262 C.3       2 RES2    0.0000
    123 H70       -0.1228    5.9422   11.8102 H         2 RES2    0.0000
    124 H71       -0.5253    7.1166   10.7994 H         2 RES2    0.0000
    125 H72       -0.4280    7.4093   12.3707 H         2 RES2    0.0000
    126 C46        1.9329    6.6328   10.1757 C.2       2 RES2    0.0000
    127 C47        1.8124    6.6263    7.7123 C.3       2 RES2    0.0000
    128 H73        2.4421    5.8776    7.7701 H         2 RES2    0.0000
    129 H74        2.1130    7.2534    7.0217 H         2 RES2    0.0000
    130 H75        0.9224    6.2881    7.4809 H         2 RES2    0.0000
    131 C48        1.3682    9.5806    8.6306 C.3       2 RES2    0.0000
    132 H76        2.0287    9.8474    9.3027 H         2 RES2    0.0000
    133 H77        0.6737   10.2692    8.5632 H         2 RES2    0.0000
    134 H78        1.8093    9.4768    7.7612 H         2 RES2    0.0000
@<TRIPOS>BOND
     1    1   59 2
     2    2    5 1
     3    3    4 1
     4    5   59 1
     5    6    7 1
     6    8    6 1
     7    9    6 1
     8   10    9 1
     9   11    9 1
    10   12    3 1
    11   13   12 1
    12   14   12 1
    13   15   14 1
    14   16   14 1
    15   17   14 1
    16   18   17 2
    17   19   18 1
    18   20   18 1
    19   21   20 1
    20   22   20 1
    21   23   20 1
    22   24   23 1
    23   25   23 1
    24   26   25 1
    25   27    6 1
    26   28   25 1
    27   29   28 1
    28   30   28 1
    29   31   28 1
    30   32   31 1
    31   33   31 1
    32   34   31 1
    33   35   23 1
    34   36   35 1
    35   37   35 1
    36   38   37 1
    37   39   37 1
    38   40   37 1
    39   41   40 1
    40   42   40 1
    41   43   34 1
    42   44   43 1
    43   45   34 1
    44   46   45 1
    45   47   45 1
    46   48   45 1
    47   49   27 1
    48   50   49 1
    49   51   49 1
    50   52   49 1
    51   53   43 1
    52   54   53 1
    53   55   53 1
    54   56   55 1
    55   57   55 1
    56   58   55 1
    57   59   53 1
    58   60    5 1
    59   61   60 1
    60   62   60 1
    61   63   60 1
    62   64    2 1
    63   65   64 1
    64   66   64 1
    65   67   64 1
    66   68  126 2
    67   69   72 1
    68   70   71 1
    69   72  126 1
    70   73   74 1
    71   75   73 1
    72   76   73 1
    73   77   76 1
    74   78   76 1
    75   79   70 1
    76   80   79 1
    77   81   79 1
    78   82   81 1
    79   83   81 1
    80   84   81 1
    81   85   84 2
    82   86   85 1
    83   87   85 1
    84   88   87 1
    85   89   87 1
    86   90   87 1
    87   91   90 1
    88   92   90 1
    89   93   92 1
    90   94   73 1
    91   95   92 1
    92   96   95 1
    93   97   95 1
    94   98   95 1
    95   99   98 1
    96  100   98 1
    97  101   98 1
    98  102   90 1
    99  103  102 1
   100  104  102 1
   101  105  104 1
   102  106  104 1
   103  107  104 1
   104  108  107 1
   105  109  107 1
   106  110  101 1
   107  111  110 1
   108  112  101 1
   109  113  112 1
   110  114  112 1
   111  115  112 1
   112  116   94 1
   113  117  116 1
   114  118  116 1
   115  119  116 1
   116  120  110 1
   117  121  120 1
   118  122  120 1
   119  123  122 1
   120  124  122 1
   121  125  122 1
   122  126  120 1
   123  127   72 1
   124  128  127 1
   125  129  127 1
   126  130  127 1
   127  131   69 1
   128  132  131 1
   129  133  131 1
   130  134  131 1
   131    9   12 1
   132   17   27 1
   133   25   27 1
   134   34   35 1
   135   40   43 1
   136   76   79 1
   137   84   94 1
   138   92   94 1
   139  101  102 1
   140  107  110 1
@<TRIPOS>SUBSTRUCTURE
     1 RES1 1
     2 RES2 68

@<TRIPOS>CRYSIN
   7.7256   19.0030   29.8162  90.0000  90.0000  90.0000  19 1

