# MOL2 file generated by ConQuest
# Please check atom types

@<TRIPOS>MOLECULE
YUCPOC
    36    38     1
SMALL
NO_CHARGES
****
Generated from CSD

@<TRIPOS>ATOM
      1 N1         1.6402    2.1199   13.1054 N.ar      1 RES1    0.0000
      2 C1         1.9569    2.0254   11.8283 C.ar      1 RES1    0.0000
      3 H1         2.5013    1.2795   11.6070 H         1 RES1    0.0000
      4 N2         1.6385    2.7974   10.8161 N.ar      1 RES1    0.0000
      5 C2         0.8974    3.8718   11.1136 C.ar      1 RES1    0.0000
      6 C3         0.4836    4.1092   12.4488 C.ar      1 RES1    0.0000
      7 C4         0.8838    3.1782   13.4454 C.ar      1 RES1    0.0000
      8 N3         0.6070    4.6883   10.0984 N.pl3     1 RES1    0.0000
      9 H2         0.1183    5.3992   10.2742 H         1 RES1    0.0000
     10 C5         1.0252    4.4977    8.7570 C.ar      1 RES1    0.0000
     11 C6         0.6392    3.3772    8.0491 C.ar      1 RES1    0.0000
     12 H3         0.1072    2.7068    8.4614 H         1 RES1    0.0000
     13 C7         1.0318    3.2432    6.7410 C.ar      1 RES1    0.0000
     14 H4         0.7722    2.4762    6.2452 H         1 RES1    0.0000
     15 C8         1.8005    4.2148    6.1474 C.ar      1 RES1    0.0000
     16 H5         2.0749    4.1142    5.2425 H         1 RES1    0.0000
     17 C9         2.1730    5.3303    6.8557 C.ar      1 RES1    0.0000
     18 H6         2.7052    5.9990    6.4408 H         1 RES1    0.0000
     19 C10        1.7789    5.4832    8.1622 C.ar      1 RES1    0.0000
     20 H7         2.0241    6.2602    8.6510 H         1 RES1    0.0000
     21 N4        -0.3096    5.2319   12.7631 N.pl3     1 RES1    0.0000
     22 O1        -0.6693    6.0184   11.8634 O.2       1 RES1    0.0000
     23 O2        -0.6589    5.4459   13.9341 O.2       1 RES1    0.0000
     24 N5         0.5214    3.3038   14.7213 N.pl3     1 RES1    0.0000
     25 H8         0.0341    4.0175   14.8900 H         1 RES1    0.0000
     26 C11        0.7773    2.4990   15.8529 C.ar      1 RES1    0.0000
     27 C12        1.5180    1.3329   15.8792 C.ar      1 RES1    0.0000
     28 H9         1.9168    1.0016   15.0826 H         1 RES1    0.0000
     29 C13        1.6747    0.6564   17.0650 C.ar      1 RES1    0.0000
     30 H10        2.1846   -0.1451   17.0788 H         1 RES1    0.0000
     31 C14        1.1105    1.1128   18.2318 C.ar      1 RES1    0.0000
     32 H11        1.2247    0.6325   19.0443 H         1 RES1    0.0000
     33 C15        0.3712    2.2844   18.2064 C.ar      1 RES1    0.0000
     34 H12       -0.0184    2.6168   19.0076 H         1 RES1    0.0000
     35 C16        0.2028    2.9642   17.0298 C.ar      1 RES1    0.0000
     36 H13       -0.3128    3.7623   17.0176 H         1 RES1    0.0000
@<TRIPOS>BOND
     1    1    2 ar
     2    2    3 1
     3    4    2 ar
     4    5    4 ar
     5    6    5 ar
     6    7    1 ar
     7    8    5 1
     8    9    8 1
     9   10    8 1
    10   11   10 ar
    11   12   11 1
    12   13   11 ar
    13   14   13 1
    14   15   13 ar
    15   16   15 1
    16   17   15 ar
    17   18   17 1
    18   19   10 ar
    19   20   19 1
    20   21    6 1
    21   22   21 2
    22   23   21 2
    23   24    7 1
    24   25   24 1
    25   26   24 1
    26   27   26 ar
    27   28   27 1
    28   29   27 ar
    29   30   29 1
    30   31   29 ar
    31   32   31 1
    32   33   31 ar
    33   34   33 1
    34   35   26 ar
    35   36   35 1
    36    6    7 ar
    37   17   19 ar
    38   33   35 ar
@<TRIPOS>SUBSTRUCTURE
     1 RES1 1

@<TRIPOS>CRYSIN
   7.9112    5.5582   30.6650  90.0000  94.5410  90.0000  14 1

