# MOL2 file generated by ConQuest
# Please check atom types

@<TRIPOS>MOLECULE
YUCPUI
    33    34     1
SMALL
NO_CHARGES
****
Generated from CSD

@<TRIPOS>ATOM
      1 N1         0.4378    5.8374    4.3157 N.2       1 RES1    0.0000
      2 C1         0.8717    4.8752    3.5246 C.2       1 RES1    0.0000
      3 N2         1.7313    3.9079    3.9201 N.am      1 RES1    0.0000
      4 C2         2.2811    3.9139    5.2058 C.2       1 RES1    0.0000
      5 C3         1.7498    4.8977    6.0588 C.2       1 RES1    0.0000
      6 C4         0.8439    5.8503    5.5911 C.2       1 RES1    0.0000
      7 N3         0.4367    4.8657    2.2610 N.3       1 RES1    0.0000
      8 H1        -0.1206    5.4874    1.9832 H         1 RES1    0.0000
      9 H2         0.7074    4.2379    1.7068 H         1 RES1    0.0000
     10 C5         2.3310    2.9946    2.9400 C.3       1 RES1    0.0000
     11 H3         1.6285    2.4466    2.5328 H         1 RES1    0.0000
     12 H4         2.9798    2.4137    3.3900 H         1 RES1    0.0000
     13 H5         2.7847    3.5146    2.2446 H         1 RES1    0.0000
     14 O1         3.1862    3.1274    5.4847 O.2       1 RES1    0.0000
     15 N4         2.3703    5.0055    7.3437 N.pl3     1 RES1    0.0000
     16 O2         2.4358    4.0033    8.0497 O.2       1 RES1    0.0000
     17 O3         2.8134    6.0914    7.6884 O.2       1 RES1    0.0000
     18 N5         0.2924    6.8163    6.3666 N.3       1 RES1    0.0000
     19 C6         0.1119    6.6650    7.7717 C.ar      1 RES1    0.0000
     20 C7        -0.4386    5.5085    8.2842 C.ar      1 RES1    0.0000
     21 H6        -0.6706    4.7945    7.7025 H         1 RES1    0.0000
     22 C8        -0.6524    5.3869    9.6471 C.ar      1 RES1    0.0000
     23 H7        -1.0313    4.5887    9.9964 H         1 RES1    0.0000
     24 C9        -0.3208    6.4142   10.4957 C.ar      1 RES1    0.0000
     25 H8        -0.4606    6.3277   11.4310 H         1 RES1    0.0000
     26 C10        0.2173    7.5686    9.9782 C.ar      1 RES1    0.0000
     27 H9         0.4426    8.2835   10.5610 H         1 RES1    0.0000
     28 C11        0.4338    7.6981    8.6260 C.ar      1 RES1    0.0000
     29 H10        0.8062    8.5015    8.2800 H         1 RES1    0.0000
     30 C12       -0.3854    7.9273    5.7235 C.3       1 RES1    0.0000
     31 H11        0.2257    8.3614    5.0925 H         1 RES1    0.0000
     32 H12       -0.6680    8.5745    6.4028 H         1 RES1    0.0000
     33 H13       -1.1711    7.5954    5.2414 H         1 RES1    0.0000
@<TRIPOS>BOND
     1    1    2 2
     2    2    3 1
     3    3    4 1
     4    4    5 1
     5    5    6 2
     6    6    1 1
     7    7    2 1
     8    8    7 1
     9    9    7 1
    10   10    3 1
    11   11   10 1
    12   12   10 1
    13   13   10 1
    14   14    4 2
    15   15    5 1
    16   16   15 2
    17   17   15 2
    18   18    6 1
    19   19   18 1
    20   20   19 ar
    21   21   20 1
    22   22   20 ar
    23   23   22 1
    24   24   22 ar
    25   25   24 1
    26   26   24 ar
    27   27   26 1
    28   28   19 ar
    29   29   28 1
    30   30   18 1
    31   31   30 1
    32   32   30 1
    33   33   30 1
    34   26   28 ar
@<TRIPOS>SUBSTRUCTURE
     1 RES1 1

@<TRIPOS>CRYSIN
   9.1580   12.1780   11.1030  90.0000 105.2070  90.0000 231 1

