# MOL2 file generated by ConQuest
# Please check atom types

@<TRIPOS>MOLECULE
YUCTEW
    52    53     1
SMALL
NO_CHARGES
****
Generated from CSD

@<TRIPOS>ATOM
      1 C1        13.3561    5.5192    0.9161 C.2       1 RES1    0.0000
      2 C2        14.7844    5.7166    1.3093 C.3       1 RES1    0.0000
      3 H1        14.8242    6.1525    2.1970 H         1 RES1    0.0000
      4 H2        15.2255    6.3166    0.6558 H         1 RES1    0.0000
      5 C3        15.5302    4.4078    1.3645 C.3       1 RES1    0.0000
      6 H3        15.1136    3.8184    2.0410 H         1 RES1    0.0000
      7 H4        15.4724    3.9570    0.4858 H         1 RES1    0.0000
      8 O1        12.9030    4.4052    0.7224 O.2       1 RES1    0.0000
      9 C4        12.4992    6.7245    0.7601 C.ar      1 RES1    0.0000
     10 C5        11.1845    6.5674    0.3285 C.ar      1 RES1    0.0000
     11 H5        10.8519    5.6955    0.1535 H         1 RES1    0.0000
     12 C6        10.3662    7.6446    0.1535 C.ar      1 RES1    0.0000
     13 H6         9.4722    7.5183   -0.1433 H         1 RES1    0.0000
     14 C7        10.8392    8.9279    0.4081 C.ar      1 RES1    0.0000
     15 C8        12.1427    9.1139    0.8467 C.ar      1 RES1    0.0000
     16 H7        12.4680    9.9867    1.0351 H         1 RES1    0.0000
     17 C9        12.9617    8.0139    1.0064 C.ar      1 RES1    0.0000
     18 H8        13.8610    8.1394    1.2900 H         1 RES1    0.0000
     19 O2         9.9551    9.9333    0.1816 O.3       1 RES1    0.0000
     20 C10       10.3890   11.2647    0.4566 C.3       1 RES1    0.0000
     21 H9        10.6712   11.3305    1.3928 H         1 RES1    0.0000
     22 H10        9.6518   11.8893    0.2917 H         1 RES1    0.0000
     23 H11       11.1430   11.4893   -0.1268 H         1 RES1    0.0000
     24 N1        16.9229    4.6298    1.7050 N.pl3     1 RES1    0.0000
     25 H12       17.2564    5.2894    1.4029 H         1 RES1    0.0000
     26 C11       17.7691    3.5333    1.7986 C.ar      1 RES1    0.0000
     27 C12       19.1419    3.7236    2.1022 C.ar      1 RES1    0.0000
     28 C13       19.9730    2.6105    2.2301 C.ar      1 RES1    0.0000
     29 H13       20.8963    2.7377    2.4152 H         1 RES1    0.0000
     30 C14       19.4822    1.3324    2.0937 C.ar      1 RES1    0.0000
     31 H14       20.0568    0.5816    2.1856 H         1 RES1    0.0000
     32 C15       18.1470    1.1605    1.8223 C.ar      1 RES1    0.0000
     33 C16       17.2876    2.2447    1.6699 C.ar      1 RES1    0.0000
     34 H15       16.3671    2.0991    1.4778 H         1 RES1    0.0000
     35 N2        19.6281    4.9973    2.2348 N.3       1 RES1    0.0000
     36 H16       19.0766    5.6490    2.2642 H         1 RES1    0.0000
     37 C17       21.0069    5.2596    2.5534 C.3       1 RES1    0.0000
     38 H17       21.5893    4.7938    1.9040 H         1 RES1    0.0000
     39 H18       21.2109    4.9069    3.4566 H         1 RES1    0.0000
     40 C18       21.2922    6.7394    2.5166 C.3       1 RES1    0.0000
     41 H19       21.0909    7.1131    1.6211 H         1 RES1    0.0000
     42 H20       20.7501    7.2183    3.1915 H         1 RES1    0.0000
     43 O3        22.6923    6.8588    2.8138 O.3       1 RES1    0.0000
     44 C19       23.1489    8.1148    2.9842 C.2       1 RES1    0.0000
     45 O4        22.4550    9.0851    2.8999 O.2       1 RES1    0.0000
     46 C20       24.6109    8.1201    3.2727 C.3       1 RES1    0.0000
     47 H21       24.8595    8.9700    3.6925 H         1 RES1    0.0000
     48 H22       25.1092    8.0122    2.4355 H         1 RES1    0.0000
     49 H23       24.8260    7.3806    3.8790 H         1 RES1    0.0000
     50 N3        17.6083   -0.1632    1.6801 N.pl3     1 RES1    0.0000
     51 O5        18.3627   -1.1375    1.7901 O.2       1 RES1    0.0000
     52 O6        16.4113   -0.2948    1.4482 O.2       1 RES1    0.0000
@<TRIPOS>BOND
     1    1    2 1
     2    2    3 1
     3    4    2 1
     4    5    2 1
     5    6    5 1
     6    7    5 1
     7    8    1 2
     8    9    1 1
     9   10    9 ar
    10   11   10 1
    11   12   10 ar
    12   13   12 1
    13   14   12 ar
    14   15   14 ar
    15   16   15 1
    16   17    9 ar
    17   18   17 1
    18   19   14 1
    19   20   19 1
    20   21   20 1
    21   22   20 1
    22   23   20 1
    23   24    5 1
    24   25   24 1
    25   26   24 1
    26   27   26 ar
    27   28   27 ar
    28   29   28 1
    29   30   28 ar
    30   31   30 1
    31   32   30 ar
    32   33   26 ar
    33   34   33 1
    34   35   27 1
    35   36   35 1
    36   37   35 1
    37   38   37 1
    38   39   37 1
    39   40   37 1
    40   41   40 1
    41   42   40 1
    42   43   40 1
    43   44   43 1
    44   45   44 2
    45   46   44 1
    46   47   46 1
    47   48   46 1
    48   49   46 1
    49   50   32 1
    50   51   50 2
    51   52   50 2
    52   15   17 ar
    53   32   33 ar
@<TRIPOS>SUBSTRUCTURE
     1 RES1 1

@<TRIPOS>CRYSIN
  34.3729    8.7718   13.6662  90.0000 111.8470  90.0000  15 1

