# MOL2 file generated by ConQuest
# Please check atom types

@<TRIPOS>MOLECULE
YUCWUQ
    43    45     1
SMALL
NO_CHARGES
****
Generated from CSD

@<TRIPOS>ATOM
      1 O1         5.7366    6.0138    9.9047 O.3       1 RES1    0.0000
      2 O2         7.0567    4.8283   11.3043 O.2       1 RES1    0.0000
      3 O3         3.4963    4.1417   16.6310 O.2       1 RES1    0.0000
      4 O4         4.9133    5.5735   13.0404 O.2       1 RES1    0.0000
      5 O5         2.1284    5.2791   17.8585 O.2       1 RES1    0.0000
      6 N1         1.3176    4.6410   10.8800 N.pl3     1 RES1    0.0000
      7 H1         0.4657    4.7361   10.9574 H         1 RES1    0.0000
      8 N2         2.5546    4.9130   16.7655 N.pl3     1 RES1    0.0000
      9 C1         5.9843    5.2968   10.9874 C.2       1 RES1    0.0000
     10 C2         3.4975    4.6901   11.3198 C.2       1 RES1    0.0000
     11 C3         3.2990    4.1389    9.9955 C.2       1 RES1    0.0000
     12 C4         1.7560    5.4587   13.1598 C.ar      1 RES1    0.0000
     13 C5         2.2190    4.9567   11.8411 C.2       1 RES1    0.0000
     14 C6         4.3141    3.5380    9.0966 C.ar      1 RES1    0.0000
     15 C7         1.9490    4.1506    9.7697 C.2       1 RES1    0.0000
     16 H2         1.5289    3.8695    8.9889 H         1 RES1    0.0000
     17 C8         1.8896    5.4285   15.5511 C.ar      1 RES1    0.0000
     18 C9         2.3943    5.0276   14.3256 C.ar      1 RES1    0.0000
     19 H3         3.1453    4.4808   14.2796 H         1 RES1    0.0000
     20 C10        0.6347    6.2824   13.2781 C.ar      1 RES1    0.0000
     21 H4         0.1953    6.5674   12.5100 H         1 RES1    0.0000
     22 C11        4.7418    5.1724   11.8922 C.2       1 RES1    0.0000
     23 C12        5.3267    2.7304    9.6121 C.ar      1 RES1    0.0000
     24 H5         5.3658    2.5764   10.5283 H         1 RES1    0.0000
     25 C13        0.1628    6.6838   14.5224 C.ar      1 RES1    0.0000
     26 H6        -0.5783    7.2434   14.5773 H         1 RES1    0.0000
     27 C14        4.2636    3.7412    7.7057 C.ar      1 RES1    0.0000
     28 H7         3.5950    4.2712    7.3375 H         1 RES1    0.0000
     29 C15        0.7896    6.2555   15.6788 C.ar      1 RES1    0.0000
     30 H8         0.4807    6.5155   16.5169 H         1 RES1    0.0000
     31 C16        6.2775    2.1508    8.7828 C.ar      1 RES1    0.0000
     32 H9         6.9497    1.6189    9.1444 H         1 RES1    0.0000
     33 C17        6.8540    6.1954    8.9720 C.3       1 RES1    0.0000
     34 H10        7.1641    5.3358    8.6466 H         1 RES1    0.0000
     35 H11        7.5927    6.6426    9.4144 H         1 RES1    0.0000
     36 C18        5.2137    3.1499    6.8818 C.ar      1 RES1    0.0000
     37 H12        5.1694    3.2810    5.9633 H         1 RES1    0.0000
     38 C19        6.2229    2.3673    7.4110 C.ar      1 RES1    0.0000
     39 H13        6.8626    1.9891    6.8517 H         1 RES1    0.0000
     40 C20        6.3478    7.0312    7.8341 C.3       1 RES1    0.0000
     41 H14        7.0485    7.1496    7.1880 H         1 RES1    0.0000
     42 H15        6.0693    7.8877    8.1644 H         1 RES1    0.0000
     43 H16        5.6031    6.5895    7.4194 H         1 RES1    0.0000
@<TRIPOS>BOND
     1    1    9 1
     2    2    9 2
     3    3    8 2
     4    4   22 2
     5    5    8 2
     6    6    7 1
     7    8   17 1
     8    9   22 1
     9   10   11 1
    10   11   14 1
    11   12   13 1
    12   13    6 1
    13   14   23 ar
    14   15    6 1
    15   16   15 1
    16   17   18 ar
    17   18   12 ar
    18   19   18 1
    19   20   12 ar
    20   21   20 1
    21   22   10 1
    22   23   24 1
    23   25   20 ar
    24   26   25 1
    25   27   14 ar
    26   28   27 1
    27   29   17 ar
    28   30   29 1
    29   31   23 ar
    30   32   31 1
    31   33    1 1
    32   34   33 1
    33   35   33 1
    34   36   27 ar
    35   37   36 1
    36   38   31 ar
    37   39   38 1
    38   40   33 1
    39   41   40 1
    40   42   40 1
    41   43   40 1
    42   10   13 2
    43   11   15 2
    44   25   29 ar
    45   36   38 ar
@<TRIPOS>SUBSTRUCTURE
     1 RES1 1

@<TRIPOS>CRYSIN
   8.5223    8.7710   12.1780  95.2360  95.0480 101.8130   2 1

