# MOL2 file generated by ConQuest
# Please check atom types

@<TRIPOS>MOLECULE
YUDBAC
    42    45     1
SMALL
NO_CHARGES
****
Generated from CSD

@<TRIPOS>ATOM
      1 O1         8.4603    1.2046    0.9273 O.3       1 RES1    0.0000
      2 H1         8.1248    1.4728    1.6265 H         1 RES1    0.0000
      3 O2        12.5659    0.4033   -3.6230 O.3       1 RES1    0.0000
      4 C1        10.4803    0.4205   -0.0399 C.ar      1 RES1    0.0000
      5 O3        13.5576    1.7044   -1.6365 O.3       1 RES1    0.0000
      6 C2        11.8517    0.3233   -2.4574 C.ar      1 RES1    0.0000
      7 C3        11.6955    1.0903   -0.1794 C.ar      1 RES1    0.0000
      8 H2        12.0459    1.5664    0.5387 H         1 RES1    0.0000
      9 O4         9.5900   -2.4998    3.1834 O.2       1 RES1    0.0000
     10 C4        10.3176    0.8883    2.5167 C.ar      1 RES1    0.0000
     11 C5        12.3867    1.0523   -1.3819 C.ar      1 RES1    0.0000
     12 C6        10.6853   -0.3983   -2.2872 C.ar      1 RES1    0.0000
     13 H3        10.3589   -0.9171   -2.9868 H         1 RES1    0.0000
     14 C7         9.6233    0.4696    1.2180 C.3       1 RES1    0.0000
     15 N1         9.2662   -0.9342    1.5401 N.am      1 RES1    0.0000
     16 C8         9.9919   -0.3557   -1.0769 C.ar      1 RES1    0.0000
     17 C9        10.8835   -0.1093    4.6656 C.ar      1 RES1    0.0000
     18 H4        10.8584   -0.8420    5.2377 H         1 RES1    0.0000
     19 C10        8.7358   -1.1598   -0.8605 C.3       1 RES1    0.0000
     20 H5         8.6630   -1.8369   -1.5512 H         1 RES1    0.0000
     21 H6         7.9630   -0.5771   -0.9281 H         1 RES1    0.0000
     22 C11        9.6942   -1.3524    2.7402 C.2       1 RES1    0.0000
     23 C12       10.8970    2.0703    2.9507 C.ar      1 RES1    0.0000
     24 C13       10.3334   -0.1880    3.3965 C.ar      1 RES1    0.0000
     25 N2        10.9034    3.2912    2.1302 N.pl3     1 RES1    0.0000
     26 C14       11.4961    2.1481    4.2058 C.ar      1 RES1    0.0000
     27 H7        11.9186    2.9337    4.4679 H         1 RES1    0.0000
     28 C15       11.4667    1.0662    5.0631 C.ar      1 RES1    0.0000
     29 H8        11.8421    1.1347    5.9114 H         1 RES1    0.0000
     30 C16       14.1258    2.4612   -0.5753 C.3       1 RES1    0.0000
     31 H9        14.9322    2.8836   -0.8801 H         1 RES1    0.0000
     32 H10       14.3279    1.8795    0.1610 H         1 RES1    0.0000
     33 H11       13.5010    3.1328   -0.2908 H         1 RES1    0.0000
     34 C17       11.9808   -0.1621   -4.7722 C.3       1 RES1    0.0000
     35 H12       12.4915    0.0880   -5.5466 H         1 RES1    0.0000
     36 H13       11.0814    0.1584   -4.8638 H         1 RES1    0.0000
     37 H14       11.9736   -1.1181   -4.6899 H         1 RES1    0.0000
     38 C18        8.7450   -1.8323    0.5075 C.3       1 RES1    0.0000
     39 H15        7.8430   -2.1000    0.7399 H         1 RES1    0.0000
     40 H16        9.2939   -2.6307    0.4699 H         1 RES1    0.0000
     41 O5         9.9513    3.5682    1.4720 O.2       1 RES1    0.0000
     42 O6        11.9217    3.9406    2.1003 O.2       1 RES1    0.0000
@<TRIPOS>BOND
     1    1    2 1
     2    3    6 1
     3    4    7 ar
     4    5   11 1
     5    6   11 ar
     6    7    8 1
     7    9   22 2
     8   10   14 1
     9   11    7 ar
    10   12    6 ar
    11   13   12 1
    12   14    1 1
    13   15   14 1
    14   16    4 ar
    15   17   18 1
    16   19   16 1
    17   20   19 1
    18   21   19 1
    19   22   15 1
    20   23   10 ar
    21   24   10 ar
    22   25   23 1
    23   26   23 ar
    24   27   26 1
    25   28   17 ar
    26   29   28 1
    27   30    5 1
    28   31   30 1
    29   32   30 1
    30   33   30 1
    31   34    3 1
    32   35   34 1
    33   36   34 1
    34   37   34 1
    35   38   15 1
    36   39   38 1
    37   40   38 1
    38   41   25 2
    39   42   25 2
    40    4   14 1
    41   12   16 ar
    42   17   24 ar
    43   19   38 1
    44   22   24 1
    45   26   28 ar
@<TRIPOS>SUBSTRUCTURE
     1 RES1 1

@<TRIPOS>CRYSIN
  13.3576    9.2632   14.2940  90.0000 114.7540  90.0000 231 1

