# MOL2 file generated by ConQuest
# Please check atom types

@<TRIPOS>MOLECULE
YUDKIS
    41    43     1
SMALL
NO_CHARGES
****
Generated from CSD

@<TRIPOS>ATOM
      1 C1        -0.6460   12.1219    1.3205 C.ar      1 RES1    0.0000
      2 C2        -1.2592   10.9904    1.8531 C.ar      1 RES1    0.0000
      3 H1        -1.3607   10.9107    2.7943 H         1 RES1    0.0000
      4 C3        -1.7198    9.9873    1.0326 C.ar      1 RES1    0.0000
      5 H2        -2.1443    9.2269    1.4103 H         1 RES1    0.0000
      6 C4        -1.5705   10.0785   -0.3143 C.ar      1 RES1    0.0000
      7 H3        -1.8934    9.3887   -0.8824 H         1 RES1    0.0000
      8 C5        -0.9421   11.1856   -0.8453 C.ar      1 RES1    0.0000
      9 C6        -0.4656   12.2413   -0.0644 C.ar      1 RES1    0.0000
     10 C7         0.2785   13.4384   -0.5635 C.ar      1 RES1    0.0000
     11 C8        -0.2257   14.4492   -1.3654 C.ar      1 RES1    0.0000
     12 C9         0.5478   15.5126   -1.7896 C.ar      1 RES1    0.0000
     13 H4         0.1669   16.1933   -2.3330 H         1 RES1    0.0000
     14 C10        1.8339   15.5807   -1.4335 C.ar      1 RES1    0.0000
     15 H5         2.3750   16.2922   -1.7555 H         1 RES1    0.0000
     16 C11        2.3876   14.6187   -0.5976 C.ar      1 RES1    0.0000
     17 H6         3.2944   14.6919   -0.3236 H         1 RES1    0.0000
     18 C12        1.6183   13.5527   -0.1625 C.ar      1 RES1    0.0000
     19 C13        4.1141   12.5136    1.9320 C.3       1 RES1    0.0000
     20 H7         4.1778   11.5465    1.7849 H         1 RES1    0.0000
     21 H8         4.5184   12.7397    2.7959 H         1 RES1    0.0000
     22 H9         4.5881   12.9850    1.2153 H         1 RES1    0.0000
     23 C14        2.6585   12.9285    1.9320 C.3       1 RES1    0.0000
     24 H10        2.6015   13.9200    2.0466 H         1 RES1    0.0000
     25 C15        1.8297   12.2657    2.9878 C.3       1 RES1    0.0000
     26 H11        2.3590   12.2413    3.8238 H         1 RES1    0.0000
     27 H12        1.6720   11.3281    2.7107 H         1 RES1    0.0000
     28 C16        0.4815   12.8989    3.3005 C.3       1 RES1    0.0000
     29 H13       -0.0512   12.2503    3.8439 H         1 RES1    0.0000
     30 C17        0.5738   14.1692    4.0514 C.3       1 RES1    0.0000
     31 H14        1.0428   14.0150    4.8966 H         1 RES1    0.0000
     32 H15       -0.3280   14.5057    4.2340 H         1 RES1    0.0000
     33 H16        1.0671   14.8281    3.5188 H         1 RES1    0.0000
     34 N1        -0.7198   11.1702   -2.2803 N.pl3     1 RES1    0.0000
     35 N2        -1.6225   14.4543   -1.7726 N.pl3     1 RES1    0.0000
     36 O1         2.1166   12.5638    0.6166 O.3       1 RES1    0.0000
     37 O2        -0.2458   13.1751    2.0758 O.3       1 RES1    0.0000
     38 O3         0.2928   11.6467   -2.7215 O.2       1 RES1    0.0000
     39 O4        -1.4505   10.5305   -2.9801 O.2       1 RES1    0.0000
     40 O5        -1.9975   15.2429   -2.5698 O.2       1 RES1    0.0000
     41 O6        -2.3985   13.7980   -1.2044 O.2       1 RES1    0.0000
@<TRIPOS>BOND
     1    1    2 ar
     2    2    3 1
     3    4    2 ar
     4    5    4 1
     5    6    4 ar
     6    7    6 1
     7    8    6 ar
     8    9    1 ar
     9   10    9 1
    10   11   10 ar
    11   12   11 ar
    12   13   12 1
    13   14   12 ar
    14   15   14 1
    15   16   14 ar
    16   17   16 1
    17   18   10 ar
    18   19   20 1
    19   21   19 1
    20   22   19 1
    21   23   19 1
    22   24   23 1
    23   25   23 1
    24   26   25 1
    25   27   25 1
    26   28   25 1
    27   29   28 1
    28   30   28 1
    29   31   30 1
    30   32   30 1
    31   33   30 1
    32   34    8 1
    33   35   11 1
    34   36   18 1
    35   37    1 1
    36   38   34 2
    37   39   34 2
    38   40   35 2
    39   41   35 2
    40    8    9 ar
    41   16   18 ar
    42   23   36 1
    43   28   37 1
@<TRIPOS>SUBSTRUCTURE
     1 RES1 1

@<TRIPOS>CRYSIN
   8.3892   12.8437   15.4809  90.0000  90.0000  90.0000  19 1

