# MOL2 file generated by ConQuest
# Please check atom types

@<TRIPOS>MOLECULE
YUDLOY
    31    32     1
SMALL
NO_CHARGES
****
Generated from CSD

@<TRIPOS>ATOM
      1 O1        -0.0338    8.8998    5.6457 O.3       1 RES1    0.0000
      2 N1         0.5900    9.4873    6.8222 N.3       1 RES1    0.0000
      3 C1         0.1878    8.6243    7.9558 C.3       1 RES1    0.0000
      4 C2         0.5483    9.2440    9.2721 C.ar      1 RES1    0.0000
      5 C3        -0.2189   10.2878    9.7800 C.ar      1 RES1    0.0000
      6 C4         0.1080   10.8742   10.9847 C.ar      1 RES1    0.0000
      7 C5         1.2045   10.4344   11.6987 C.ar      1 RES1    0.0000
      8 C6         1.9636    9.4020   11.2117 C.ar      1 RES1    0.0000
      9 C7         1.6384    8.8042   10.0082 C.ar      1 RES1    0.0000
     10 C8         2.0389    9.3895    6.5805 C.3       1 RES1    0.0000
     11 C9         2.4731   10.2234    5.4077 C.ar      1 RES1    0.0000
     12 C10        2.9839    9.6318    4.2643 C.ar      1 RES1    0.0000
     13 C11        3.3559   10.3970    3.1823 C.ar      1 RES1    0.0000
     14 C12        3.2112   11.7559    3.2019 C.ar      1 RES1    0.0000
     15 C13        2.7195   12.3589    4.3281 C.ar      1 RES1    0.0000
     16 C14        2.3641   11.6010    5.4347 C.ar      1 RES1    0.0000
     17 H1        -0.6275    9.5340    5.5083 H         1 RES1    0.0000
     18 H2        -0.8160    8.5567    7.9251 H         1 RES1    0.0000
     19 H3         0.6137    7.7458    7.8270 H         1 RES1    0.0000
     20 H4        -1.0224   10.5426    9.3114 H         1 RES1    0.0000
     21 H5        -0.4912   11.6031   11.3356 H         1 RES1    0.0000
     22 H6         1.3699   10.8337   12.5501 H         1 RES1    0.0000
     23 H7         2.6989    9.1390   11.7527 H         1 RES1    0.0000
     24 H8         2.1655    8.0369    9.6426 H         1 RES1    0.0000
     25 H9         2.2995    8.4216    6.4161 H         1 RES1    0.0000
     26 H10        2.4989    9.6796    7.3853 H         1 RES1    0.0000
     27 H11        3.0504    8.6295    4.2815 H         1 RES1    0.0000
     28 H12        3.7048    9.9395    2.4168 H         1 RES1    0.0000
     29 H13        3.4685   12.3308    2.4659 H         1 RES1    0.0000
     30 H14        2.5747   13.2978    4.4165 H         1 RES1    0.0000
     31 H15        2.0657   11.9877    6.2076 H         1 RES1    0.0000
@<TRIPOS>BOND
     1    1    2 1
     2    2    3 1
     3    3    4 1
     4    4    5 ar
     5    5    6 ar
     6    6    7 ar
     7    7    8 ar
     8    8    9 ar
     9    9    4 ar
    10   10    2 1
    11   11   10 1
    12   12   11 ar
    13   13   12 ar
    14   14   13 ar
    15   15   14 ar
    16   16   11 ar
    17   17    1 1
    18   18    3 1
    19   19    3 1
    20   20    5 1
    21   21    6 1
    22   22    7 1
    23   23    8 1
    24   24    9 1
    25   25   10 1
    26   26   10 1
    27   27   12 1
    28   28   13 1
    29   29   14 1
    30   30   15 1
    31   31   16 1
    32   15   16 ar
@<TRIPOS>SUBSTRUCTURE
     1 RES1 1

@<TRIPOS>CRYSIN
   9.2920   10.3970   12.3090  90.0000  94.6800  90.0000 231 1

