# MOL2 file generated by ConQuest
# Please check atom types

@<TRIPOS>MOLECULE
YUFRUO
    22    21     1
SMALL
NO_CHARGES
****
Generated from CSD

@<TRIPOS>ATOM
      1 H1         5.3174    5.1617    2.4891 H         1 RES1    0.0000
      2 H2         5.3236    4.5736    3.9451 H         1 RES1    0.0000
      3 H3         4.0029    5.2368    3.2935 H         1 RES1    0.0000
      4 H4         3.9571    4.0293    0.6797 H         1 RES1    0.0000
      5 H5         3.3591    2.6153    0.9300 H         1 RES1    0.0000
      6 H6         0.1956    4.7550    2.2707 H         1 RES1    0.0000
      7 C1         4.7985    4.7037    3.1382 C.3       1 RES1    0.0000
      8 C2         4.3962    3.3829    2.5502 C.3       1 RES1    0.0000
      9 C3         3.5415    3.4693    1.2996 C.3       1 RES1    0.0000
     10 C4         1.4129    4.2889    0.8042 C.2       1 RES1    0.0000
     11 N1         5.6545    2.5944    2.2249 N.pl3     1 RES1    0.0000
     12 N2         3.6488    2.5038    3.5596 N.pl3     1 RES1    0.0000
     13 N3         0.2611    4.7031    1.4393 N.am      1 RES1    0.0000
     14 N4        -0.9029    5.0431    0.7765 N.pl3     1 RES1    0.0000
     15 O1         6.0500    2.6358    1.0830 O.2       1 RES1    0.0000
     16 O2         6.2064    2.0290    3.1448 O.2       1 RES1    0.0000
     17 O3         3.3549    1.3892    3.1766 O.2       1 RES1    0.0000
     18 O4         3.3770    2.9762    4.6447 O.2       1 RES1    0.0000
     19 O5         2.3119    4.0547    1.7662 O.3       1 RES1    0.0000
     20 O6         1.6003    4.1499   -0.3662 O.2       1 RES1    0.0000
     21 O7        -0.9190    5.0297   -0.4333 O.2       1 RES1    0.0000
     22 O8        -1.8182    5.3356    1.5057 O.2       1 RES1    0.0000
@<TRIPOS>BOND
     1    1    7 1
     2    2    7 1
     3    3    7 1
     4    4    9 1
     5    5    9 1
     6    6   13 1
     7    7    8 1
     8    8    9 1
     9    9   19 1
    10   10   13 1
    11   11    8 1
    12   12    8 1
    13   13   14 1
    14   14   21 2
    15   15   11 2
    16   16   11 2
    17   17   12 2
    18   18   12 2
    19   19   10 1
    20   20   10 2
    21   22   14 2
@<TRIPOS>SUBSTRUCTURE
     1 RES1 1

@<TRIPOS>CRYSIN
  15.4551    6.2566    9.7445  90.0000 105.8240  90.0000  14 1

