# MOL2 file generated by ConQuest
# Please check atom types

@<TRIPOS>MOLECULE
YUFSOJ
    42    42     1
SMALL
NO_CHARGES
****
Generated from CSD

@<TRIPOS>ATOM
      1 O1        -2.5974    9.1269   12.9553 O.2       1 RES1    0.0000
      2 N1        -1.4239    9.3515   13.2360 N.pl3     1 RES1    0.0000
      3 O2         5.8720    4.3736    9.6268 O.2       1 RES1    0.0000
      4 O3        -1.0634   10.2546   13.9795 O.2       1 RES1    0.0000
      5 O4         3.7484    6.0248   11.5255 O.2       1 RES1    0.0000
      6 O5         4.9526    4.5909    6.6069 O.2       1 RES1    0.0000
      7 O6         2.6276    7.7757    8.7988 O.3       1 RES1    0.0000
      8 C1         0.1841    6.5883   11.3320 C.ar      1 RES1    0.0000
      9 H1        -0.0621    5.8592   10.7763 H         1 RES1    0.0000
     10 O7         5.7608    6.6743    6.8780 O.3       1 RES1    0.0000
     11 C2         2.3233    4.9716    9.9515 C.3       1 RES1    0.0000
     12 H2         1.5983    5.3347    9.3826 H         1 RES1    0.0000
     13 H3         2.0113    4.1132   10.3331 H         1 RES1    0.0000
     14 C3         2.6166    5.9485   11.0802 C.2       1 RES1    0.0000
     15 O8         2.3639    6.6795    6.8478 O.2       1 RES1    0.0000
     16 C4         1.8968    7.8976   12.4241 C.ar      1 RES1    0.0000
     17 H4         2.8142    8.0515   12.6167 H         1 RES1    0.0000
     18 C5        -0.3936    8.4787   12.6531 C.ar      1 RES1    0.0000
     19 C6         0.9316    8.7421   12.9476 C.ar      1 RES1    0.0000
     20 H5         1.1725    9.4808   13.4940 H         1 RES1    0.0000
     21 C7         1.5287    6.8220   11.6143 C.ar      1 RES1    0.0000
     22 C8        -0.7946    7.4164   11.8603 C.ar      1 RES1    0.0000
     23 H6        -1.7150    7.2592   11.6840 H         1 RES1    0.0000
     24 C9         2.9451    6.8421    7.8861 C.2       1 RES1    0.0000
     25 C10        4.7177    4.0424    9.8312 C.2       1 RES1    0.0000
     26 C11        3.5714    4.7209    9.0868 C.3       1 RES1    0.0000
     27 H7         3.2930    4.0924    8.3605 H         1 RES1    0.0000
     28 C12        4.9758    5.6368    7.1960 C.2       1 RES1    0.0000
     29 C13        4.3690    2.8894   10.7345 C.3       1 RES1    0.0000
     30 H8         5.1846    2.3989   10.9675 H         1 RES1    0.0000
     31 H9         3.7472    2.2889   10.2724 H         1 RES1    0.0000
     32 H10        3.9485    3.2304   11.5517 H         1 RES1    0.0000
     33 C14        4.0996    5.9914    8.3889 C.3       1 RES1    0.0000
     34 H11        4.6369    6.5243    9.0431 H         1 RES1    0.0000
     35 C15        6.5733    6.4962    5.6856 C.3       1 RES1    0.0000
     36 H12        5.9897    6.3752    4.9084 H         1 RES1    0.0000
     37 H13        7.1428    5.7051    5.7928 H         1 RES1    0.0000
     38 H14        7.1353    7.2873    5.5516 H         1 RES1    0.0000
     39 C16        1.4269    8.5451    8.5251 C.3       1 RES1    0.0000
     40 H15        1.5466    9.0541    7.6958 H         1 RES1    0.0000
     41 H16        1.2593    9.1642    9.2664 H         1 RES1    0.0000
     42 H17        0.6644    7.9366    8.4284 H         1 RES1    0.0000
@<TRIPOS>BOND
     1    1    2 2
     2    2    4 2
     3    3   25 2
     4    5   14 2
     5    6   28 2
     6    7   24 1
     7    8    9 1
     8   10   28 1
     9   11   12 1
    10   13   11 1
    11   14   11 1
    12   15   24 2
    13   16   17 1
    14   18    2 1
    15   19   16 ar
    16   20   19 1
    17   21    8 ar
    18   22    8 ar
    19   23   22 1
    20   24   33 1
    21   25   26 1
    22   26   11 1
    23   27   26 1
    24   28   33 1
    25   29   25 1
    26   30   29 1
    27   31   29 1
    28   32   29 1
    29   33   26 1
    30   34   33 1
    31   35   10 1
    32   36   35 1
    33   37   35 1
    34   38   35 1
    35   39    7 1
    36   40   39 1
    37   41   39 1
    38   42   39 1
    39   14   21 1
    40   16   21 ar
    41   18   19 ar
    42   18   22 ar
@<TRIPOS>SUBSTRUCTURE
     1 RES1 1

@<TRIPOS>CRYSIN
   7.4825   12.2270   17.8681  90.0000  90.0000  90.0000  19 1

