# MOL2 file generated by ConQuest
# Please check atom types

@<TRIPOS>MOLECULE
YUFSAV
    54    52     2
SMALL
NO_CHARGES
****
Generated from CSD

@<TRIPOS>ATOM
      1 O1        -0.2545    6.4116    4.2815 O.2       1 RES1    0.0000
      2 O2        -0.5750    4.9769    2.6016 O.2       1 RES1    0.0000
      3 O3        -1.2502    7.7663    1.5114 O.2       1 RES1    0.0000
      4 O4         0.3659    9.0929    1.8740 O.2       1 RES1    0.0000
      5 O5         1.6924    5.1033    1.0800 O.2       1 RES1    0.0000
      6 O6         0.7746    6.5704   -0.0230 O.2       1 RES1    0.0000
      7 O7         3.9486    9.0518    3.9195 O.3       1 RES1    0.0000
      8 O8         6.0763    9.1955    4.6203 O.2       1 RES1    0.0000
      9 O9         6.2391   11.0882    6.5581 O.2       1 RES1    0.0000
     10 O10        4.3068   11.7310    7.2745 O.2       1 RES1    0.0000
     11 N1        -0.1491    6.0540    3.1812 N.pl3     1 RES1    0.0000
     12 N2        -0.0994    8.0007    1.8357 N.pl3     1 RES1    0.0000
     13 N3         1.0368    6.0313    1.0289 N.pl3     1 RES1    0.0000
     14 N4         4.3710   10.5480    5.4432 N.am      1 RES1    0.0000
     15 N5         5.0360   11.1368    6.4884 N.pl3     1 RES1    0.0000
     16 C1         0.7678    6.8199    2.2799 C.3       1 RES1    0.0000
     17 C2         2.0386    7.1916    2.9917 C.3       1 RES1    0.0000
     18 H1         2.4139    6.3770    3.4109 H         1 RES1    0.0000
     19 H2         1.8183    7.8268    3.7173 H         1 RES1    0.0000
     20 C3         3.1054    7.8149    2.1142 C.3       1 RES1    0.0000
     21 H3         3.3325    7.1916    1.3787 H         1 RES1    0.0000
     22 H4         2.7541    8.6478    1.7106 H         1 RES1    0.0000
     23 C4         4.3393    8.1260    2.9034 C.3       1 RES1    0.0000
     24 H5         4.7061    7.3007    3.3114 H         1 RES1    0.0000
     25 H6         5.0317    8.5246    2.3182 H         1 RES1    0.0000
     26 C5         4.9272    9.5434    4.6712 C.2       1 RES1    0.0000
     27 H7         3.3848   10.6518    5.5402 H         1 RES1    0.0000
     28 O11        3.1491    1.8948    1.2485 O.2       2 RES2    0.0000
     29 O12        4.3642    0.4948    2.2687 O.2       2 RES2    0.0000
     30 O13        2.7395    3.5942    3.3854 O.2       2 RES2    0.0000
     31 O14        4.1320    2.9751    4.8805 O.2       2 RES2    0.0000
     32 O15        4.8912    4.9661    2.1752 O.2       2 RES2    0.0000
     33 O16        5.0771    3.5726    0.5489 O.2       2 RES2    0.0000
     34 O17        8.1997    0.5110    3.8008 O.3       2 RES2    0.0000
     35 O18       10.3308    0.5067    4.5476 O.2       2 RES2    0.0000
     36 O19        8.6178   -2.2557    7.0512 O.2       2 RES2    0.0000
     37 O20       10.4885   -1.3374    6.5398 O.2       2 RES2    0.0000
     38 N6         3.8278    3.1793    3.7502 N.pl3     2 RES2    0.0000
     39 N7         4.0446    1.6075    1.9799 N.pl3     2 RES2    0.0000
     40 N8         4.9315    3.8858    1.6799 N.pl3     2 RES2    0.0000
     41 N9         8.6795   -0.9150    5.3350 N.am      2 RES2    0.0000
     42 N10        9.3205   -1.5178    6.3894 N.pl3     2 RES2    0.0000
     43 C6         4.8012    2.7245    2.6647 C.3       2 RES2    0.0000
     44 C7         6.1560    2.3572    3.2172 C.3       2 RES2    0.0000
     45 H8         6.0369    1.6345    3.8833 H         2 RES2    0.0000
     46 H9         6.5227    3.1437    3.6943 H         2 RES2    0.0000
     47 C8         7.1851    1.8970    2.1778 C.3       2 RES2    0.0000
     48 H10        6.8432    1.0954    1.7080 H         2 RES2    0.0000
     49 H11        7.3188    2.6122    1.5063 H         2 RES2    0.0000
     50 C9         8.4996    1.5718    2.8316 C.3       2 RES2    0.0000
     51 H12        9.1551    1.2575    2.1599 H         2 RES2    0.0000
     52 H13        8.8689    2.3691    3.2884 H         2 RES2    0.0000
     53 C10        9.2005    0.1091    4.5688 C.2       2 RES2    0.0000
     54 H14        7.9692   -0.8534    5.1828 H         2 RES2    0.0000
@<TRIPOS>BOND
     1    1   11 2
     2    2   11 2
     3    3   12 2
     4    4   12 2
     5    5   13 2
     6    6   13 2
     7    7   23 1
     8    8   26 2
     9    9   15 2
    10   10   15 2
    11   11   16 1
    12   12   16 1
    13   13   16 1
    14   14   15 1
    15   16   17 1
    16   17   18 1
    17   19   17 1
    18   20   17 1
    19   21   20 1
    20   22   20 1
    21   23   20 1
    22   24   23 1
    23   25   23 1
    24   26    7 1
    25   27   14 1
    26   28   39 2
    27   29   39 2
    28   30   38 2
    29   31   38 2
    30   32   40 2
    31   33   40 2
    32   34   50 1
    33   35   53 2
    34   36   42 2
    35   37   42 2
    36   38   43 1
    37   39   43 1
    38   40   43 1
    39   41   42 1
    40   43   44 1
    41   44   45 1
    42   46   44 1
    43   47   44 1
    44   48   47 1
    45   49   47 1
    46   50   47 1
    47   51   50 1
    48   52   50 1
    49   53   34 1
    50   54   41 1
    51   14   26 1
    52   41   53 1
@<TRIPOS>SUBSTRUCTURE
     1 RES1 1
     2 RES2 28

@<TRIPOS>CRYSIN
   8.5690   10.8030   25.5310  90.0000  90.0000  90.0000  19 1

