# MOL2 file generated by ConQuest
# Please check atom types

@<TRIPOS>MOLECULE
YUGBEH
    37    38     1
SMALL
NO_CHARGES
****
Generated from CSD

@<TRIPOS>ATOM
      1 O1         7.2482    3.1584   11.8470 O.3       1 RES1    0.0000
      2 C1         9.4652    0.8194    9.2341 C.2       1 RES1    0.0000
      3 N1         9.0082    1.7983    9.8845 N.2       1 RES1    0.0000
      4 C2         7.5883    2.1365    9.6806 C.3       1 RES1    0.0000
      5 C3         6.8731    2.0620   11.0360 C.3       1 RES1    0.0000
      6 C4        10.8395    0.3158    9.3690 C.ar      1 RES1    0.0000
      7 C5        11.8356    1.0413   10.0018 C.ar      1 RES1    0.0000
      8 C6        13.0938    0.5231   10.1688 C.ar      1 RES1    0.0000
      9 C7        13.3515   -0.7437    9.6886 C.ar      1 RES1    0.0000
     10 C8        12.4000   -1.4813    9.0462 C.ar      1 RES1    0.0000
     11 C9        11.1477   -0.9492    8.8728 C.ar      1 RES1    0.0000
     12 N2        14.6959   -1.3098    9.8636 N.pl3     1 RES1    0.0000
     13 O2        15.5358   -0.6510   10.4337 O.2       1 RES1    0.0000
     14 O3        14.9109   -2.4341    9.4333 O.2       1 RES1    0.0000
     15 C10        7.4775    3.5093    9.0478 C.3       1 RES1    0.0000
     16 C11        5.3727    2.0056   10.8673 C.ar      1 RES1    0.0000
     17 C12        4.5610    3.0917   11.1837 C.ar      1 RES1    0.0000
     18 C13        3.1830    2.9917   11.0376 C.ar      1 RES1    0.0000
     19 C14        2.6156    1.8292   10.6152 C.ar      1 RES1    0.0000
     20 C15        3.3996    0.7546   10.3149 C.ar      1 RES1    0.0000
     21 C16        4.7612    0.8467   10.4386 C.ar      1 RES1    0.0000
     22 H1         8.9413    0.3334    8.6399 H         1 RES1    0.0000
     23 H2         7.1339    1.4668    9.0735 H         1 RES1    0.0000
     24 H3         7.1688    1.2425   11.4182 H         1 RES1    0.0000
     25 H4        11.6734    1.8910   10.2940 H         1 RES1    0.0000
     26 H5        13.8050    1.0122   10.5992 H         1 RES1    0.0000
     27 H6        12.6109   -2.3274    8.7042 H         1 RES1    0.0000
     28 H7        10.4490   -1.4001    8.3990 H         1 RES1    0.0000
     29 H8         6.5054    3.7457    8.8969 H         1 RES1    0.0000
     30 H9         7.9408    4.1821    9.6838 H         1 RES1    0.0000
     31 H10        7.8860    3.4730    8.1260 H         1 RES1    0.0000
     32 H11        4.9789    3.8124   11.4503 H         1 RES1    0.0000
     33 H12        2.6911    3.7578   11.3058 H         1 RES1    0.0000
     34 H13        1.6614    1.7274   10.5349 H         1 RES1    0.0000
     35 H14        2.9605   -0.0970   10.0692 H         1 RES1    0.0000
     36 H15        5.2716    0.0727   10.2459 H         1 RES1    0.0000
     37 H16        7.8101    2.7578   12.5102 H         1 RES1    0.0000
@<TRIPOS>BOND
     1    1    5 1
     2    2    3 2
     3    3    4 1
     4    4    5 1
     5    5   16 1
     6    6    2 1
     7    7    6 ar
     8    8    7 ar
     9    9    8 ar
    10   10    9 ar
    11   11    6 ar
    12   12    9 1
    13   13   12 2
    14   14   12 2
    15   15    4 1
    16   16   17 ar
    17   17   18 ar
    18   18   19 ar
    19   19   20 ar
    20   20   21 ar
    21   21   16 ar
    22   22    2 1
    23   23    4 1
    24   24    5 1
    25   25    7 1
    26   26    8 1
    27   27   10 1
    28   28   11 1
    29   29   15 1
    30   30   15 1
    31   31   15 1
    32   32   17 1
    33   33   18 1
    34   34   19 1
    35   35   20 1
    36   36   21 1
    37   37    1 1
    38   10   11 ar
@<TRIPOS>SUBSTRUCTURE
     1 RES1 1

@<TRIPOS>CRYSIN
  15.1590    6.0610   16.4360  90.0000 102.2900  90.0000 231 1

