# MOL2 file generated by ConQuest
# Please check atom types

@<TRIPOS>MOLECULE
YUGDUB
    47    47     1
SMALL
NO_CHARGES
****
Generated from CSD

@<TRIPOS>ATOM
      1 C1         8.3173    0.0818    3.9189 C.ar      1 RES1    0.0000
      2 H1         8.5364   -0.6198    4.5212 H         1 RES1    0.0000
      3 C2         7.1531    0.8009    4.0701 C.ar      1 RES1    0.0000
      4 C3         6.7997    1.8402    3.2366 C.ar      1 RES1    0.0000
      5 H2         6.0008    2.3362    3.3703 H         1 RES1    0.0000
      6 C4         7.6553    2.1227    2.2069 C.ar      1 RES1    0.0000
      7 C5         8.8229    1.4323    2.0019 C.ar      1 RES1    0.0000
      8 H3         9.3927    1.6553    1.2734 H         1 RES1    0.0000
      9 C6         9.1643    0.4036    2.8704 C.ar      1 RES1    0.0000
     10 C7        10.4796   -0.2576    2.6992 C.2       1 RES1    0.0000
     11 C8        12.2003   -1.4057    3.9376 C.3       1 RES1    0.0000
     12 H4        12.8188   -0.7308    3.5365 H         1 RES1    0.0000
     13 C9        12.3914   -2.7382    3.2766 C.3       1 RES1    0.0000
     14 H5        11.7918   -3.3951    3.6865 H         1 RES1    0.0000
     15 H6        13.3198   -3.0292    3.3915 H         1 RES1    0.0000
     16 H7        12.1882   -2.6607    2.3218 H         1 RES1    0.0000
     17 C10       12.3943   -1.4636    5.4447 C.3       1 RES1    0.0000
     18 H8        13.3211   -1.7520    5.6384 H         1 RES1    0.0000
     19 H9        11.7828   -2.1439    5.8209 H         1 RES1    0.0000
     20 C11       12.1387   -0.1360    6.1345 C.3       1 RES1    0.0000
     21 H10       11.2567    0.2066    5.8459 H         1 RES1    0.0000
     22 H11       12.8252    0.5130    5.8371 H         1 RES1    0.0000
     23 C12       12.1603   -0.2050    7.6541 C.3       1 RES1    0.0000
     24 H12       11.5807   -0.9628    7.9540 H         1 RES1    0.0000
     25 C13       11.6637    1.0722    8.2827 C.3       1 RES1    0.0000
     26 H13       12.2048    1.8237    7.9340 H         1 RES1    0.0000
     27 H14       10.7276    1.2204    7.9927 H         1 RES1    0.0000
     28 C14       11.7066    1.1131    9.7860 C.3       1 RES1    0.0000
     29 H15       11.2263    0.3245   10.1421 H         1 RES1    0.0000
     30 H16       12.6500    1.0510   10.0822 H         1 RES1    0.0000
     31 C15       11.0969    2.3564   10.3658 C.2       1 RES1    0.0000
     32 C16       11.3448    2.6054   11.8242 C.3       1 RES1    0.0000
     33 H17       12.2586    2.9416   11.9479 H         1 RES1    0.0000
     34 H18       11.2345    1.7685   12.3215 H         1 RES1    0.0000
     35 H19       10.7051    3.2693   12.1553 H         1 RES1    0.0000
     36 N1         6.2595    0.4668    5.1798 N.pl3     1 RES1    0.0000
     37 N2         7.3157    3.2231    1.3021 N.pl3     1 RES1    0.0000
     38 N3        13.5709   -0.4578    8.1052 N.pl3     1 RES1    0.0000
     39 O1         6.3602   -0.6506    5.6709 O.2       1 RES1    0.0000
     40 O2         5.4644    1.3101    5.5569 O.2       1 RES1    0.0000
     41 O3         6.1812    3.6485    1.3271 O.2       1 RES1    0.0000
     42 O4         8.1901    3.6532    0.5621 O.2       1 RES1    0.0000
     43 O5        14.4035    0.3951    7.9153 O.2       1 RES1    0.0000
     44 O6        13.8049   -1.5109    8.6613 O.2       1 RES1    0.0000
     45 O7        10.4526    3.1147    9.6896 O.2       1 RES1    0.0000
     46 O8        11.1910   -0.1163    1.7274 O.2       1 RES1    0.0000
     47 O9        10.8031   -0.9687    3.7812 O.3       1 RES1    0.0000
@<TRIPOS>BOND
     1    1    2 1
     2    3    1 ar
     3    4    3 ar
     4    5    4 1
     5    6    4 ar
     6    7    6 ar
     7    8    7 1
     8    9    1 ar
     9   10    9 1
    10   11   12 1
    11   13   11 1
    12   14   13 1
    13   15   13 1
    14   16   13 1
    15   17   11 1
    16   18   17 1
    17   19   17 1
    18   20   17 1
    19   21   20 1
    20   22   20 1
    21   23   20 1
    22   24   23 1
    23   25   23 1
    24   26   25 1
    25   27   25 1
    26   28   25 1
    27   29   28 1
    28   30   28 1
    29   31   28 1
    30   32   31 1
    31   33   32 1
    32   34   32 1
    33   35   32 1
    34   36    3 1
    35   37    6 1
    36   38   23 1
    37   39   36 2
    38   40   36 2
    39   41   37 2
    40   42   37 2
    41   43   38 2
    42   44   38 2
    43   45   31 2
    44   46   10 2
    45   47   10 1
    46    7    9 ar
    47   11   47 1
@<TRIPOS>SUBSTRUCTURE
     1 RES1 1

@<TRIPOS>CRYSIN
  29.7050    5.3107   12.4977  90.0000  90.8010  90.0000   5 1

