# MOL2 file generated by ConQuest
# Please check atom types

@<TRIPOS>MOLECULE
YUGFAJ
    25    24     1
SMALL
NO_CHARGES
****
Generated from CSD

@<TRIPOS>ATOM
      1 C1         0.8126    2.8335    1.7169 C.2       1 RES1    0.0000
      2 C2         2.6180    2.4670    0.2360 C.3       1 RES1    0.0000
      3 C3         3.9402    3.2030    0.4120 C.3       1 RES1    0.0000
      4 C4         5.0445    2.4296   -0.2783 C.3       1 RES1    0.0000
      5 C5         6.9437    2.8648   -1.5648 C.2       1 RES1    0.0000
      6 N1        -0.0592    3.7449    2.1221 N.am      1 RES1    0.0000
      7 N2         4.2632    3.4583    1.8806 N.pl3     1 RES1    0.0000
      8 N3         3.8353    4.5927   -0.2121 N.pl3     1 RES1    0.0000
      9 N4         7.8546    3.7655   -1.9086 N.am      1 RES1    0.0000
     10 O1         0.9679    1.7190    2.1780 O.2       1 RES1    0.0000
     11 O2         1.5175    3.2706    0.6276 O.3       1 RES1    0.0000
     12 O3         3.3612    3.8732    2.5839 O.2       1 RES1    0.0000
     13 O4         5.4000    3.2418    2.2531 O.2       1 RES1    0.0000
     14 O5         3.4021    4.6189   -1.3411 O.2       1 RES1    0.0000
     15 O6         4.2175    5.5578    0.4229 O.2       1 RES1    0.0000
     16 O7         6.1210    3.3221   -0.5791 O.3       1 RES1    0.0000
     17 O8         6.8312    1.7382   -2.0171 O.2       1 RES1    0.0000
     18 H1        -0.4597    3.5617    2.9263 H         1 RES1    0.0000
     19 H2         0.0461    4.5620    1.8008 H         1 RES1    0.0000
     20 H3         2.6462    1.6453    0.7435 H         1 RES1    0.0000
     21 H4         2.5125    2.2903   -0.7094 H         1 RES1    0.0000
     22 H5         5.3002    1.7201    0.2933 H         1 RES1    0.0000
     23 H6         4.6944    2.0753   -1.0778 H         1 RES1    0.0000
     24 H7         7.7388    4.5526   -1.6712 H         1 RES1    0.0000
     25 H8         8.3539    3.6365   -2.6126 H         1 RES1    0.0000
@<TRIPOS>BOND
     1    1    6 1
     2    2    3 1
     3    3    4 1
     4    4   16 1
     5    5    9 1
     6    6   18 1
     7    7    3 1
     8    8    3 1
     9    9   24 1
    10   10    1 2
    11   11    1 1
    12   12    7 2
    13   13    7 2
    14   14    8 2
    15   15    8 2
    16   16    5 1
    17   17    5 2
    18   19    6 1
    19   20    2 1
    20   21    2 1
    21   22    4 1
    22   23    4 1
    23   25    9 1
    24    2   11 1
@<TRIPOS>SUBSTRUCTURE
     1 RES1 1

@<TRIPOS>CRYSIN
  15.3762    9.3483    6.8213  90.0000  90.0000  90.0000  33 1

