# MOL2 file generated by ConQuest
# Please check atom types

@<TRIPOS>MOLECULE
YUGKUI
    94   100     2
SMALL
NO_CHARGES
****
Generated from CSD

@<TRIPOS>ATOM
      1 C1         0.8848    2.1281   -1.0339 C.ar      1 RES1    0.0000
      2 H1         1.2051    2.1370   -1.9078 H         1 RES1    0.0000
      3 C2         1.7642    2.4368    0.0070 C.ar      1 RES1    0.0000
      4 H2         2.6589    2.6381   -0.1507 H         1 RES1    0.0000
      5 C3         1.2344    2.4293    1.2912 C.ar      1 RES1    0.0000
      6 C4         1.9173    2.7171    2.5823 C.2       1 RES1    0.0000
      7 C5         0.8990    2.4994    3.7029 C.3       1 RES1    0.0000
      8 C6         0.7632    3.7655    4.5775 C.3       1 RES1    0.0000
      9 H3         1.6394    3.9236    4.9862 H         1 RES1    0.0000
     10 C7         1.4364    5.8891    3.4215 C.ar      1 RES1    0.0000
     11 H4         2.3038    5.7251    3.7136 H         1 RES1    0.0000
     12 C8         1.1823    7.0195    2.6241 C.ar      1 RES1    0.0000
     13 H5         1.8772    7.5937    2.3946 H         1 RES1    0.0000
     14 C9        -0.0879    7.2686    2.1855 C.ar      1 RES1    0.0000
     15 C10        0.5580    9.1282    0.8994 C.3       1 RES1    0.0000
     16 H6         0.5331    9.9604    1.3793 H         1 RES1    0.0000
     17 H7         0.4321    9.2953   -0.0371 H         1 RES1    0.0000
     18 H8         1.4081    8.7047    1.0385 H         1 RES1    0.0000
     19 C11       -0.0923    2.1191    1.4998 C.ar      1 RES1    0.0000
     20 C12       -0.9456    1.8000    0.4543 C.ar      1 RES1    0.0000
     21 H9        -1.8359    1.5838    0.6097 H         1 RES1    0.0000
     22 C13       -0.4375    1.8119   -0.8160 C.ar      1 RES1    0.0000
     23 H10       -0.9880    1.6061   -1.5369 H         1 RES1    0.0000
     24 C14       -0.3800    2.1385    2.9463 C.2       1 RES1    0.0000
     25 C15        1.3908    1.3034    4.5620 C.3       1 RES1    0.0000
     26 H11        2.2778    1.5241    4.9143 H         1 RES1    0.0000
     27 C16        0.4701    1.0514    5.7257 C.3       1 RES1    0.0000
     28 H12        0.8349    0.3355    6.2704 H         1 RES1    0.0000
     29 H13       -0.3930    0.7621    5.3919 H         1 RES1    0.0000
     30 C17        0.2834    2.2981    6.5926 C.3       1 RES1    0.0000
     31 H14        1.1259    2.5367    7.0099 H         1 RES1    0.0000
     32 H15       -0.3615    2.1162    7.2927 H         1 RES1    0.0000
     33 C18       -0.2117    3.4613    5.7206 C.3       1 RES1    0.0000
     34 H16       -1.0933    3.2451    5.3524 H         1 RES1    0.0000
     35 C19       -0.8577    5.3269    3.3427 C.ar      1 RES1    0.0000
     36 H17       -1.5601    4.7617    3.5698 H         1 RES1    0.0000
     37 C20       -1.1248    6.4320    2.5893 C.ar      1 RES1    0.0000
     38 H18       -2.0009    6.6273    2.3436 H         1 RES1    0.0000
     39 C21        0.4169    5.0108    3.7822 C.ar      1 RES1    0.0000
     40 N1        -0.3181    4.6886    6.6028 N.pl3     1 RES1    0.0000
     41 O1        -0.4571    8.2961    1.3637 O.3       1 RES1    0.0000
     42 O2         3.0388    3.0542    2.7377 O.2       1 RES1    0.0000
     43 O3        -1.4527    1.9402    3.4382 O.2       1 RES1    0.0000
     44 O4         1.5330    0.2282    3.6556 O.3       1 RES1    0.0000
     45 H19        1.2703   -0.4176    4.1494 H         1 RES1    0.0000
     46 O5         0.6753    5.2434    6.9821 O.2       1 RES1    0.0000
     47 O6        -1.4309    5.0734    6.8754 O.2       1 RES1    0.0000
     48 C22        4.3808    1.8567   12.5362 C.ar      2 RES2    0.0000
     49 H20        3.8640    1.7001   13.2942 H         2 RES2    0.0000
     50 C23        3.7858    1.8432   11.2983 C.ar      2 RES2    0.0000
     51 H21        2.8771    1.6658   11.2010 H         2 RES2    0.0000
     52 C24        4.5936    2.1057   10.1903 C.ar      2 RES2    0.0000
     53 C25        4.2255    2.1117    8.7600 C.2       2 RES2    0.0000
     54 C26        5.4708    2.3637    7.9394 C.3       2 RES2    0.0000
     55 C27        5.2233    3.5732    7.0168 C.3       2 RES2    0.0000
     56 H22        4.3775    3.4106    6.5509 H         2 RES2    0.0000
     57 C28        5.0691    4.8855    7.7728 C.ar      2 RES2    0.0000
     58 C29        6.1092    5.6699    8.2106 C.ar      2 RES2    0.0000
     59 H23        6.9788    5.4075    8.0136 H         2 RES2    0.0000
     60 C30        5.9159    6.8480    8.9408 C.ar      2 RES2    0.0000
     61 H24        6.6368    7.3611    9.2283 H         2 RES2    0.0000
     62 C31        4.5990    7.2224    9.2260 C.ar      2 RES2    0.0000
     63 C32        5.3134    9.1089   10.5171 C.3       2 RES2    0.0000
     64 H25        6.1472    8.6391   10.4383 H         2 RES2    0.0000
     65 H26        5.1364    9.2923   11.4420 H         2 RES2    0.0000
     66 H27        5.3655    9.9350   10.0303 H         2 RES2    0.0000
     67 C33        3.7836    5.3403    8.0600 C.ar      2 RES2    0.0000
     68 H28        3.0573    4.8482    7.7540 H         2 RES2    0.0000
     69 C34        3.5524    6.4708    8.7647 C.ar      2 RES2    0.0000
     70 H29        2.6784    6.7377    8.9385 H         2 RES2    0.0000
     71 C35        6.3133    3.6254    5.9579 C.3       2 RES2    0.0000
     72 H30        7.1732    3.7983    6.3956 H         2 RES2    0.0000
     73 C36        6.4262    2.3428    5.1253 C.3       2 RES2    0.0000
     74 H31        5.5794    2.1445    4.6987 H         2 RES2    0.0000
     75 H32        7.1026    2.4472    4.4391 H         2 RES2    0.0000
     76 C37        6.8116    1.2229    6.0850 C.3       2 RES2    0.0000
     77 H33        6.9072    0.3907    5.5935 H         2 RES2    0.0000
     78 H34        7.6628    1.4272    6.5022 H         2 RES2    0.0000
     79 C38        5.7596    1.0693    7.1351 C.3       2 RES2    0.0000
     80 H35        4.9290    0.7695    6.7085 H         2 RES2    0.0000
     81 C39        6.5695    2.5785    8.9895 C.2       2 RES2    0.0000
     82 C40        5.9561    2.3577   10.3340 C.ar      2 RES2    0.0000
     83 C41        6.5174    2.3727   11.5765 C.ar      2 RES2    0.0000
     84 H36        7.4207    2.5635   11.6924 H         2 RES2    0.0000
     85 C42        5.6934    2.0908   12.6706 C.ar      2 RES2    0.0000
     86 H37        6.0701    2.0655   13.5190 H         2 RES2    0.0000
     87 N2         6.0082    4.7662    5.0091 N.pl3     2 RES2    0.0000
     88 O7         4.2678    8.3110    9.9840 O.3       2 RES2    0.0000
     89 O8         7.7160    2.8633    8.7698 O.2       2 RES2    0.0000
     90 O9         3.1366    1.9417    8.3034 O.2       2 RES2    0.0000
     91 O10        6.1765    0.0701    8.0950 O.3       2 RES2    0.0000
     92 H38        6.5782    0.4340    8.7113 H         2 RES2    0.0000
     93 O11        4.8769    4.9571    4.6362 O.2       2 RES2    0.0000
     94 O12        6.9148    5.4641    4.6524 O.2       2 RES2    0.0000
@<TRIPOS>BOND
     1    1    2 1
     2    3    1 ar
     3    4    3 1
     4    5    3 ar
     5    6    5 1
     6    7    6 1
     7    8    7 1
     8    9    8 1
     9   10   11 1
    10   12   10 ar
    11   13   12 1
    12   14   12 ar
    13   15   16 1
    14   17   15 1
    15   18   15 1
    16   19    5 ar
    17   20   19 ar
    18   21   20 1
    19   22    1 ar
    20   23   22 1
    21   24    7 1
    22   25    7 1
    23   26   25 1
    24   27   25 1
    25   28   27 1
    26   29   27 1
    27   30   27 1
    28   31   30 1
    29   32   30 1
    30   33    8 1
    31   34   33 1
    32   35   36 1
    33   37   14 ar
    34   38   37 1
    35   39    8 1
    36   40   33 1
    37   41   14 1
    38   42    6 2
    39   43   24 2
    40   44   25 1
    41   45   44 1
    42   46   40 2
    43   47   40 2
    44   48   49 1
    45   50   48 ar
    46   51   50 1
    47   52   50 ar
    48   53   52 1
    49   54   53 1
    50   55   54 1
    51   56   55 1
    52   57   55 1
    53   58   57 ar
    54   59   58 1
    55   60   58 ar
    56   61   60 1
    57   62   60 ar
    58   63   64 1
    59   65   63 1
    60   66   63 1
    61   67   57 ar
    62   68   67 1
    63   69   62 ar
    64   70   69 1
    65   71   55 1
    66   72   71 1
    67   73   71 1
    68   74   73 1
    69   75   73 1
    70   76   73 1
    71   77   76 1
    72   78   76 1
    73   79   54 1
    74   80   79 1
    75   81   54 1
    76   82   52 ar
    77   83   82 ar
    78   84   83 1
    79   85   48 ar
    80   86   85 1
    81   87   71 1
    82   88   62 1
    83   89   81 2
    84   90   53 2
    85   91   79 1
    86   92   91 1
    87   93   87 2
    88   94   87 2
    89   10   39 ar
    90   15   41 1
    91   19   24 1
    92   20   22 ar
    93   30   33 1
    94   35   37 ar
    95   35   39 ar
    96   63   88 1
    97   67   69 ar
    98   76   79 1
    99   81   82 1
   100   83   85 ar
@<TRIPOS>SUBSTRUCTURE
     1 RES1 1
     2 RES2 48

@<TRIPOS>CRYSIN
  10.8569   14.9130   23.1808  90.0000  90.0000  90.0000  19 1

