# MOL2 file generated by ConQuest
# Please check atom types

@<TRIPOS>MOLECULE
YUGROI
    63    63     1
SMALL
NO_CHARGES
****
Generated from CSD

@<TRIPOS>ATOM
      1 O1         8.9369    6.5166   -2.8251 O.3       1 RES1    0.0000
      2 C1         9.9786    6.9955   -2.1562 C.2       1 RES1    0.0000
      3 O2        11.0344    7.3636   -2.6386 O.2       1 RES1    0.0000
      4 N1         9.7069    7.0281   -0.8270 N.am      1 RES1    0.0000
      5 H1         8.9296    6.8022   -0.5358 H         1 RES1    0.0000
      6 C2        10.7268    7.4429    0.0845 C.3       1 RES1    0.0000
      7 H2        11.0437    8.3192   -0.2199 H         1 RES1    0.0000
      8 C3        11.9212    6.5068    0.0655 C.2       1 RES1    0.0000
      9 C4        10.1743    7.6318    1.4248 C.3       1 RES1    0.0000
     10 H3        10.9078    7.6720    2.0588 H         1 RES1    0.0000
     11 H4         9.6381    6.8543    1.6494 H         1 RES1    0.0000
     12 C5         9.2934    8.9078    1.6068 C.3       1 RES1    0.0000
     13 H5         8.7055    8.9740    0.8259 H         1 RES1    0.0000
     14 C6         8.4413    8.5190    2.7794 C.3       1 RES1    0.0000
     15 H6         9.0024    8.3540    3.5422 H         1 RES1    0.0000
     16 H7         7.9491    7.7231    2.5665 H         1 RES1    0.0000
     17 H8         7.8304    9.2303    2.9807 H         1 RES1    0.0000
     18 C7         9.9541   10.2674    1.7992 C.3       1 RES1    0.0000
     19 H9         9.2762   10.9417    1.8857 H         1 RES1    0.0000
     20 H10       10.5056   10.4650    1.0388 H         1 RES1    0.0000
     21 H11       10.4941   10.2511    2.5923 H         1 RES1    0.0000
     22 O3        11.8103    5.2732   -0.0639 O.2       1 RES1    0.0000
     23 N2        13.1169    7.0987    0.2054 N.am      1 RES1    0.0000
     24 H12       13.1541    7.9554    0.1474 H         1 RES1    0.0000
     25 C8        14.3628    6.3722    0.4525 C.3       1 RES1    0.0000
     26 C9        15.4735    7.4125    0.5704 C.3       1 RES1    0.0000
     27 H13       15.4750    7.9685   -0.2129 H         1 RES1    0.0000
     28 H14       16.3215    6.9683    0.6481 H         1 RES1    0.0000
     29 H15       15.3237    7.9544    1.3476 H         1 RES1    0.0000
     30 C10       14.2609    5.5871    1.7825 C.3       1 RES1    0.0000
     31 H16       14.1690    6.2039    2.5127 H         1 RES1    0.0000
     32 H17       15.0537    5.0604    1.9044 H         1 RES1    0.0000
     33 H18       13.4949    5.0093    1.7547 H         1 RES1    0.0000
     34 C11       14.7182    5.4567   -0.7028 C.2       1 RES1    0.0000
     35 O4        15.4902    4.5163   -0.4925 O.2       1 RES1    0.0000
     36 N3        14.2245    5.7261   -1.9239 N.am      1 RES1    0.0000
     37 H19       13.7113    6.4134   -1.9863 H         1 RES1    0.0000
     38 C12       14.4563    5.0104   -3.1086 C.ar      1 RES1    0.0000
     39 C13       13.5486    5.1614   -4.1542 C.ar      1 RES1    0.0000
     40 H20       12.8304    5.7445   -4.0522 H         1 RES1    0.0000
     41 C14       13.6845    4.4892   -5.3022 C.ar      1 RES1    0.0000
     42 H21       13.0507    4.5869   -5.9753 H         1 RES1    0.0000
     43 C15       14.7607    3.6509   -5.4866 C.ar      1 RES1    0.0000
     44 C16       15.6774    3.5119   -4.4824 C.ar      1 RES1    0.0000
     45 H22       16.4076    2.9494   -4.5997 H         1 RES1    0.0000
     46 C17       15.5304    4.1895   -3.3098 C.ar      1 RES1    0.0000
     47 H23       16.1683    4.0917   -2.6391 H         1 RES1    0.0000
     48 N4        14.9331    2.8896   -6.7203 N.pl3     1 RES1    0.0000
     49 O5        15.8963    2.2511   -6.8730 O.2       1 RES1    0.0000
     50 O6        14.0771    2.9504   -7.5609 O.2       1 RES1    0.0000
     51 C18        8.8348    6.6773   -4.2941 C.3       1 RES1    0.0000
     52 C19        9.9369    5.9498   -4.9941 C.3       1 RES1    0.0000
     53 H24       10.7335    6.4862   -4.9833 H         1 RES1    0.0000
     54 H25        9.6803    5.7782   -5.9028 H         1 RES1    0.0000
     55 H26       10.1054    5.1169   -4.5458 H         1 RES1    0.0000
     56 C20        8.7745    8.1455   -4.5880 C.3       1 RES1    0.0000
     57 H27        7.9644    8.5114   -4.2277 H         1 RES1    0.0000
     58 H28        8.7917    8.2823   -5.5378 H         1 RES1    0.0000
     59 H29        9.5309    8.5831   -4.1902 H         1 RES1    0.0000
     60 C21        7.4953    6.0247   -4.5601 C.3       1 RES1    0.0000
     61 H30        7.5604    5.0810   -4.3984 H         1 RES1    0.0000
     62 H31        7.2406    6.1767   -5.4723 H         1 RES1    0.0000
     63 H32        6.8327    6.4037   -3.9773 H         1 RES1    0.0000
@<TRIPOS>BOND
     1    1    2 1
     2    2    3 2
     3    4    2 1
     4    5    4 1
     5    6    4 1
     6    7    6 1
     7    8    6 1
     8    9    6 1
     9   10    9 1
    10   11    9 1
    11   12    9 1
    12   13   12 1
    13   14   12 1
    14   15   14 1
    15   16   14 1
    16   17   14 1
    17   18   12 1
    18   19   18 1
    19   20   18 1
    20   21   18 1
    21   22    8 2
    22   23    8 1
    23   24   23 1
    24   25   23 1
    25   26   25 1
    26   27   26 1
    27   28   26 1
    28   29   26 1
    29   30   25 1
    30   31   30 1
    31   32   30 1
    32   33   30 1
    33   34   25 1
    34   35   34 2
    35   36   34 1
    36   37   36 1
    37   38   36 1
    38   39   38 ar
    39   40   39 1
    40   41   39 ar
    41   42   41 1
    42   43   41 ar
    43   44   43 ar
    44   45   44 1
    45   46   38 ar
    46   47   46 1
    47   48   43 1
    48   49   48 2
    49   50   48 2
    50   51    1 1
    51   52   51 1
    52   53   52 1
    53   54   52 1
    54   55   52 1
    55   56   51 1
    56   57   56 1
    57   58   56 1
    58   59   56 1
    59   60   51 1
    60   61   60 1
    61   62   60 1
    62   63   60 1
    63   44   46 ar
@<TRIPOS>SUBSTRUCTURE
     1 RES1 1

@<TRIPOS>CRYSIN
  19.1499   10.8592   23.3960  90.0000  90.0000  90.0000  61 1

