# MOL2 file generated by ConQuest
# Please check atom types

@<TRIPOS>MOLECULE
YUHTOK
    22    23     1
SMALL
NO_CHARGES
****
Generated from CSD

@<TRIPOS>ATOM
      1 N1        -0.1285    2.9074    2.5766 N.am      1 RES1    0.0000
      2 O1         1.1292    1.0707    1.9628 O.2       1 RES1    0.0000
      3 O2        -1.2508    4.4897    3.8383 O.2       1 RES1    0.0000
      4 O3         0.4543    3.7881    1.6828 O.3       1 RES1    0.0000
      5 C1         0.3808    1.6160    2.7312 C.2       1 RES1    0.0000
      6 C2        -0.2304    1.1473    4.0072 C.ar      1 RES1    0.0000
      7 C3        -0.1612   -0.0827    4.6131 C.ar      1 RES1    0.0000
      8 C4        -0.8830   -0.2328    5.8003 C.ar      1 RES1    0.0000
      9 C5        -1.6306    0.7736    6.3332 C.ar      1 RES1    0.0000
     10 C6        -1.7089    2.0082    5.7154 C.ar      1 RES1    0.0000
     11 C7        -0.9776    2.1736    4.5473 C.ar      1 RES1    0.0000
     12 C8        -0.8548    3.3700    3.6837 C.2       1 RES1    0.0000
     13 C9        -0.4811    4.0945    0.5853 C.3       1 RES1    0.0000
     14 C10       -0.8597    2.9211   -0.1594 C.1       1 RES1    0.0000
     15 C11       -1.1935    1.9990   -0.7994 C.1       1 RES1    0.0000
     16 H1         0.4108   -0.8119    4.2428 H         1 RES1    0.0000
     17 H2        -0.8635   -0.9650    6.2412 H         1 RES1    0.0000
     18 H3        -2.2493    0.5514    7.1453 H         1 RES1    0.0000
     19 H4        -2.4548    2.8185    6.0985 H         1 RES1    0.0000
     20 H5         0.1292    4.6567   -0.0714 H         1 RES1    0.0000
     21 H6        -1.4367    4.4116    0.9437 H         1 RES1    0.0000
     22 H7        -1.3268    1.3327   -1.2689 H         1 RES1    0.0000
@<TRIPOS>BOND
     1    1    4 1
     2    2    5 2
     3    3   12 2
     4    4   13 1
     5    5    1 1
     6    6    5 1
     7    7    6 ar
     8    8    7 ar
     9    9    8 ar
    10   10    9 ar
    11   11    6 ar
    12   12    1 1
    13   13   14 1
    14   14   15 3
    15   15   22 1
    16   16    7 1
    17   17    8 1
    18   18    9 1
    19   19   10 1
    20   20   13 1
    21   21   13 1
    22   10   11 ar
    23   11   12 1
@<TRIPOS>SUBSTRUCTURE
     1 RES1 1

@<TRIPOS>CRYSIN
   7.8380   15.3180    8.8400  90.0000 116.2200  90.0000  14 2

