# MOL2 file generated by ConQuest
# Please check atom types

@<TRIPOS>MOLECULE
YUHVOM
    56    58     2
SMALL
NO_CHARGES
****
Generated from CSD

@<TRIPOS>ATOM
      1 C1         2.0625    0.1897    4.0301 C.2       1 RES1    0.0000
      2 O1         2.6668    0.0900    3.0204 O.2       1 RES1    0.0000
      3 O2         2.5405    0.3005    5.2829 O.3       1 RES1    0.0000
      4 C2         3.9526    0.2439    5.4259 C.ar      1 RES1    0.0000
      5 C3         4.7084    1.2947    5.0427 C.ar      1 RES1    0.0000
      6 C4         6.0782    1.2768    5.2715 C.ar      1 RES1    0.0000
      7 C5         6.6240    0.1955    5.9236 C.ar      1 RES1    0.0000
      8 C6         5.8450   -0.8460    6.3269 C.ar      1 RES1    0.0000
      9 C7         4.4768   -0.8437    6.0723 C.ar      1 RES1    0.0000
     10 O3         0.7257    0.2687    4.1817 O.3       1 RES1    0.0000
     11 C8        -0.0707    0.0669    3.0433 C.ar      1 RES1    0.0000
     12 C9         0.0155   -1.0127    2.2224 C.ar      1 RES1    0.0000
     13 C10       -0.8619   -1.1419    1.1269 C.ar      1 RES1    0.0000
     14 C11       -1.8128   -0.1863    0.9153 C.ar      1 RES1    0.0000
     15 C12       -1.9049    0.8858    1.7619 C.ar      1 RES1    0.0000
     16 C13       -1.0244    1.0559    2.8145 C.ar      1 RES1    0.0000
     17 N1         0.9693   -2.1182    2.4455 N.pl3     1 RES1    0.0000
     18 O4         1.4073   -2.7128    1.4673 O.2       1 RES1    0.0000
     19 O5         1.2556   -2.3829    3.6039 O.2       1 RES1    0.0000
     20 H1         4.2548    2.0888    4.7480 H         1 RES1    0.0000
     21 H2         6.6057    1.9844    4.8939 H         1 RES1    0.0000
     22 H3         7.5664    0.1690    6.1124 H         1 RES1    0.0000
     23 H4         6.1956   -1.6494    6.7188 H         1 RES1    0.0000
     24 H5         3.8914   -1.4954    6.4642 H         1 RES1    0.0000
     25 H6        -0.8086   -1.9020    0.5435 H         1 RES1    0.0000
     26 H7        -2.4131   -0.2261    0.1659 H         1 RES1    0.0000
     27 H8        -2.5686    1.5554    1.5817 H         1 RES1    0.0000
     28 H9        -1.1330    1.7405    3.4781 H         1 RES1    0.0000
     29 C14        8.7495   -1.3287    3.6526 C.2       2 RES2    0.0000
     30 O6         8.6272   -2.1661    4.4706 O.2       2 RES2    0.0000
     31 O7         9.6424   -0.3391    3.5925 O.3       2 RES2    0.0000
     32 C15       10.6706   -0.3529    4.5907 C.ar      2 RES2    0.0000
     33 C16       10.7419    0.7474    5.3945 C.ar      2 RES2    0.0000
     34 C17       11.7803    0.7883    6.3498 C.ar      2 RES2    0.0000
     35 C18       12.6858   -0.2532    6.4041 C.ar      2 RES2    0.0000
     36 C19       12.5901   -1.3339    5.5604 C.ar      2 RES2    0.0000
     37 C20       11.5544   -1.3962    4.6279 C.ar      2 RES2    0.0000
     38 O8         7.9442   -1.1269    2.5742 O.3       2 RES2    0.0000
     39 C21        7.0211   -2.1113    2.2768 C.ar      2 RES2    0.0000
     40 C22        7.3807   -3.3235    1.6761 C.ar      2 RES2    0.0000
     41 C23        6.4076   -4.2243    1.2700 C.ar      2 RES2    0.0000
     42 C24        5.0747   -3.9169    1.5016 C.ar      2 RES2    0.0000
     43 C25        4.7108   -2.7295    2.0794 C.ar      2 RES2    0.0000
     44 C26        5.6825   -1.8431    2.4913 C.ar      2 RES2    0.0000
     45 N2         8.7760   -3.6834    1.3901 N.pl3     2 RES2    0.0000
     46 O9         8.9904   -4.6349    0.6550 O.2       2 RES2    0.0000
     47 O10        9.6838   -2.9936    1.8649 O.2       2 RES2    0.0000
     48 H10       10.0542    1.4164    5.4088 H         2 RES2    0.0000
     49 H11       11.9048    1.5617    6.9047 H         2 RES2    0.0000
     50 H12       13.3992   -0.2122    7.0448 H         2 RES2    0.0000
     51 H13       13.2311   -2.0461    5.6176 H         2 RES2    0.0000
     52 H14       11.4677   -2.1378    4.0244 H         2 RES2    0.0000
     53 H15        6.6853   -5.0611    0.8895 H         2 RES2    0.0000
     54 H16        4.4121   -4.4885    1.1069 H         2 RES2    0.0000
     55 H17        3.8068   -2.5479    2.3454 H         2 RES2    0.0000
     56 H18        5.4760   -0.9550    2.7888 H         2 RES2    0.0000
@<TRIPOS>BOND
     1    1    2 2
     2    3    1 1
     3    4    3 1
     4    5    4 ar
     5    6    5 ar
     6    7    6 ar
     7    8    7 ar
     8    9    4 ar
     9   10    1 1
    10   11   10 1
    11   12   11 ar
    12   13   12 ar
    13   14   13 ar
    14   15   14 ar
    15   16   11 ar
    16   17   12 1
    17   18   17 2
    18   19   17 2
    19   20    5 1
    20   21    6 1
    21   22    7 1
    22   23    8 1
    23   24    9 1
    24   25   13 1
    25   26   14 1
    26   27   15 1
    27   28   16 1
    28   29   30 2
    29   31   29 1
    30   32   31 1
    31   33   32 ar
    32   34   33 ar
    33   35   34 ar
    34   36   35 ar
    35   37   32 ar
    36   38   29 1
    37   39   38 1
    38   40   39 ar
    39   41   40 ar
    40   42   41 ar
    41   43   42 ar
    42   44   39 ar
    43   45   40 1
    44   46   45 2
    45   47   45 2
    46   48   33 1
    47   49   34 1
    48   50   35 1
    49   51   36 1
    50   52   37 1
    51   53   41 1
    52   54   42 1
    53   55   43 1
    54   56   44 1
    55    8    9 ar
    56   15   16 ar
    57   36   37 ar
    58   43   44 ar
@<TRIPOS>SUBSTRUCTURE
     1 RES1 1
     2 RES2 29

@<TRIPOS>CRYSIN
  14.4450    5.7670   28.6030  90.0000  90.2700  90.0000 231 1

