# MOL2 file generated by ConQuest
# Please check atom types

@<TRIPOS>MOLECULE
YUJCAH
    21    21     1
SMALL
NO_CHARGES
****
Generated from CSD

@<TRIPOS>ATOM
      1 O1         2.3510    7.8756   -1.7100 O.2       1 RES1    0.0000
      2 O2         1.6266   13.7412   -0.2999 O.3       1 RES1    0.0000
      3 O3         5.9790    9.6012    0.8556 O.2       1 RES1    0.0000
      4 N1         4.8397   11.4480    0.2957 N.am      1 RES1    0.0000
      5 N2         2.7238   12.9670   -0.0808 N.2       1 RES1    0.0000
      6 C1         2.5792   11.7579   -0.5392 C.2       1 RES1    0.0000
      7 C2         1.4057   11.2529   -1.2182 C.2       1 RES1    0.0000
      8 C3         1.3453    9.9724   -1.6031 C.2       1 RES1    0.0000
      9 C4         2.4455    9.0541   -1.3576 C.2       1 RES1    0.0000
     10 C5         3.6210    9.5693   -0.7047 C.2       1 RES1    0.0000
     11 C6         3.7088   10.8511   -0.3301 C.2       1 RES1    0.0000
     12 C7         5.8821   10.8205    0.8598 C.2       1 RES1    0.0000
     13 C8         6.9082   11.7031    1.4622 C.3       1 RES1    0.0000
     14 H1         4.4651   12.1928    0.2083 H         1 RES1    0.0000
     15 H2         1.2373   14.0549    0.3466 H         1 RES1    0.0000
     16 H3         0.7896   11.8587   -1.2837 H         1 RES1    0.0000
     17 H4         0.5014    9.7326   -2.0627 H         1 RES1    0.0000
     18 H5         4.3557    9.0043   -0.4933 H         1 RES1    0.0000
     19 H6         7.3631   11.1381    2.1523 H         1 RES1    0.0000
     20 H7         7.5593   12.1214    0.8988 H         1 RES1    0.0000
     21 H8         6.5589   12.3331    2.0217 H         1 RES1    0.0000
@<TRIPOS>BOND
     1    1    9 2
     2    2    5 1
     3    3   12 2
     4    4   11 1
     5    5    6 2
     6    6    7 1
     7    7    8 2
     8    8    9 1
     9    9   10 1
    10   10   11 2
    11   11    6 1
    12   12    4 1
    13   13   12 1
    14   14    4 1
    15   15    2 1
    16   16    7 1
    17   17    8 1
    18   18   10 1
    19   19   13 1
    20   20   13 1
    21   21   13 1
@<TRIPOS>SUBSTRUCTURE
     1 RES1 1

@<TRIPOS>CRYSIN
  16.6520   12.7540    3.8410  90.0000  94.3900  90.0000 231 1

