# MOL2 file generated by ConQuest
# Please check atom types

@<TRIPOS>MOLECULE
YUJFOA
   132   140     4
SMALL
NO_CHARGES
****
Generated from CSD

@<TRIPOS>ATOM
      1 C1        10.7752    0.8358    0.6891 C.ar      1 RES1    0.0000
      2 C2        10.6717    1.2377    2.0178 C.ar      1 RES1    0.0000
      3 H1        11.3554    1.0176    2.6393 H         1 RES1    0.0000
      4 C3         9.5711    1.9585    2.4231 C.ar      1 RES1    0.0000
      5 H2         9.4649    2.2355    3.3250 H         1 RES1    0.0000
      6 C4         8.6120    2.2651    1.4464 C.ar      1 RES1    0.0000
      7 C5         8.7599    1.8992    0.0942 C.ar      1 RES1    0.0000
      8 C6         9.8642    1.1524   -0.3070 C.ar      1 RES1    0.0000
      9 H3         9.9867    0.8779   -1.2089 H         1 RES1    0.0000
     10 C7         6.9034    2.9749    0.2547 C.2       1 RES1    0.0000
     11 C8         5.5750    3.5856   -0.0527 C.3       1 RES1    0.0000
     12 H4         5.6385    4.0060   -0.9581 H         1 RES1    0.0000
     13 C9         5.1591    4.6762    0.9340 C.3       1 RES1    0.0000
     14 H5         5.8437    5.3921    0.9425 H         1 RES1    0.0000
     15 H6         5.1042    4.2941    1.8457 H         1 RES1    0.0000
     16 C10        3.8039    5.2709    0.5480 C.3       1 RES1    0.0000
     17 H7         3.5314    5.9336    1.2324 H         1 RES1    0.0000
     18 H8         3.8899    5.7457   -0.3174 H         1 RES1    0.0000
     19 C11        2.7239    4.2026    0.4279 C.3       1 RES1    0.0000
     20 H9         1.8837    4.6156    0.1058 H         1 RES1    0.0000
     21 H10        2.5513    3.8057    1.3187 H         1 RES1    0.0000
     22 C12        3.1598    3.1096   -0.5429 C.3       1 RES1    0.0000
     23 H11        3.2481    3.4929   -1.4519 H         1 RES1    0.0000
     24 H12        2.4654    2.4049   -0.5761 H         1 RES1    0.0000
     25 C13        4.4960    2.4865   -0.1219 C.3       1 RES1    0.0000
     26 H13        4.7644    1.7941   -0.7759 H         1 RES1    0.0000
     27 H14        4.4007    2.0549    0.7642 H         1 RES1    0.0000
     28 N1        11.9298    0.0111    0.3170 N.pl3     1 RES1    0.0000
     29 N2         7.4162    2.9242    1.5179 N.pl3     1 RES1    0.0000
     30 H15        7.0463    3.2555    2.2435 H         1 RES1    0.0000
     31 N3         7.6721    2.3826   -0.6342 N.2       1 RES1    0.0000
     32 O1        12.7841   -0.2226    1.1754 O.2       1 RES1    0.0000
     33 O2        11.9978   -0.4105   -0.8245 O.2       1 RES1    0.0000
     34 C14       10.0419    5.6220    5.0358 C.ar      2 RES2    0.0000
     35 C15        9.9037    5.5850    6.4246 C.ar      2 RES2    0.0000
     36 H16       10.5769    5.9633    6.9773 H         2 RES2    0.0000
     37 C16        8.7954    5.0014    6.9947 C.ar      2 RES2    0.0000
     38 H17        8.6749    4.9742    7.9374 H         2 RES2    0.0000
     39 C17        7.8634    4.4549    6.1250 C.ar      2 RES2    0.0000
     40 C18        8.0244    4.4759    4.7240 C.ar      2 RES2    0.0000
     41 C19        9.1314    5.0743    4.1464 C.ar      2 RES2    0.0000
     42 H18        9.2589    5.1077    3.2055 H         2 RES2    0.0000
     43 C20        6.1808    3.4410    5.1310 C.2       2 RES2    0.0000
     44 C21        4.8721    2.7436    4.9425 C.3       2 RES2    0.0000
     45 H19        4.9481    2.1860    4.1147 H         2 RES2    0.0000
     46 C22        4.5219    1.8089    6.0877 C.3       2 RES2    0.0000
     47 H20        4.4518    2.3270    6.9283 H         2 RES2    0.0000
     48 H21        5.2421    1.1388    6.1994 H         2 RES2    0.0000
     49 C23        3.1839    1.0868    5.8154 C.3       2 RES2    0.0000
     50 H22        3.2866    0.4822    5.0375 H         2 RES2    0.0000
     51 H23        2.9390    0.5378    6.6011 H         2 RES2    0.0000
     52 C24        2.0693    2.1019    5.5313 C.3       2 RES2    0.0000
     53 H24        1.2361    1.6185    5.3020 H         2 RES2    0.0000
     54 H25        1.8971    2.6361    6.3483 H         2 RES2    0.0000
     55 C25        2.4387    3.0255    4.3988 C.3       2 RES2    0.0000
     56 H26        1.7112    3.6821    4.2577 H         2 RES2    0.0000
     57 H27        2.5449    2.5013    3.5660 H         2 RES2    0.0000
     58 C26        3.7436    3.7674    4.7046 C.3       2 RES2    0.0000
     59 H28        3.6279    4.3325    5.5097 H         2 RES2    0.0000
     60 H29        3.9798    4.3572    3.9442 H         2 RES2    0.0000
     61 N4        11.2474    6.2514    4.4860 N.pl3     2 RES2    0.0000
     62 N5         6.6712    3.8020    6.3430 N.pl3     2 RES2    0.0000
     63 H30        6.2976    3.6475    7.1242 H         2 RES2    0.0000
     64 N6         6.9461    3.8317    4.1249 N.2       2 RES2    0.0000
     65 O3        11.4310    6.2378    3.2759 O.2       2 RES2    0.0000
     66 O4        12.0417    6.7546    5.2797 O.2       2 RES2    0.0000
     67 C27       -1.1675   11.5445    4.2939 C.ar      3 RES3    0.0000
     68 C28       -1.1549   11.0228    2.9927 C.ar      3 RES3    0.0000
     69 H31       -1.8921   11.1786    2.4139 H         3 RES3    0.0000
     70 C29       -0.0770   10.2834    2.5487 C.ar      3 RES3    0.0000
     71 H32       -0.0434    9.9360    1.6655 H         3 RES3    0.0000
     72 C30        0.9624   10.0682    3.4608 C.ar      3 RES3    0.0000
     73 C31        0.9235   10.5690    4.7799 C.ar      3 RES3    0.0000
     74 C32       -0.1596   11.3331    5.2137 C.ar      3 RES3    0.0000
     75 H33       -0.2020   11.6880    6.0936 H         3 RES3    0.0000
     76 C33        2.7739    9.4822    4.5585 C.2       3 RES3    0.0000
     77 C34        4.0976    8.8454    4.8710 C.3       3 RES3    0.0000
     78 H34        3.9780    8.3039    5.7037 H         3 RES3    0.0000
     79 C35        4.5808    7.8983    3.7778 C.3       3 RES3    0.0000
     80 H35        4.7282    8.4077    2.9430 H         3 RES3    0.0000
     81 H36        3.8856    7.2158    3.6013 H         3 RES3    0.0000
     82 C36        5.8859    7.2059    4.1928 C.3       3 RES3    0.0000
     83 H37        6.2085    6.6396    3.4485 H         3 RES3    0.0000
     84 H38        5.7145    6.6186    4.9709 H         3 RES3    0.0000
     85 C37        6.9676    8.2346    4.5577 C.3       3 RES3    0.0000
     86 H39        7.7678    7.7623    4.9004 H         3 RES3    0.0000
     87 H40        7.2327    8.7341    3.7443 H         3 RES3    0.0000
     88 C38        6.4731    9.2139    5.6108 C.3       3 RES3    0.0000
     89 H41        7.1686    9.8989    5.7742 H         3 RES3    0.0000
     90 H42        6.3140    8.7304    6.4600 H         3 RES3    0.0000
     91 C39        5.1733    9.9026    5.1639 C.3       3 RES3    0.0000
     92 H43        4.8570   10.5134    5.8761 H         3 RES3    0.0000
     93 H44        5.3433   10.4404    4.3498 H         3 RES3    0.0000
     94 N7        -2.3034   12.3804    4.6833 N.pl3     3 RES3    0.0000
     95 N8         2.1517    9.3969    3.3529 N.pl3     3 RES3    0.0000
     96 H45        2.4560    8.9864    2.6373 H         3 RES3    0.0000
     97 N9         2.0752   10.1721    5.4539 N.2       3 RES3    0.0000
     98 O5        -2.2857   12.9108    5.7883 O.2       3 RES3    0.0000
     99 O6        -3.2270   12.5386    3.8823 O.2       3 RES3    0.0000
    100 C40       -1.3159    7.8822    9.8109 C.ar      4 RES4    0.0000
    101 C41       -1.3939    8.0825    8.4427 C.ar      4 RES4    0.0000
    102 H46       -2.1467    7.7673    7.9570 H         4 RES4    0.0000
    103 C42       -0.3682    8.7428    7.7869 C.ar      4 RES4    0.0000
    104 H47       -0.3894    8.8912    6.8480 H         4 RES4    0.0000
    105 C43        0.7018    9.1817    8.5795 C.ar      4 RES4    0.0000
    106 C44        0.7575    8.9765    9.9655 C.ar      4 RES4    0.0000
    107 C45       -0.2629    8.2989   10.6194 C.ar      4 RES4    0.0000
    108 H48       -0.2443    8.1308   11.5544 H         4 RES4    0.0000
    109 C46        2.5117   10.0955    9.4404 C.2       4 RES4    0.0000
    110 C47        3.8040   10.8657    9.4480 C.3       4 RES4    0.0000
    111 H49        3.7075   11.6262    8.8054 H         4 RES4    0.0000
    112 C48        4.9592    9.9941    8.9602 C.3       4 RES4    0.0000
    113 H50        4.7482    9.6355    8.0628 H         4 RES4    0.0000
    114 H51        5.0829    9.2299    9.5774 H         4 RES4    0.0000
    115 C49        6.2526   10.8225    8.8955 C.3       4 RES4    0.0000
    116 H52        7.0020   10.2413    8.6094 H         4 RES4    0.0000
    117 H53        6.1507   11.5433    8.2254 H         4 RES4    0.0000
    118 C50        6.5708   11.4308   10.2492 C.3       4 RES4    0.0000
    119 H54        7.3809   11.9946   10.1730 H         4 RES4    0.0000
    120 H55        6.7622   10.7062   10.8960 H         4 RES4    0.0000
    121 C51        5.4180   12.2740   10.7647 C.3       4 RES4    0.0000
    122 H56        5.2892   13.0530   10.1671 H         4 RES4    0.0000
    123 H57        5.6375   12.6128   11.6680 H         4 RES4    0.0000
    124 C52        4.1186   11.4629   10.8274 C.3       4 RES4    0.0000
    125 H58        3.3741   12.0478   11.1155 H         4 RES4    0.0000
    126 H59        4.2129   10.7347   11.4917 H         4 RES4    0.0000
    127 N10       -2.4234    7.1663   10.4544 N.pl3     4 RES4    0.0000
    128 N11        1.8296    9.8741    8.2705 N.pl3     4 RES4    0.0000
    129 H60        2.0773   10.1338    7.4671 H         4 RES4    0.0000
    130 N12        1.9104    9.5613   10.4863 N.2       4 RES4    0.0000
    131 O7        -2.3566    6.9055   11.6406 O.2       4 RES4    0.0000
    132 O8        -3.3865    6.8610    9.7596 O.2       4 RES4    0.0000
@<TRIPOS>BOND
     1    1    2 ar
     2    2    3 1
     3    4    2 ar
     4    5    4 1
     5    6    4 ar
     6    7    6 ar
     7    8    1 ar
     8    9    8 1
     9   10   11 1
    10   11   12 1
    11   13   11 1
    12   14   13 1
    13   15   13 1
    14   16   13 1
    15   17   16 1
    16   18   16 1
    17   19   16 1
    18   20   19 1
    19   21   19 1
    20   22   19 1
    21   23   22 1
    22   24   22 1
    23   25   11 1
    24   26   25 1
    25   27   25 1
    26   28    1 1
    27   29    6 1
    28   30   29 1
    29   31    7 1
    30   32   28 2
    31   33   28 2
    32   34   35 ar
    33   35   36 1
    34   37   35 ar
    35   38   37 1
    36   39   37 ar
    37   40   39 ar
    38   41   34 ar
    39   42   41 1
    40   43   44 1
    41   44   45 1
    42   46   44 1
    43   47   46 1
    44   48   46 1
    45   49   46 1
    46   50   49 1
    47   51   49 1
    48   52   49 1
    49   53   52 1
    50   54   52 1
    51   55   52 1
    52   56   55 1
    53   57   55 1
    54   58   44 1
    55   59   58 1
    56   60   58 1
    57   61   34 1
    58   62   39 1
    59   63   62 1
    60   64   40 1
    61   65   61 2
    62   66   61 2
    63   67   68 ar
    64   68   69 1
    65   70   68 ar
    66   71   70 1
    67   72   70 ar
    68   73   72 ar
    69   74   67 ar
    70   75   74 1
    71   76   77 1
    72   77   78 1
    73   79   77 1
    74   80   79 1
    75   81   79 1
    76   82   79 1
    77   83   82 1
    78   84   82 1
    79   85   82 1
    80   86   85 1
    81   87   85 1
    82   88   85 1
    83   89   88 1
    84   90   88 1
    85   91   77 1
    86   92   91 1
    87   93   91 1
    88   94   67 1
    89   95   72 1
    90   96   95 1
    91   97   73 1
    92   98   94 2
    93   99   94 2
    94  100  101 ar
    95  101  102 1
    96  103  101 ar
    97  104  103 1
    98  105  103 ar
    99  106  105 ar
   100  107  100 ar
   101  108  107 1
   102  109  110 1
   103  110  111 1
   104  112  110 1
   105  113  112 1
   106  114  112 1
   107  115  112 1
   108  116  115 1
   109  117  115 1
   110  118  115 1
   111  119  118 1
   112  120  118 1
   113  121  118 1
   114  122  121 1
   115  123  121 1
   116  124  110 1
   117  125  124 1
   118  126  124 1
   119  127  100 1
   120  128  105 1
   121  129  128 1
   122  130  106 1
   123  131  127 2
   124  132  127 2
   125    7    8 ar
   126   10   29 1
   127   10   31 2
   128   22   25 1
   129   40   41 ar
   130   43   62 1
   131   43   64 2
   132   55   58 1
   133   73   74 ar
   134   76   95 1
   135   76   97 2
   136   88   91 1
   137  106  107 ar
   138  109  128 1
   139  109  130 2
   140  121  124 1
@<TRIPOS>SUBSTRUCTURE
     1 RES1 1
     2 RES2 34
     3 RES3 67
     4 RES4 100

@<TRIPOS>CRYSIN
  10.2459   12.3643   19.6948  90.0000  95.8100  90.0000   4 1

