# MOL2 file generated by ConQuest
# Please check atom types

@<TRIPOS>MOLECULE
YUJYIL01
    52    54     1
SMALL
NO_CHARGES
****
Generated from CSD

@<TRIPOS>ATOM
      1 O1        -3.3075    6.3614    6.9942 O.2       1 RES1    0.0000
      2 N1        -2.4297    5.8349    6.2188 N.3       1 RES1    0.0000
      3 N2         0.0746    3.9482    3.4328 N.2       1 RES1    0.0000
      4 C1        -1.7950    6.7474    5.2222 C.3       1 RES1    0.0000
      5 C2        -1.1403    5.9087    4.1292 C.3       1 RES1    0.0000
      6 C3        -0.3021    4.7407    4.6116 C.3       1 RES1    0.0000
      7 C4        -1.1580    3.8613    5.5063 C.3       1 RES1    0.0000
      8 C5        -1.8038    4.5695    6.6908 C.3       1 RES1    0.0000
      9 C6         1.2342    3.9721    2.9983 C.2       1 RES1    0.0000
     10 C7         1.6292    3.2431    1.7805 C.ar      1 RES1    0.0000
     11 C8         0.7596    2.4175    1.1625 C.ar      1 RES1    0.0000
     12 C9         1.0986    1.7466    0.0102 C.ar      1 RES1    0.0000
     13 C10        2.3192    1.8614   -0.5781 C.ar      1 RES1    0.0000
     14 C11        3.1748    2.7209    0.0271 C.ar      1 RES1    0.0000
     15 C12        2.8447    3.3961    1.1896 C.ar      1 RES1    0.0000
     16 C13       -0.7848    7.6579    5.9232 C.3       1 RES1    0.0000
     17 C14       -2.9128    7.5864    4.5980 C.3       1 RES1    0.0000
     18 C15        2.6577    1.1050   -1.8177 C.ar      1 RES1    0.0000
     19 C16        1.7924    0.1912   -2.3431 C.ar      1 RES1    0.0000
     20 C17        2.0815   -0.5250   -3.4976 C.ar      1 RES1    0.0000
     21 C18        3.2570   -0.3430   -4.1280 C.ar      1 RES1    0.0000
     22 C19        4.1240    0.5706   -3.6422 C.ar      1 RES1    0.0000
     23 C20        3.8325    1.3005   -2.4933 C.ar      1 RES1    0.0000
     24 C21       -0.7874    4.8791    7.7951 C.3       1 RES1    0.0000
     25 C22       -2.9175    3.6883    7.2619 C.3       1 RES1    0.0000
     26 H1         0.5166    5.0709    5.0996 H         1 RES1    0.0000
     27 H2         1.9093    4.5125    3.4570 H         1 RES1    0.0000
     28 H3        -0.1008    2.3674    1.5251 H         1 RES1    0.0000
     29 H4         0.4949    1.1737   -0.2598 H         1 RES1    0.0000
     30 H5         3.9572    2.9115   -0.4067 H         1 RES1    0.0000
     31 H6         3.3837    4.0111    1.5025 H         1 RES1    0.0000
     32 H7         0.0408    7.1220    6.2474 H         1 RES1    0.0000
     33 H8        -1.1847    8.0621    6.6993 H         1 RES1    0.0000
     34 H9        -0.5036    8.3498    5.2645 H         1 RES1    0.0000
     35 H10       -3.2675    8.2017    5.2871 H         1 RES1    0.0000
     36 H11       -3.6870    7.0052    4.2252 H         1 RES1    0.0000
     37 H12       -2.5720    8.0934    3.8637 H         1 RES1    0.0000
     38 H13       -0.5841    6.4839    3.5699 H         1 RES1    0.0000
     39 H14       -1.8330    5.5466    3.5248 H         1 RES1    0.0000
     40 H15        1.0193    0.0769   -1.9657 H         1 RES1    0.0000
     41 H16        1.5019   -1.1652   -3.7507 H         1 RES1    0.0000
     42 H17        3.3963   -0.7806   -4.9030 H         1 RES1    0.0000
     43 H18        5.0006    0.7606   -4.0783 H         1 RES1    0.0000
     44 H19        4.5121    1.9372   -2.1352 H         1 RES1    0.0000
     45 H20       -0.6469    3.1308    5.8407 H         1 RES1    0.0000
     46 H21       -1.8633    3.4328    4.9143 H         1 RES1    0.0000
     47 H22        0.0052    5.3899    7.4562 H         1 RES1    0.0000
     48 H23       -0.4765    4.0538    8.1679 H         1 RES1    0.0000
     49 H24       -1.2155    5.4526    8.5069 H         1 RES1    0.0000
     50 H25       -2.4967    2.8146    7.4788 H         1 RES1    0.0000
     51 H26       -3.3478    4.0880    8.1115 H         1 RES1    0.0000
     52 H27       -3.6272    3.5525    6.5637 H         1 RES1    0.0000
@<TRIPOS>BOND
     1    1    2 1
     2    2    4 1
     3    3    6 1
     4    4    5 1
     5    5    6 1
     6    6    7 1
     7    7    8 1
     8    8    2 1
     9    9    3 2
    10   10    9 1
    11   11   10 ar
    12   12   11 ar
    13   13   12 ar
    14   14   13 ar
    15   15   10 ar
    16   16    4 1
    17   17    4 1
    18   18   13 1
    19   19   18 ar
    20   20   19 ar
    21   21   20 ar
    22   22   21 ar
    23   23   18 ar
    24   24    8 1
    25   25    8 1
    26   26    6 1
    27   27    9 1
    28   28   11 1
    29   29   12 1
    30   30   14 1
    31   31   15 1
    32   32   16 1
    33   33   16 1
    34   34   16 1
    35   35   17 1
    36   36   17 1
    37   37   17 1
    38   38    5 1
    39   39    5 1
    40   40   19 1
    41   41   20 1
    42   42   21 1
    43   43   22 1
    44   44   23 1
    45   45    7 1
    46   46    7 1
    47   47   24 1
    48   48   24 1
    49   49   24 1
    50   50   25 1
    51   51   25 1
    52   52   25 1
    53   14   15 ar
    54   22   23 ar
@<TRIPOS>SUBSTRUCTURE
     1 RES1 1

@<TRIPOS>CRYSIN
   5.9550   28.4880   11.7960  90.0000 106.7200  90.0000  14 1

