# MOL2 file generated by ConQuest
# Please check atom types

@<TRIPOS>MOLECULE
YUJYAE
    47    50     1
SMALL
NO_CHARGES
****
Generated from CSD

@<TRIPOS>ATOM
      1 C1         5.5982    1.7864    6.1970 C.3       1 RES1    0.0000
      2 H1         4.7236    1.6113    5.8150 H         1 RES1    0.0000
      3 H2         6.2167    1.1091    5.8815 H         1 RES1    0.0000
      4 C2         6.0806    3.1687    5.8075 C.3       1 RES1    0.0000
      5 C3         6.8839    3.6227    7.0629 C.3       1 RES1    0.0000
      6 H3         7.8370    3.7141    6.8530 H         1 RES1    0.0000
      7 C4         6.6603    2.5223    8.0815 C.3       1 RES1    0.0000
      8 H4         7.4538    1.9576    8.1954 H         1 RES1    0.0000
      9 C5         6.2961    3.2543    9.3566 C.3       1 RES1    0.0000
     10 H5         7.0949    3.4784    9.8785 H         1 RES1    0.0000
     11 C6         5.6117    4.5077    8.8263 C.3       1 RES1    0.0000
     12 H6         4.6831    4.3327    8.6086 H         1 RES1    0.0000
     13 H7         5.6532    5.2283    9.4753 H         1 RES1    0.0000
     14 C7         6.9371    3.2389    4.5458 C.3       1 RES1    0.0000
     15 H8         7.2834    4.1518    4.4625 H         1 RES1    0.0000
     16 C8         6.3529    2.8234    3.1855 C.3       1 RES1    0.0000
     17 C9         7.6467    2.6319    2.3857 C.3       1 RES1    0.0000
     18 H9         7.5313    2.0374    1.6145 H         1 RES1    0.0000
     19 C10        8.6331    2.0740    3.4235 C.3       1 RES1    0.0000
     20 H10        8.7738    1.1120    3.2935 H         1 RES1    0.0000
     21 C11        9.9432    2.8638    3.1776 C.3       1 RES1    0.0000
     22 H11       10.6861    2.2683    2.9448 H         1 RES1    0.0000
     23 C12        9.5915    3.7844    2.0444 C.3       1 RES1    0.0000
     24 H12       10.0072    4.6511    2.1768 H         1 RES1    0.0000
     25 H13        9.9071    3.4159    1.2033 H         1 RES1    0.0000
     26 C13        5.3872    3.8526    2.6471 C.3       1 RES1    0.0000
     27 H14        4.6777    3.9969    3.2935 H         1 RES1    0.0000
     28 H15        5.8516    4.6944    2.5195 H         1 RES1    0.0000
     29 O1         5.5306    1.7748    7.6311 O.3       1 RES1    0.0000
     30 O2         4.9581    4.0364    5.6042 O.3       1 RES1    0.0000
     31 H16        5.1032    4.6270    6.0710 H         1 RES1    0.0000
     32 O3         5.3043    2.5704   10.1739 O.3       1 RES1    0.0000
     33 O4         6.3709    4.8327    7.6387 O.3       1 RES1    0.0000
     34 O5         8.0642    2.3431    4.7185 O.3       1 RES1    0.0000
     35 O6         5.6478    1.5892    3.2675 O.3       1 RES1    0.0000
     36 H17        6.2032    0.9331    3.3197 H         1 RES1    0.0000
     37 O7        10.2759    3.7228    4.3061 O.3       1 RES1    0.0000
     38 O8         8.1688    3.9171    2.0212 O.3       1 RES1    0.0000
     39 O9         6.9263    1.0620   10.5714 O.2       1 RES1    0.0000
     40 O10        4.9058    0.7397   11.2833 O.2       1 RES1    0.0000
     41 O11       10.8953    3.7449    6.3836 O.2       1 RES1    0.0000
     42 O12       10.9737    1.8614    5.3234 O.2       1 RES1    0.0000
     43 O13        5.5477    3.3091    0.3951 O.2       1 RES1    0.0000
     44 O14        3.6074    3.2072    1.2749 O.2       1 RES1    0.0000
     45 N1         5.7740    1.3612   10.7246 N.pl3     1 RES1    0.0000
     46 N2        10.7546    3.0311    5.4135 N.pl3     1 RES1    0.0000
     47 N3         4.7904    3.4130    1.3448 N.pl3     1 RES1    0.0000
@<TRIPOS>BOND
     1    1    2 1
     2    3    1 1
     3    4    1 1
     4    5    4 1
     5    6    5 1
     6    7    5 1
     7    8    7 1
     8    9    7 1
     9   10    9 1
    10   11    9 1
    11   12   11 1
    12   13   11 1
    13   14    4 1
    14   15   14 1
    15   16   14 1
    16   17   16 1
    17   18   17 1
    18   19   17 1
    19   20   19 1
    20   21   19 1
    21   22   21 1
    22   23   21 1
    23   24   23 1
    24   25   23 1
    25   26   16 1
    26   27   26 1
    27   28   26 1
    28   29    1 1
    29   30    4 1
    30   31   30 1
    31   32    9 1
    32   33    5 1
    33   34   14 1
    34   35   16 1
    35   36   35 1
    36   37   21 1
    37   38   17 1
    38   39   45 2
    39   40   45 2
    40   41   46 2
    41   42   46 2
    42   43   47 2
    43   44   47 2
    44   45   32 1
    45   46   37 1
    46   47   26 1
    47    7   29 1
    48   11   33 1
    49   19   34 1
    50   23   38 1
@<TRIPOS>SUBSTRUCTURE
     1 RES1 1

@<TRIPOS>CRYSIN
   9.0163    9.6196   20.1560  90.0000  90.0000  90.0000  19 1

