# MOL2 file generated by ConQuest
# Please check atom types

@<TRIPOS>MOLECULE
YUJYEI
    50    53     1
SMALL
NO_CHARGES
****
Generated from CSD

@<TRIPOS>ATOM
      1 O1         0.4656    2.0932    3.5480 O.3       1 RES1    0.0000
      2 O2        -0.2879    0.5981    1.0064 O.3       1 RES1    0.0000
      3 O3         0.4468   -0.9362    2.9141 O.3       1 RES1    0.0000
      4 O4         2.6519    0.8892    4.2422 O.3       1 RES1    0.0000
      5 O5         3.9072    2.6295    4.4994 O.2       1 RES1    0.0000
      6 O6         2.2928    2.3250    5.9088 O.2       1 RES1    0.0000
      7 O7        -3.2933    1.0785    2.9283 O.3       1 RES1    0.0000
      8 O8        -2.5837   -1.6464    2.1007 O.3       1 RES1    0.0000
      9 O9        -5.1404   -1.5195    2.1056 O.3       1 RES1    0.0000
     10 O10       -4.5108   -0.3110    4.7840 O.3       1 RES1    0.0000
     11 O11       -3.1505    0.3522    6.3534 O.2       1 RES1    0.0000
     12 O12       -4.5097    1.8221    5.4704 O.2       1 RES1    0.0000
     13 O13       -4.4997   -2.0835   -0.8696 O.2       1 RES1    0.0000
     14 O14       -2.7228   -3.1717   -0.6937 O.2       1 RES1    0.0000
     15 N1         2.9571    2.0320    4.9574 N.pl3     1 RES1    0.0000
     16 N2        -4.0243    0.7334    5.5998 N.pl3     1 RES1    0.0000
     17 N3        -3.3594   -2.1531   -0.5899 N.pl3     1 RES1    0.0000
     18 C1        -0.6769    2.2728    2.6979 C.3       1 RES1    0.0000
     19 H1        -0.4641    2.8607    1.9554 H         1 RES1    0.0000
     20 H2        -1.4199    2.6508    3.1950 H         1 RES1    0.0000
     21 C2        -1.0189    0.8628    2.1947 C.3       1 RES1    0.0000
     22 C3        -0.5524   -0.0219    3.3855 C.3       1 RES1    0.0000
     23 H3        -1.2986   -0.4784    3.8265 H         1 RES1    0.0000
     24 C4         0.1712    0.9433    4.3174 C.3       1 RES1    0.0000
     25 H4        -0.3720    1.1628    5.1040 H         1 RES1    0.0000
     26 C5         1.4604    0.1996    4.7070 C.3       1 RES1    0.0000
     27 H5         1.4984    0.0361    5.6719 H         1 RES1    0.0000
     28 C6         1.4047   -1.1023    3.9315 C.3       1 RES1    0.0000
     29 H6         2.2720   -1.3025    3.5468 H         1 RES1    0.0000
     30 H7         1.1508   -1.8324    4.5165 H         1 RES1    0.0000
     31 C7        -2.4887    0.7746    1.7880 C.3       1 RES1    0.0000
     32 H8        -2.6605    1.4487    1.0980 H         1 RES1    0.0000
     33 C8        -3.0456   -0.5853    1.2971 C.3       1 RES1    0.0000
     34 C9        -4.5622   -0.3593    1.5206 C.3       1 RES1    0.0000
     35 H9        -5.0185   -0.1049    0.6913 H         1 RES1    0.0000
     36 C10       -4.6324    0.7578    2.5746 C.3       1 RES1    0.0000
     37 H10       -5.0995    1.5440    2.2228 H         1 RES1    0.0000
     38 C11       -5.4028    0.1423    3.7556 C.3       1 RES1    0.0000
     39 H11       -6.0829    0.7546    4.1061 H         1 RES1    0.0000
     40 C12       -6.0190   -1.0920    3.1462 C.3       1 RES1    0.0000
     41 H12       -6.1136   -1.7874    3.8155 H         1 RES1    0.0000
     42 H13       -6.8967   -0.8885    2.7859 H         1 RES1    0.0000
     43 C13       -2.6292   -0.9046   -0.1539 C.3       1 RES1    0.0000
     44 H14       -1.6724   -1.1158   -0.1429 H         1 RES1    0.0000
     45 C14       -2.8429    0.1590   -1.2030 C.3       1 RES1    0.0000
     46 H15       -2.5389   -0.1648   -2.0543 H         1 RES1    0.0000
     47 H16       -2.3486    0.9465   -0.9649 H         1 RES1    0.0000
     48 H17       -3.7777    0.3722   -1.2568 H         1 RES1    0.0000
     49 H18        0.2203    0.0515    1.1725 H         1 RES1    0.0000
     50 H19       -3.3758   -1.9573    2.5648 H         1 RES1    0.0000
@<TRIPOS>BOND
     1    1   18 1
     2    2   21 1
     3    3   22 1
     4    4   15 1
     5    5   15 2
     6    6   15 2
     7    7   31 1
     8    8   33 1
     9    9   34 1
    10   10   16 1
    11   11   16 2
    12   12   16 2
    13   13   17 2
    14   14   17 2
    15   17   43 1
    16   18   19 1
    17   20   18 1
    18   21   18 1
    19   22   21 1
    20   23   22 1
    21   24    1 1
    22   25   24 1
    23   26    4 1
    24   27   26 1
    25   28    3 1
    26   29   28 1
    27   30   28 1
    28   31   21 1
    29   32   31 1
    30   33   31 1
    31   34   33 1
    32   35   34 1
    33   36    7 1
    34   37   36 1
    35   38   10 1
    36   39   38 1
    37   40    9 1
    38   41   40 1
    39   42   40 1
    40   43   33 1
    41   44   43 1
    42   45   43 1
    43   46   45 1
    44   47   45 1
    45   48   45 1
    46   49    2 1
    47   50    8 1
    48   22   24 1
    49   24   26 1
    50   26   28 1
    51   34   36 1
    52   36   38 1
    53   38   40 1
@<TRIPOS>SUBSTRUCTURE
     1 RES1 1

@<TRIPOS>CRYSIN
  11.7950    6.4386   13.1800  90.0000 112.0800  90.0000   4 1

