# MOL2 file generated by ConQuest
# Please check atom types

@<TRIPOS>MOLECULE
YUKDOY
    69    70     1
SMALL
NO_CHARGES
****
Generated from CSD

@<TRIPOS>ATOM
      1 N1         0.7338    6.8547    6.4288 N.2       1 RES1    0.0000
      2 N2         3.2199    2.3308   10.2695 N.3       1 RES1    0.0000
      3 O1        -0.1975    7.7858    5.9225 O.3       1 RES1    0.0000
      4 O2         2.9448    5.4381    6.6991 O.3       1 RES1    0.0000
      5 H1         2.4501    6.0016    6.3673 H         1 RES1    0.0000
      6 C1         0.3949    8.4521    4.8008 C.3       1 RES1    0.0000
      7 H2         0.7468    7.8032    4.1712 H         1 RES1    0.0000
      8 H3         1.1215    9.0220    5.0949 H         1 RES1    0.0000
      9 C2        -0.6834    9.2759    4.1530 C.3       1 RES1    0.0000
     10 H4        -1.0871    9.8483    4.8241 H         1 RES1    0.0000
     11 C3         0.3112    6.3032    7.4969 C.2       1 RES1    0.0000
     12 H5        -0.5126    6.5640    7.8425 H         1 RES1    0.0000
     13 C4         1.0679    5.2861    8.1880 C.ar      1 RES1    0.0000
     14 C5         2.3365    4.8831    7.7827 C.ar      1 RES1    0.0000
     15 C6         3.0317    3.9128    8.4621 C.ar      1 RES1    0.0000
     16 H6         3.8732    3.6619    8.1564 H         1 RES1    0.0000
     17 C7         2.5135    3.2942    9.5983 C.ar      1 RES1    0.0000
     18 C8         1.2395    3.6986   10.0103 C.ar      1 RES1    0.0000
     19 H7         0.8533    3.3086   10.7612 H         1 RES1    0.0000
     20 C9         0.5547    4.6615    9.3193 C.ar      1 RES1    0.0000
     21 H8        -0.2905    4.9085    9.6199 H         1 RES1    0.0000
     22 C10        2.7065    1.7017   11.4805 C.3       1 RES1    0.0000
     23 H9         3.1590    0.8526   11.6051 H         1 RES1    0.0000
     24 H10        1.7635    1.5169   11.3575 H         1 RES1    0.0000
     25 C11        2.8766    2.5211   12.7230 C.3       1 RES1    0.0000
     26 H11        3.8054    2.7372   12.8410 H         1 RES1    0.0000
     27 H12        2.5659    2.0202   13.4822 H         1 RES1    0.0000
     28 H13        2.3655    3.3309   12.6450 H         1 RES1    0.0000
     29 C12        4.5337    1.8781    9.8176 C.3       1 RES1    0.0000
     30 H14        4.5371    1.8448    8.8491 H         1 RES1    0.0000
     31 H15        4.6830    0.9773   10.1449 H         1 RES1    0.0000
     32 C13        5.6412    2.7357   10.2678 C.3       1 RES1    0.0000
     33 H16        5.5267    3.6191    9.9090 H         1 RES1    0.0000
     34 H17        6.4730    2.3710    9.9588 H         1 RES1    0.0000
     35 H18        5.6450    2.7765   11.2263 H         1 RES1    0.0000
     36 N1A       -2.1006    6.8547    1.8771 N.2       1 RES1    0.0000
     37 N2A       -4.5868    2.3308   -1.9635 N.3       1 RES1    0.0000
     38 O1A       -1.1693    7.7858    2.3835 O.3       1 RES1    0.0000
     39 O2A       -4.3117    5.4381    1.6069 O.3       1 RES1    0.0000
     40 H1A       -3.8169    6.0016    1.9386 H         1 RES1    0.0000
     41 C1A       -1.7617    8.4521    3.5051 C.3       1 RES1    0.0000
     42 H2A       -2.1137    7.8032    4.1347 H         1 RES1    0.0000
     43 H3A       -2.4883    9.0220    3.2111 H         1 RES1    0.0000
     44 H4A       -0.2797    9.8483    3.4818 H         1 RES1    0.0000
     45 C3A       -1.6780    6.3032    0.8090 C.2       1 RES1    0.0000
     46 H5A       -0.8542    6.5640    0.4635 H         1 RES1    0.0000
     47 C4A       -2.4347    5.2861    0.1179 C.ar      1 RES1    0.0000
     48 C5A       -3.7034    4.8831    0.5233 C.ar      1 RES1    0.0000
     49 C6A       -4.3986    3.9128   -0.1562 C.ar      1 RES1    0.0000
     50 H6A       -5.2400    3.6619    0.1495 H         1 RES1    0.0000
     51 C7A       -3.8803    3.2942   -1.2924 C.ar      1 RES1    0.0000
     52 C8A       -2.6064    3.6986   -1.7044 C.ar      1 RES1    0.0000
     53 H7A       -2.2201    3.3086   -2.4552 H         1 RES1    0.0000
     54 C9A       -1.9215    4.6615   -1.0133 C.ar      1 RES1    0.0000
     55 H8A       -1.0764    4.9085   -1.3140 H         1 RES1    0.0000
     56 C10A      -4.0733    1.7017   -3.1745 C.3       1 RES1    0.0000
     57 H9A       -4.5259    0.8526   -3.2991 H         1 RES1    0.0000
     58 H10A      -3.1304    1.5169   -3.0516 H         1 RES1    0.0000
     59 C11A      -4.2435    2.5211   -4.4171 C.3       1 RES1    0.0000
     60 H11A      -5.1723    2.7372   -4.5350 H         1 RES1    0.0000
     61 H12A      -3.9327    2.0202   -5.1763 H         1 RES1    0.0000
     62 H13A      -3.7324    3.3309   -4.3390 H         1 RES1    0.0000
     63 C12A      -5.9005    1.8781   -1.5117 C.3       1 RES1    0.0000
     64 H14A      -5.9040    1.8448   -0.5432 H         1 RES1    0.0000
     65 H15A      -6.0498    0.9773   -1.8389 H         1 RES1    0.0000
     66 C13A      -7.0080    2.7357   -1.9619 C.3       1 RES1    0.0000
     67 H16A      -6.8935    3.6191   -1.6030 H         1 RES1    0.0000
     68 H17A      -7.8399    2.3710   -1.6529 H         1 RES1    0.0000
     69 H18A      -7.0119    2.7765   -2.9204 H         1 RES1    0.0000
@<TRIPOS>BOND
     1    1    3 1
     2    2   17 1
     3    3    6 1
     4    4    5 1
     5    6    7 1
     6    8    6 1
     7    9    6 1
     8   10    9 1
     9   11    1 2
    10   12   11 1
    11   13   11 1
    12   14    4 1
    13   15   14 ar
    14   16   15 1
    15   17   15 ar
    16   18   17 ar
    17   19   18 1
    18   20   13 ar
    19   21   20 1
    20   22    2 1
    21   23   22 1
    22   24   22 1
    23   25   22 1
    24   26   25 1
    25   27   25 1
    26   28   25 1
    27   29    2 1
    28   30   29 1
    29   31   29 1
    30   32   29 1
    31   33   32 1
    32   34   32 1
    33   35   32 1
    34   36   38 1
    35   37   51 1
    36   38   41 1
    37   39   40 1
    38   41    9 1
    39   42   41 1
    40   43   41 1
    41   44    9 1
    42   45   36 2
    43   46   45 1
    44   47   45 1
    45   48   39 1
    46   49   48 ar
    47   50   49 1
    48   51   49 ar
    49   52   51 ar
    50   53   52 1
    51   54   47 ar
    52   55   54 1
    53   56   37 1
    54   57   56 1
    55   58   56 1
    56   59   56 1
    57   60   59 1
    58   61   59 1
    59   62   59 1
    60   63   37 1
    61   64   63 1
    62   65   63 1
    63   66   63 1
    64   67   66 1
    65   68   66 1
    66   69   66 1
    67   13   14 ar
    68   18   20 ar
    69   47   48 ar
    70   52   54 ar
@<TRIPOS>SUBSTRUCTURE
     1 RES1 1

@<TRIPOS>CRYSIN
  29.9220    4.9686   16.8353  90.0000  99.3450  90.0000  15 1

