# MOL2 file generated by ConQuest
# Please check atom types

@<TRIPOS>MOLECULE
YUKVOP
    29    30     1
SMALL
NO_CHARGES
****
Generated from CSD

@<TRIPOS>ATOM
      1 O1         3.1943    3.5467    9.3083 O.3       1 RES1    0.0000
      2 O2        -0.0972    4.0452   12.5879 O.3       1 RES1    0.0000
      3 O3        -0.2648    5.2391   14.4755 O.3       1 RES1    0.0000
      4 N1         2.8429    2.3035   12.2876 N.1       1 RES1    0.0000
      5 N2         2.5732    4.6691    9.8313 N.2       1 RES1    0.0000
      6 C1         2.5692    3.2668   11.7463 C.1       1 RES1    0.0000
      7 C2         2.2445    4.4935   11.0541 C.2       1 RES1    0.0000
      8 C3         1.5878    5.6196   11.7890 C.3       1 RES1    0.0000
      9 C4         0.1239    5.3927   12.1854 C.3       1 RES1    0.0000
     10 C5        -0.0721    6.2344   13.4646 C.3       1 RES1    0.0000
     11 C6         1.2324    6.9552   13.7010 C.3       1 RES1    0.0000
     12 C7         2.2664    6.0368   13.0987 C.3       1 RES1    0.0000
     13 C8        -0.7708    4.0516   13.8443 C.3       1 RES1    0.0000
     14 C9        -0.3174    2.8588   14.6417 C.3       1 RES1    0.0000
     15 C10       -2.2574    4.1514   13.6628 C.3       1 RES1    0.0000
     16 H1         3.4291    3.7772    8.5536 H         1 RES1    0.0000
     17 H2         1.6056    6.3990   11.1959 H         1 RES1    0.0000
     18 H3        -0.4923    5.6663   11.4734 H         1 RES1    0.0000
     19 H4        -0.8299    6.8519   13.3960 H         1 RES1    0.0000
     20 H5         1.2388    7.8188   13.2588 H         1 RES1    0.0000
     21 H6         1.3943    7.0870   14.6478 H         1 RES1    0.0000
     22 H7         2.4348    5.2702   13.6689 H         1 RES1    0.0000
     23 H8         3.1012    6.5015   12.9325 H         1 RES1    0.0000
     24 H9        -0.5919    2.0537   14.1965 H         1 RES1    0.0000
     25 H10       -0.7101    2.8908   15.5169 H         1 RES1    0.0000
     26 H11        0.6397    2.8706   14.7195 H         1 RES1    0.0000
     27 H12       -2.6793    4.2346   14.5212 H         1 RES1    0.0000
     28 H13       -2.5805    3.3619   13.2222 H         1 RES1    0.0000
     29 H14       -2.4639    4.9225   13.1292 H         1 RES1    0.0000
@<TRIPOS>BOND
     1    1    5 1
     2    2    9 1
     3    3   10 1
     4    4    6 3
     5    5    7 2
     6    6    7 1
     7    7    8 1
     8    8    9 1
     9    9   10 1
    10   10   11 1
    11   11   12 1
    12   12    8 1
    13   13    2 1
    14   14   13 1
    15   15   13 1
    16   16    1 1
    17   17    8 1
    18   18    9 1
    19   19   10 1
    20   20   11 1
    21   21   11 1
    22   22   12 1
    23   23   12 1
    24   24   14 1
    25   25   14 1
    26   26   14 1
    27   27   15 1
    28   28   15 1
    29   29   15 1
    30    3   13 1
@<TRIPOS>SUBSTRUCTURE
     1 RES1 1

@<TRIPOS>CRYSIN
   8.0970    9.1480   15.2470  90.0000  90.0000  90.0000  19 1

