# MOL2 file generated by ConQuest
# Please check atom types

@<TRIPOS>MOLECULE
YULCOZ
    75    78     3
SMALL
NO_CHARGES
****
Generated from CSD

@<TRIPOS>ATOM
      1 C1        13.6990    2.7247    4.0711 C.ar      1 RES1    0.0000
      2 C2        13.3933    3.1672    5.3775 C.ar      1 RES1    0.0000
      3 C3        13.2274    4.5399    5.5790 C.ar      1 RES1    0.0000
      4 H1        13.0249    4.8562    6.4507 H         1 RES1    0.0000
      5 C4        13.3510    5.4564    4.5408 C.ar      1 RES1    0.0000
      6 H2        13.2432    6.3859    4.7039 H         1 RES1    0.0000
      7 C5        13.6313    4.9947    3.2712 C.ar      1 RES1    0.0000
      8 H3        13.7029    5.6118    2.5530 H         1 RES1    0.0000
      9 C6        13.8087    3.6381    3.0327 C.ar      1 RES1    0.0000
     10 H4        14.0050    3.3342    2.1546 H         1 RES1    0.0000
     11 C7        13.2879    2.2176    6.5072 C.ar      1 RES1    0.0000
     12 C8        12.6089    1.0019    6.3656 C.ar      1 RES1    0.0000
     13 H5        12.1807    0.8003    5.5418 H         1 RES1    0.0000
     14 C9        12.5480    0.0885    7.4037 C.ar      1 RES1    0.0000
     15 H6        12.0989   -0.7418    7.2961 H         1 RES1    0.0000
     16 C10       13.1585    0.4155    8.6044 C.ar      1 RES1    0.0000
     17 C11       13.7946    1.6305    8.8096 C.ar      1 RES1    0.0000
     18 H7        14.1751    1.8452    9.6527 H         1 RES1    0.0000
     19 C12       13.8610    2.5231    7.7523 C.ar      1 RES1    0.0000
     20 H8        14.3009    3.3565    7.8722 H         1 RES1    0.0000
     21 N1        13.1320   -0.5610    9.6855 N.pl3     1 RES1    0.0000
     22 O1        13.9258    1.3951    3.9026 O.3       1 RES1    0.0000
     23 H9        14.0601    1.2350    3.0898 H         1 RES1    0.0000
     24 O2        13.3955   -0.1631   10.8207 O.2       1 RES1    0.0000
     25 O3        12.8419   -1.7329    9.4197 O.2       1 RES1    0.0000
     26 C13        9.4139    1.1196   11.5477 C.ar      2 RES2    0.0000
     27 C14        9.6877    0.6841   10.2439 C.ar      2 RES2    0.0000
     28 C15        9.8268   -0.6987   10.0345 C.ar      2 RES2    0.0000
     29 H10       10.0019   -1.0196    9.1571 H         2 RES2    0.0000
     30 C16        9.7145   -1.6074   11.0768 C.ar      2 RES2    0.0000
     31 H11        9.8194   -2.5370   10.9133 H         2 RES2    0.0000
     32 C17        9.4489   -1.1511   12.3621 C.ar      2 RES2    0.0000
     33 H12        9.3742   -1.7675   13.0810 H         2 RES2    0.0000
     34 C18        9.2944    0.2116   12.5934 C.ar      2 RES2    0.0000
     35 H13        9.1060    0.5240   13.4700 H         2 RES2    0.0000
     36 C19        9.7855    1.6290    9.1096 C.ar      2 RES2    0.0000
     37 C20        9.1584    1.3412    7.8873 C.ar      2 RES2    0.0000
     38 H14        8.7070    0.5125    7.7749 H         2 RES2    0.0000
     39 C21        9.1890    2.2484    6.8420 C.ar      2 RES2    0.0000
     40 H15        8.7561    2.0568    6.0187 H         2 RES2    0.0000
     41 C22        9.8666    3.4465    7.0257 C.ar      2 RES2    0.0000
     42 C23       10.5328    3.7474    8.2036 C.ar      2 RES2    0.0000
     43 H16       11.0032    4.5669    8.2986 H         2 RES2    0.0000
     44 C24       10.4960    2.8340    9.2317 C.ar      2 RES2    0.0000
     45 H17       10.9599    3.0210   10.0399 H         2 RES2    0.0000
     46 N2         9.8342    4.4453    5.9671 N.pl3     2 RES2    0.0000
     47 O4         9.2252    2.4585   11.7421 O.3       2 RES2    0.0000
     48 H18        9.0471    2.6024   12.5499 H         2 RES2    0.0000
     49 O5         9.4806    4.0890    4.8370 O.2       2 RES2    0.0000
     50 O6        10.1587    5.5949    6.2338 O.2       2 RES2    0.0000
     51 C25       16.1558    6.6560    7.7158 C.ar      3 RES3    0.0000
     52 C26       16.5984    6.8538    9.0348 C.ar      3 RES3    0.0000
     53 C27       17.2656    8.0480    9.3080 C.ar      3 RES3    0.0000
     54 H19       17.6033    8.1965   10.1839 H         3 RES3    0.0000
     55 C28       17.4517    9.0198    8.3489 C.ar      3 RES3    0.0000
     56 H20       17.9219    9.8163    8.5661 H         3 RES3    0.0000
     57 C29       16.9548    8.8367    7.0648 C.ar      3 RES3    0.0000
     58 H21       17.0501    9.5185    6.4096 H         3 RES3    0.0000
     59 C30       16.3160    7.6463    6.7504 C.ar      3 RES3    0.0000
     60 H22       15.9850    7.5055    5.8709 H         3 RES3    0.0000
     61 C31       16.3978    5.8557   10.1240 C.ar      3 RES3    0.0000
     62 C32       16.4722    4.4768    9.8970 C.ar      3 RES3    0.0000
     63 H23       16.6208    4.1606    9.0131 H         3 RES3    0.0000
     64 C33       16.3345    3.5658   10.9227 C.ar      3 RES3    0.0000
     65 H24       16.3949    2.6324   10.7543 H         3 RES3    0.0000
     66 C34       16.1038    4.0428   12.2124 C.ar      3 RES3    0.0000
     67 C35       16.0344    5.3971   12.4836 C.ar      3 RES3    0.0000
     68 H25       15.8881    5.7057   13.3709 H         3 RES3    0.0000
     69 C36       16.1816    6.3028   11.4344 C.ar      3 RES3    0.0000
     70 H26       16.1349    7.2354   11.6091 H         3 RES3    0.0000
     71 N3        15.9484    3.0841   13.2920 N.pl3     3 RES3    0.0000
     72 O7        15.9984    1.8891   13.0326 O.2       3 RES3    0.0000
     73 O8        15.7545    3.5142   14.4250 O.2       3 RES3    0.0000
     74 O9        15.5538    5.4856    7.4031 O.3       3 RES3    0.0000
     75 H27       15.6531    5.3310    6.5835 H         3 RES3    0.0000
@<TRIPOS>BOND
     1    1    2 ar
     2    2    3 ar
     3    3    4 1
     4    5    3 ar
     5    6    5 1
     6    7    5 ar
     7    8    7 1
     8    9    1 ar
     9   10    9 1
    10   11    2 1
    11   12   11 ar
    12   13   12 1
    13   14   12 ar
    14   15   14 1
    15   16   14 ar
    16   17   16 ar
    17   18   17 1
    18   19   11 ar
    19   20   19 1
    20   21   16 1
    21   22    1 1
    22   23   22 1
    23   24   21 2
    24   25   21 2
    25   26   27 ar
    26   27   28 ar
    27   28   29 1
    28   30   28 ar
    29   31   30 1
    30   32   30 ar
    31   33   32 1
    32   34   26 ar
    33   35   34 1
    34   36   27 1
    35   37   36 ar
    36   38   37 1
    37   39   37 ar
    38   40   39 1
    39   41   39 ar
    40   42   41 ar
    41   43   42 1
    42   44   36 ar
    43   45   44 1
    44   46   41 1
    45   47   26 1
    46   48   47 1
    47   49   46 2
    48   50   46 2
    49   51   52 ar
    50   52   53 ar
    51   53   54 1
    52   55   53 ar
    53   56   55 1
    54   57   55 ar
    55   58   57 1
    56   59   51 ar
    57   60   59 1
    58   61   52 1
    59   62   61 ar
    60   63   62 1
    61   64   62 ar
    62   65   64 1
    63   66   64 ar
    64   67   66 ar
    65   68   67 1
    66   69   61 ar
    67   70   69 1
    68   71   66 1
    69   72   71 2
    70   73   71 2
    71   74   51 1
    72   75   74 1
    73    7    9 ar
    74   17   19 ar
    75   32   34 ar
    76   42   44 ar
    77   57   59 ar
    78   67   69 ar
@<TRIPOS>SUBSTRUCTURE
     1 RES1 1
     2 RES2 26
     3 RES3 51

@<TRIPOS>CRYSIN
  20.5236    7.6948   18.8253  90.0000  96.5290  90.0000   9 1

