# MOL2 file generated by ConQuest
# Please check atom types

@<TRIPOS>MOLECULE
YULDAM
    60    62     2
SMALL
NO_CHARGES
****
Generated from CSD

@<TRIPOS>ATOM
      1 C1         8.6270    8.1955    1.9339 C.ar      1 RES1    0.0000
      2 C2        11.5712    8.3326    5.7190 C.ar      1 RES1    0.0000
      3 C3        11.6983    8.4682    7.1123 C.ar      1 RES1    0.0000
      4 C4        10.7126    8.0281    7.9998 C.ar      1 RES1    0.0000
      5 H1        10.8407    8.1234    8.9364 H         1 RES1    0.0000
      6 C5         9.5526    7.4555    7.5167 C.ar      1 RES1    0.0000
      7 C6         9.4153    7.3315    6.1278 C.ar      1 RES1    0.0000
      8 H2         8.6147    6.9511    5.7850 H         1 RES1    0.0000
      9 C7        10.3918    7.7368    5.2302 C.ar      1 RES1    0.0000
     10 C8         8.4585    6.9759    8.4376 C.3       1 RES1    0.0000
     11 H3         8.8107    6.8961    9.3488 H         1 RES1    0.0000
     12 H4         8.1366    6.1011    8.1336 H         1 RES1    0.0000
     13 H5         7.7174    7.6182    8.4285 H         1 RES1    0.0000
     14 C9        10.1355    7.6268    3.7670 C.ar      1 RES1    0.0000
     15 C10       10.9710    7.0464    2.7985 C.ar      1 RES1    0.0000
     16 C11       10.6548    7.0201    1.4488 C.ar      1 RES1    0.0000
     17 H6        11.2416    6.6024    0.8287 H         1 RES1    0.0000
     18 C12        9.4784    7.6066    1.0094 C.ar      1 RES1    0.0000
     19 H7         9.2571    7.6051    0.0857 H         1 RES1    0.0000
     20 H8         7.8199    8.6030    1.6415 H         1 RES1    0.0000
     21 C13        8.9474    8.1924    3.2835 C.ar      1 RES1    0.0000
     22 H9         8.3413    8.5868    3.9005 H         1 RES1    0.0000
     23 N1        12.8830    9.0873    7.6806 N.pl3     1 RES1    0.0000
     24 N2        12.2260    6.3666    3.1646 N.pl3     1 RES1    0.0000
     25 O1        12.4669    8.7500    4.8089 O.3       1 RES1    0.0000
     26 H10       13.1434    9.0548    5.2013 H         1 RES1    0.0000
     27 O2        13.7921    9.4569    6.9163 O.2       1 RES1    0.0000
     28 O3        12.9645    9.2250    8.8960 O.2       1 RES1    0.0000
     29 O4        12.3466    5.9288    4.3053 O.2       1 RES1    0.0000
     30 O5        13.0834    6.2406    2.2993 O.2       1 RES1    0.0000
     31 C14        0.3813    7.1099    5.5684 C.ar      2 RES2    0.0000
     32 C15        0.2726    6.9666    6.9601 C.ar      2 RES2    0.0000
     33 C16        1.2802    7.3958    7.8294 C.ar      2 RES2    0.0000
     34 H11        1.1656    7.3036    8.7691 H         2 RES2    0.0000
     35 C17        2.4364    7.9499    7.3314 C.ar      2 RES2    0.0000
     36 C18        2.5581    8.0831    5.9408 C.ar      2 RES2    0.0000
     37 H12        3.3590    8.4527    5.5858 H         2 RES2    0.0000
     38 C19        1.5580    7.6973    5.0621 C.ar      2 RES2    0.0000
     39 C20        3.5517    8.4194    8.2356 C.3       2 RES2    0.0000
     40 H13        3.2361    8.4318    9.1635 H         2 RES2    0.0000
     41 H14        3.8272    9.3221    7.9723 H         2 RES2    0.0000
     42 H15        4.3149    7.8088    8.1575 H         2 RES2    0.0000
     43 C21        1.7719    7.8127    3.5923 C.ar      2 RES2    0.0000
     44 C22        0.8729    8.3814    2.6748 C.ar      2 RES2    0.0000
     45 C23        1.0965    8.3690    1.3052 C.ar      2 RES2    0.0000
     46 H16        0.4591    8.7518    0.7132 H         2 RES2    0.0000
     47 C24        2.2554    7.7957    0.8076 C.ar      2 RES2    0.0000
     48 H17        2.4115    7.7701   -0.1295 H         2 RES2    0.0000
     49 C25        3.1866    7.2595    1.6879 C.ar      2 RES2    0.0000
     50 H18        3.9939    6.8868    1.3546 H         2 RES2    0.0000
     51 C26        2.9409    7.2649    3.0523 C.ar      2 RES2    0.0000
     52 H19        3.5852    6.8860    3.6375 H         2 RES2    0.0000
     53 N3        -0.9114    6.3762    7.5426 N.pl3     2 RES2    0.0000
     54 N4        -0.3526    9.0695    3.1168 N.pl3     2 RES2    0.0000
     55 O6        -0.5361    6.7164    4.6698 O.3       2 RES2    0.0000
     56 H20       -1.2095    6.4149    5.0718 H         2 RES2    0.0000
     57 O7        -1.0143    6.3134    8.7627 O.2       2 RES2    0.0000
     58 O8        -1.8035    5.9508    6.7890 O.2       2 RES2    0.0000
     59 O9        -0.3754    9.5598    4.2449 O.2       2 RES2    0.0000
     60 O10       -1.2834    9.1524    2.3236 O.2       2 RES2    0.0000
@<TRIPOS>BOND
     1    1   18 ar
     2    2    3 ar
     3    3    4 ar
     4    4    5 1
     5    6    4 ar
     6    7    6 ar
     7    8    7 1
     8    9    2 ar
     9   10    6 1
    10   11   10 1
    11   12   10 1
    12   13   10 1
    13   14    9 1
    14   15   14 ar
    15   16   15 ar
    16   17   16 1
    17   18   16 ar
    18   19   18 1
    19   20    1 1
    20   21    1 ar
    21   22   21 1
    22   23    3 1
    23   24   15 1
    24   25    2 1
    25   26   25 1
    26   27   23 2
    27   28   23 2
    28   29   24 2
    29   30   24 2
    30   31   32 ar
    31   32   33 ar
    32   33   34 1
    33   35   33 ar
    34   36   35 ar
    35   37   36 1
    36   38   31 ar
    37   39   35 1
    38   40   39 1
    39   41   39 1
    40   42   39 1
    41   43   38 1
    42   44   43 ar
    43   45   44 ar
    44   46   45 1
    45   47   45 ar
    46   48   47 1
    47   49   47 ar
    48   50   49 1
    49   51   43 ar
    50   52   51 1
    51   53   32 1
    52   54   44 1
    53   55   31 1
    54   56   55 1
    55   57   53 2
    56   58   53 2
    57   59   54 2
    58   60   54 2
    59    7    9 ar
    60   14   21 ar
    61   36   38 ar
    62   49   51 ar
@<TRIPOS>SUBSTRUCTURE
     1 RES1 1
     2 RES2 31

@<TRIPOS>CRYSIN
  15.6137    7.7484   21.2252  90.0000 110.1920  90.0000 231 1

