# MOL2 file generated by ConQuest
# Please check atom types

@<TRIPOS>MOLECULE
YULTUV
    47    49     1
SMALL
NO_CHARGES
****
Generated from CSD

@<TRIPOS>ATOM
      1 O1         3.4796    7.0303    5.8432 O.3       1 RES1    0.0000
      2 H1         3.0005    7.1480    5.1638 H         1 RES1    0.0000
      3 O2         3.0233    7.7230    3.3513 O.2       1 RES1    0.0000
      4 O3         4.8284    8.0132    2.0352 O.3       1 RES1    0.0000
      5 O4         8.2034    2.5227   -0.1157 O.2       1 RES1    0.0000
      6 O5         8.0516    1.3985    1.7281 O.2       1 RES1    0.0000
      7 O6         9.8351    6.7738    5.3163 O.2       1 RES1    0.0000
      8 N1         7.9894    2.4501    1.0945 N.pl3     1 RES1    0.0000
      9 C1         4.7809    7.0706    5.4889 C.2       1 RES1    0.0000
     10 C2         5.2115    7.3625    4.2386 C.2       1 RES1    0.0000
     11 C3         6.6806    7.3109    3.8678 C.3       1 RES1    0.0000
     12 H2         6.8536    8.0626    3.2308 H         1 RES1    0.0000
     13 C4         7.5549    7.5585    5.1223 C.3       1 RES1    0.0000
     14 H3         7.3976    8.5062    5.4016 H         1 RES1    0.0000
     15 C5         7.1986    6.6827    6.3179 C.3       1 RES1    0.0000
     16 H4         7.4740    5.7399    6.1291 H         1 RES1    0.0000
     17 C6         5.6784    6.7181    6.6319 C.3       1 RES1    0.0000
     18 H5         5.4189    5.8028    6.9406 H         1 RES1    0.0000
     19 C7         5.5504    7.6601    7.8435 C.3       1 RES1    0.0000
     20 H6         5.5686    8.6094    7.5641 H         1 RES1    0.0000
     21 H7         4.7174    7.4851    8.3484 H         1 RES1    0.0000
     22 C8         6.7889    7.2980    8.6694 C.3       1 RES1    0.0000
     23 H8         7.0031    8.0126    9.3208 H         1 RES1    0.0000
     24 H9         6.6557    6.4464    9.1564 H         1 RES1    0.0000
     25 C9         7.8889    7.1641    7.6213 C.3       1 RES1    0.0000
     26 H10        8.5687    6.5068    7.9154 H         1 RES1    0.0000
     27 H11        8.3352    8.0360    7.4742 H         1 RES1    0.0000
     28 C10        4.2412    7.7013    3.2018 C.2       1 RES1    0.0000
     29 C11        3.9586    8.4223    0.9498 C.3       1 RES1    0.0000
     30 H12        3.5066    9.2739    1.1724 H         1 RES1    0.0000
     31 H13        3.2675    7.7327    0.7831 H         1 RES1    0.0000
     32 C12        4.8333    8.5949   -0.2675 C.3       1 RES1    0.0000
     33 H14        5.2512    7.7376   -0.4945 H         1 RES1    0.0000
     34 H15        5.5306    9.2570   -0.0781 H         1 RES1    0.0000
     35 H16        4.2880    8.9013   -1.0209 H         1 RES1    0.0000
     36 C13        7.0158    6.0092    3.1402 C.ar      1 RES1    0.0000
     37 C14        6.6100    4.7713    3.6445 C.ar      1 RES1    0.0000
     38 H17        6.1008    4.7390    4.4457 H         1 RES1    0.0000
     39 C15        6.9340    3.5930    3.0008 C.ar      1 RES1    0.0000
     40 H18        6.6804    2.7518    3.3621 H         1 RES1    0.0000
     41 C16        7.6426    3.6760    1.8083 C.ar      1 RES1    0.0000
     42 C17        8.0460    4.8809    1.2647 C.ar      1 RES1    0.0000
     43 H19        8.5200    4.9100    0.4424 H         1 RES1    0.0000
     44 C18        7.7418    6.0463    1.9495 C.ar      1 RES1    0.0000
     45 H20        8.0312    6.8827    1.6030 H         1 RES1    0.0000
     46 C19        9.0193    7.4521    4.7405 C.2       1 RES1    0.0000
     47 H21        9.3165    7.9561    3.9926 H         1 RES1    0.0000
@<TRIPOS>BOND
     1    1    2 1
     2    3   28 2
     3    4   28 1
     4    5    8 2
     5    6    8 2
     6    7   46 2
     7    8   41 1
     8    9    1 1
     9   10    9 2
    10   11   10 1
    11   12   11 1
    12   13   11 1
    13   14   13 1
    14   15   13 1
    15   16   15 1
    16   17    9 1
    17   18   17 1
    18   19   17 1
    19   20   19 1
    20   21   19 1
    21   22   19 1
    22   23   22 1
    23   24   22 1
    24   25   15 1
    25   26   25 1
    26   27   25 1
    27   28   10 1
    28   29    4 1
    29   30   29 1
    30   31   29 1
    31   32   29 1
    32   33   32 1
    33   34   32 1
    34   35   32 1
    35   36   11 1
    36   37   36 ar
    37   38   37 1
    38   39   37 ar
    39   40   39 1
    40   41   39 ar
    41   42   41 ar
    42   43   42 1
    43   44   36 ar
    44   45   44 1
    45   46   13 1
    46   47   46 1
    47   15   17 1
    48   22   25 1
    49   42   44 ar
@<TRIPOS>SUBSTRUCTURE
     1 RES1 1

@<TRIPOS>CRYSIN
   9.2930    8.0650   11.8460  90.0000  92.9800  90.0000   4 1

