# MOL2 file generated by ConQuest
# Please check atom types

@<TRIPOS>MOLECULE
YULTEG
    32    34     1
SMALL
NO_CHARGES
****
Generated from CSD

@<TRIPOS>ATOM
      1 O1         6.1479    2.8425   11.7641 O.2       1 RES1    0.0000
      2 N1         7.2368    2.9493   11.0296 N.pl3     1 RES1    0.0000
      3 N2         6.6899    0.0806    8.8054 N.pl3     1 RES1    0.0000
      4 N3         7.5618   -0.9228    9.0885 N.2       1 RES1    0.0000
      5 N4         8.8204    5.7685   12.7528 N.pl3     1 RES1    0.0000
      6 N5         9.7853    5.3669   13.6212 N.2       1 RES1    0.0000
      7 C1         8.1311    3.9428   11.2953 C.ar      1 RES1    0.0000
      8 C2         9.2620    4.0592   10.5245 C.ar      1 RES1    0.0000
      9 H1         9.8839    4.7553   10.7015 H         1 RES1    0.0000
     10 C3         9.5027    3.1684    9.4896 C.ar      1 RES1    0.0000
     11 H2        10.2891    3.2422    8.9621 H         1 RES1    0.0000
     12 C4         8.5810    2.1741    9.2394 C.ar      1 RES1    0.0000
     13 H3         8.7321    1.5595    8.5310 H         1 RES1    0.0000
     14 C5         7.4444    2.0646   10.0071 C.ar      1 RES1    0.0000
     15 C6         6.3598    1.0437    9.8363 C.3       1 RES1    0.0000
     16 H4         6.2193    0.5690   10.6940 H         1 RES1    0.0000
     17 H5         5.5146    1.5009    9.5976 H         1 RES1    0.0000
     18 C7         6.3122    0.0799    7.5086 C.2       1 RES1    0.0000
     19 H6         5.7216    0.6961    7.0915 H         1 RES1    0.0000
     20 C8         6.9403   -0.9775    6.9118 C.2       1 RES1    0.0000
     21 H7         6.8756   -1.2529    6.0056 H         1 RES1    0.0000
     22 C9         7.6973   -1.5633    7.9260 C.2       1 RES1    0.0000
     23 H8         8.2454   -2.3293    7.8031 H         1 RES1    0.0000
     24 C10        7.7490    4.8656   12.4194 C.3       1 RES1    0.0000
     25 H9         6.9505    5.3889   12.1559 H         1 RES1    0.0000
     26 H10        7.5120    4.3293   13.2180 H         1 RES1    0.0000
     27 C11        9.0812    6.9766   12.2363 C.2       1 RES1    0.0000
     28 H11        8.5515    7.4429   11.6010 H         1 RES1    0.0000
     29 C12       10.2469    7.4147   12.7912 C.2       1 RES1    0.0000
     30 H12       10.6922    8.2386   12.6317 H         1 RES1    0.0000
     31 C13       10.6345    6.3946   13.6356 C.2       1 RES1    0.0000
     32 H13       11.4211    6.4220   14.1682 H         1 RES1    0.0000
@<TRIPOS>BOND
     1    1    2 1
     2    2    7 ar
     3    3    4 1
     4    4   22 2
     5    5    6 1
     6    6   31 2
     7    7    8 ar
     8    8    9 1
     9   10    8 ar
    10   11   10 1
    11   12   10 ar
    12   13   12 1
    13   14    2 ar
    14   15    3 1
    15   16   15 1
    16   17   15 1
    17   18    3 1
    18   19   18 1
    19   20   18 2
    20   21   20 1
    21   22   20 1
    22   23   22 1
    23   24    5 1
    24   25   24 1
    25   26   24 1
    26   27    5 1
    27   28   27 1
    28   29   27 2
    29   30   29 1
    30   31   29 1
    31   32   31 1
    32    7   24 1
    33   12   14 ar
    34   14   15 1
@<TRIPOS>SUBSTRUCTURE
     1 RES1 1

@<TRIPOS>CRYSIN
  22.0230    7.6072   14.9170  90.0000  90.0000  90.0000  60 1

