# MOL2 file generated by ConQuest
# Please check atom types

@<TRIPOS>MOLECULE
YULXAF
    46    50     1
SMALL
NO_CHARGES
****
Generated from CSD

@<TRIPOS>ATOM
      1 O1         5.7792    0.4428    1.8682 O.3       1 RES1    0.0000
      2 C1         6.3492    0.4855    3.0853 C.2       1 RES1    0.0000
      3 N1         7.6916    0.5235    3.1790 N.3       1 RES1    0.0000
      4 C2         8.2153    0.5133    4.4747 C.ar      1 RES1    0.0000
      5 C3         7.3504    0.5498    5.5816 C.ar      1 RES1    0.0000
      6 C4         5.8745    0.5936    5.4560 C.2       1 RES1    0.0000
      7 C5         5.4195    0.4921    4.0964 C.2       1 RES1    0.0000
      8 C6         4.1367    0.4483    3.4199 C.2       1 RES1    0.0000
      9 C7         4.3942    0.4052    2.0929 C.2       1 RES1    0.0000
     10 C8         3.6160    0.2533    0.8632 C.ar      1 RES1    0.0000
     11 C9         4.0777    0.8163   -0.3336 C.ar      1 RES1    0.0000
     12 C10        3.3710    0.6418   -1.4939 C.ar      1 RES1    0.0000
     13 C11        2.1920   -0.0672   -1.4945 C.ar      1 RES1    0.0000
     14 C12        1.7126   -0.6257   -0.3209 C.ar      1 RES1    0.0000
     15 C13        2.4283   -0.4760    0.8521 C.ar      1 RES1    0.0000
     16 H1         2.1384   -0.8893    1.6270 H         1 RES1    0.0000
     17 H2         0.9014   -1.1295   -0.2937 H         1 RES1    0.0000
     18 H3         1.6858   -0.1672   -2.2979 H         1 RES1    0.0000
     19 H4         3.6997    0.9959   -2.3095 H         1 RES1    0.0000
     20 H5         4.8861    1.3171   -0.3304 H         1 RES1    0.0000
     21 C14        2.7945    0.4943    4.0525 C.ar      1 RES1    0.0000
     22 C15        1.7753    1.2514    3.4730 C.ar      1 RES1    0.0000
     23 C16        0.5190    1.2959    4.0372 C.ar      1 RES1    0.0000
     24 C17        0.2860    0.5950    5.1983 C.ar      1 RES1    0.0000
     25 N2        -1.0537    0.6512    5.7929 N.pl3     1 RES1    0.0000
     26 O2        -1.9125    1.2879    5.2137 O.2       1 RES1    0.0000
     27 O3        -1.2761    0.0329    6.8090 O.2       1 RES1    0.0000
     28 C18        1.2669   -0.1562    5.8111 C.ar      1 RES1    0.0000
     29 C19        2.5192   -0.2059    5.2220 C.ar      1 RES1    0.0000
     30 H6         3.1715   -0.7323    5.6086 H         1 RES1    0.0000
     31 H7         1.0737   -0.5826    6.6333 H         1 RES1    0.0000
     32 H8        -0.1774    1.7946    3.6062 H         1 RES1    0.0000
     33 H9         1.9470    1.7588    2.7050 H         1 RES1    0.0000
     34 O4         5.1385    0.6936    6.4448 O.2       1 RES1    0.0000
     35 C20        7.9085    0.5337    6.8709 C.ar      1 RES1    0.0000
     36 C21        9.2729    0.4855    7.0579 C.ar      1 RES1    0.0000
     37 C22       10.1102    0.4534    5.9594 C.ar      1 RES1    0.0000
     38 C23        9.6087    0.4680    4.6892 C.ar      1 RES1    0.0000
     39 H10       10.1668    0.4344    3.9049 H         1 RES1    0.0000
     40 H11       11.0443    0.4227    6.1326 H         1 RES1    0.0000
     41 H12        9.6155    0.4651    7.9249 H         1 RES1    0.0000
     42 H13        7.3302    0.5490    7.5677 H         1 RES1    0.0000
     43 C24        8.5213    0.5607    1.9653 C.3       1 RES1    0.0000
     44 H14        9.1254    1.2879    1.9958 H         1 RES1    0.0000
     45 H15        7.9577    0.6717    1.1865 H         1 RES1    0.0000
     46 H16        9.0042   -0.2555    1.9124 H         1 RES1    0.0000
@<TRIPOS>BOND
     1    1    2 1
     2    2    3 1
     3    3    4 1
     4    4    5 ar
     5    5    6 1
     6    6    7 1
     7    7    2 2
     8    8    7 1
     9    9    1 1
    10   10    9 1
    11   11   10 ar
    12   12   11 ar
    13   13   12 ar
    14   14   13 ar
    15   15   10 ar
    16   16   15 1
    17   17   14 1
    18   18   13 1
    19   19   12 1
    20   20   11 1
    21   21    8 1
    22   22   21 ar
    23   23   22 ar
    24   24   23 ar
    25   25   24 1
    26   26   25 2
    27   27   25 2
    28   28   24 ar
    29   29   21 ar
    30   30   29 1
    31   31   28 1
    32   32   23 1
    33   33   22 1
    34   34    6 2
    35   35    5 ar
    36   36   35 ar
    37   37   36 ar
    38   38    4 ar
    39   39   38 1
    40   40   37 1
    41   41   36 1
    42   42   35 1
    43   43    3 1
    44   44   43 1
    45   45   43 1
    46   46   43 1
    47    8    9 2
    48   14   15 ar
    49   28   29 ar
    50   37   38 ar
@<TRIPOS>SUBSTRUCTURE
     1 RES1 1

@<TRIPOS>CRYSIN
  15.5380    7.3010   16.8710  90.0000  98.4600  90.0000  14 1

