# MOL2 file generated by ConQuest
# Please check atom types

@<TRIPOS>MOLECULE
YUMBUE
    47    49     1
SMALL
NO_CHARGES
****
Generated from CSD

@<TRIPOS>ATOM
      1 C1         2.2942   16.2625    4.7243 C.ar      1 RES1    0.0000
      2 H1         1.8429   16.7373    5.3843 H         1 RES1    0.0000
      3 C2         2.0355   16.5304    3.3878 C.ar      1 RES1    0.0000
      4 H2         1.4230   17.1908    3.1581 H         1 RES1    0.0000
      5 C3         2.6783   15.8278    2.4051 C.ar      1 RES1    0.0000
      6 H3         2.5026   16.0071    1.5098 H         1 RES1    0.0000
      7 C4         3.5771   14.8620    2.7470 C.ar      1 RES1    0.0000
      8 H4         4.0085   14.3769    2.0815 H         1 RES1    0.0000
      9 C5         3.8537   14.5983    4.0771 C.ar      1 RES1    0.0000
     10 H5         4.4757   13.9420    4.2955 H         1 RES1    0.0000
     11 C6         3.2158   15.2976    5.0849 C.ar      1 RES1    0.0000
     12 C7         3.5211   15.0501    6.5603 C.3       1 RES1    0.0000
     13 H6         3.4265   15.9071    7.0276 H         1 RES1    0.0000
     14 C8         4.9433   14.5794    6.7599 C.2       1 RES1    0.0000
     15 C9         5.2685   13.3569    7.1565 C.2       1 RES1    0.0000
     16 H7         6.1717   13.1536    7.2381 H         1 RES1    0.0000
     17 C10        4.2873   12.2934    7.4779 C.3       1 RES1    0.0000
     18 H8         4.2543   12.1745    8.4403 H         1 RES1    0.0000
     19 H9         4.5876   11.4582    7.0863 H         1 RES1    0.0000
     20 C11        2.8748   12.6080    6.9636 C.3       1 RES1    0.0000
     21 H10        2.9165   12.4792    5.9935 H         1 RES1    0.0000
     22 C12        2.4905   14.0785    7.1620 C.3       1 RES1    0.0000
     23 H11        1.6319   14.2303    6.7160 H         1 RES1    0.0000
     24 C13        1.8097   11.6440    7.4528 C.ar      1 RES1    0.0000
     25 C14        1.6771   11.3033    8.7895 C.ar      1 RES1    0.0000
     26 H12        2.2627   11.6652    9.4147 H         1 RES1    0.0000
     27 C15        0.6868   10.4343    9.2052 C.ar      1 RES1    0.0000
     28 H13        0.6105   10.2210   10.1079 H         1 RES1    0.0000
     29 C16       -0.1806    9.8868    8.3057 C.ar      1 RES1    0.0000
     30 H14       -0.8466    9.3047    8.5920 H         1 RES1    0.0000
     31 C17       -0.0628   10.2005    6.9781 C.ar      1 RES1    0.0000
     32 H15       -0.6463    9.8233    6.3598 H         1 RES1    0.0000
     33 C18        0.9223   11.0782    6.5520 C.ar      1 RES1    0.0000
     34 H16        0.9887   11.2908    5.6484 H         1 RES1    0.0000
     35 C19        6.0245   15.5492    6.4428 C.2       1 RES1    0.0000
     36 C20        6.4312   17.8578    5.9439 C.3       1 RES1    0.0000
     37 H17        6.3567   18.5978    6.5662 H         1 RES1    0.0000
     38 H18        7.3473   17.5373    5.9692 H         1 RES1    0.0000
     39 C21        6.1450   18.2932    4.6952 C.3       1 RES1    0.0000
     40 H19        6.2897   17.5815    4.0678 H         1 RES1    0.0000
     41 H20        6.7140   19.0350    4.4756 H         1 RES1    0.0000
     42 H21        5.2269   18.5722    4.6557 H         1 RES1    0.0000
     43 N1         2.3194   14.3957    8.6319 N.pl3     1 RES1    0.0000
     44 O1         7.1782   15.2676    6.2859 O.2       1 RES1    0.0000
     45 O2         5.5429   16.7936    6.3616 O.3       1 RES1    0.0000
     46 O3         3.2684   14.3101    9.3638 O.2       1 RES1    0.0000
     47 O4         1.2327   14.6850    9.0200 O.2       1 RES1    0.0000
@<TRIPOS>BOND
     1    1    2 1
     2    3    1 ar
     3    4    3 1
     4    5    3 ar
     5    6    5 1
     6    7    5 ar
     7    8    7 1
     8    9    7 ar
     9   10    9 1
    10   11    1 ar
    11   12   11 1
    12   13   12 1
    13   14   12 1
    14   15   14 2
    15   16   15 1
    16   17   15 1
    17   18   17 1
    18   19   17 1
    19   20   17 1
    20   21   20 1
    21   22   12 1
    22   23   22 1
    23   24   20 1
    24   25   24 ar
    25   26   25 1
    26   27   25 ar
    27   28   27 1
    28   29   27 ar
    29   30   29 1
    30   31   29 ar
    31   32   31 1
    32   33   24 ar
    33   34   33 1
    34   35   14 1
    35   36   37 1
    36   38   36 1
    37   39   36 1
    38   40   39 1
    39   41   39 1
    40   42   39 1
    41   43   22 1
    42   44   35 2
    43   45   35 1
    44   46   43 2
    45   47   43 2
    46    9   11 ar
    47   20   22 1
    48   31   33 ar
    49   36   45 1
@<TRIPOS>SUBSTRUCTURE
     1 RES1 1

@<TRIPOS>CRYSIN
   7.7034   23.2560   10.1217  90.0000  91.3250  90.0000  14 1

