# MOL2 file generated by ConQuest
# Please check atom types

@<TRIPOS>MOLECULE
YUMNIE
   110   118     2
SMALL
NO_CHARGES
****
Generated from CSD

@<TRIPOS>ATOM
      1 C1         2.9292   13.4770   10.5130 C.ar      1 RES1    0.0000
      2 C2         2.2979   14.4735   11.2052 C.ar      1 RES1    0.0000
      3 H1         2.4628   15.3692   11.0198 H         1 RES1    0.0000
      4 C3         1.4007   14.0961   12.1948 C.ar      1 RES1    0.0000
      5 H2         0.9492   14.7522   12.6751 H         1 RES1    0.0000
      6 C4         1.1645   12.7806   12.4787 C.ar      1 RES1    0.0000
      7 H3         0.5630   12.5511   13.1491 H         1 RES1    0.0000
      8 C5         1.8270   11.7807   11.7655 C.ar      1 RES1    0.0000
      9 H4         1.6592   10.8839   11.9478 H         1 RES1    0.0000
     10 C6         2.7272   12.1334   10.7901 C.ar      1 RES1    0.0000
     11 C7         3.6020   11.3116    9.8459 C.3       1 RES1    0.0000
     12 C8         4.2794   12.4301    9.0248 C.2       1 RES1    0.0000
     13 C9         4.5913   10.3140   10.5624 C.3       1 RES1    0.0000
     14 C10        5.9579   10.1517    9.8898 C.3       1 RES1    0.0000
     15 H5         6.4183   11.0048    9.9063 H         1 RES1    0.0000
     16 H6         6.4867    9.5213   10.4029 H         1 RES1    0.0000
     17 C11        3.7432    9.0276   10.6805 C.3       1 RES1    0.0000
     18 H7         3.0703    9.1966   11.3735 H         1 RES1    0.0000
     19 C12        3.0079    9.0186    9.3488 C.3       1 RES1    0.0000
     20 H8         3.5159    8.4902    8.7000 H         1 RES1    0.0000
     21 C13        1.5552    8.5629    9.3430 C.3       1 RES1    0.0000
     22 H9         1.1170    8.7645   10.1847 H         1 RES1    0.0000
     23 H10        1.4824    7.6124    9.1640 H         1 RES1    0.0000
     24 C14        0.9759    9.3915    8.2009 C.3       1 RES1    0.0000
     25 H11        1.2017    9.0074    7.3407 H         1 RES1    0.0000
     26 H12        0.0104    9.4620    8.2737 H         1 RES1    0.0000
     27 C15        1.6295   10.7238    8.3858 C.3       1 RES1    0.0000
     28 H13        1.6904   11.1974    7.5413 H         1 RES1    0.0000
     29 H14        1.1304   11.2680    9.0160 H         1 RES1    0.0000
     30 C16        4.4131    7.7232   11.0334 C.ar      1 RES1    0.0000
     31 C17        4.1383    7.1119   12.2400 C.ar      1 RES1    0.0000
     32 H15        3.5827    7.5396   12.8506 H         1 RES1    0.0000
     33 C18        4.6715    5.8747   12.5592 C.ar      1 RES1    0.0000
     34 H16        4.4636    5.4862   13.3773 H         1 RES1    0.0000
     35 C19        5.5033    5.2096   11.6900 C.ar      1 RES1    0.0000
     36 C20        5.7766    5.8131   10.4939 C.ar      1 RES1    0.0000
     37 H17        6.3381    5.3821    9.8913 H         1 RES1    0.0000
     38 C21        5.2449    7.0470   10.1529 C.ar      1 RES1    0.0000
     39 H18        5.4484    7.4243    9.3270 H         1 RES1    0.0000
     40 C22        6.1123    3.8851   12.0491 C.3       1 RES1    0.0000
     41 H19        5.4914    3.3981   12.6124 H         1 RES1    0.0000
     42 H20        6.2401    3.3701   11.2380 H         1 RES1    0.0000
     43 C23        7.4195    3.9937   12.7578 C.3       1 RES1    0.0000
     44 H21        8.0478    4.4595   12.2011 H         1 RES1    0.0000
     45 H22        7.7522    3.1137   12.9484 H         1 RES1    0.0000
     46 H23        7.2992    4.4763   13.5779 H         1 RES1    0.0000
     47 C24        6.6367    3.1260    4.9935 C.ar      2 RES2    0.0000
     48 C25        7.2798    2.1105    4.3207 C.ar      2 RES2    0.0000
     49 H24        7.1120    1.2170    4.5143 H         2 RES2    0.0000
     50 C26        8.1889    2.4800    3.3431 C.ar      2 RES2    0.0000
     51 H25        8.6523    1.8216    2.8766 H         2 RES2    0.0000
     52 C27        8.4176    3.7989    3.0549 C.ar      2 RES2    0.0000
     53 H26        9.0222    4.0240    2.3850 H         2 RES2    0.0000
     54 C28        7.7656    4.7909    3.7381 C.ar      2 RES2    0.0000
     55 H27        7.9334    5.6832    3.5387 H         2 RES2    0.0000
     56 C29        6.8565    4.4595    4.7252 C.ar      2 RES2    0.0000
     57 C30        5.9787    5.3026    5.6451 C.3       2 RES2    0.0000
     58 C31        5.2686    4.1874    6.4720 C.2       2 RES2    0.0000
     59 C32        5.0042    6.2878    4.9028 C.3       2 RES2    0.0000
     60 C33        3.6243    6.4535    5.5661 C.3       2 RES2    0.0000
     61 H28        3.0970    7.0761    5.0409 H         2 RES2    0.0000
     62 H29        3.1668    5.5993    5.5551 H         2 RES2    0.0000
     63 C34        5.8420    7.5821    4.8137 C.3       2 RES2    0.0000
     64 H30        6.5282    7.4310    4.1306 H         2 RES2    0.0000
     65 C35        6.5505    7.6023    6.1577 C.3       2 RES2    0.0000
     66 H31        6.0202    8.1207    6.7990 H         2 RES2    0.0000
     67 C36        8.0003    8.0580    6.2116 C.3       2 RES2    0.0000
     68 H32        8.4637    7.8587    5.3845 H         2 RES2    0.0000
     69 H33        8.0656    9.0085    6.3927 H         2 RES2    0.0000
     70 C37        8.5439    7.2384    7.3610 C.3       2 RES2    0.0000
     71 H34        9.5109    7.1903    7.3307 H         2 RES2    0.0000
     72 H35        8.2721    7.6101    8.2160 H         2 RES2    0.0000
     73 C38        7.9275    5.8848    7.1398 C.3       2 RES2    0.0000
     74 H36        8.4503    5.3619    6.5131 H         2 RES2    0.0000
     75 H37        7.8502    5.3955    7.9727 H         2 RES2    0.0000
     76 C39        5.1350    8.8719    4.4493 C.ar      2 RES2    0.0000
     77 C40        4.3581    9.5863    5.3577 C.ar      2 RES2    0.0000
     78 H38        4.2066    9.2403    6.2071 H         2 RES2    0.0000
     79 C41        3.8115   10.8000    5.0088 C.ar      2 RES2    0.0000
     80 H39        3.2975   11.2556    5.6353 H         2 RES2    0.0000
     81 C42        3.9957   11.3598    3.7744 C.ar      2 RES2    0.0000
     82 C43        4.7592   10.6578    2.8869 C.ar      2 RES2    0.0000
     83 H40        4.9047   11.0116    2.0389 H         2 RES2    0.0000
     84 C44        5.3251    9.4396    3.2084 C.ar      2 RES2    0.0000
     85 H41        5.8420    8.9951    2.5756 H         2 RES2    0.0000
     86 C45        3.3778   12.7022    3.4233 C.3       2 RES2    0.0000
     87 H42        3.4698   13.2956    4.1832 H         2 RES2    0.0000
     88 H43        3.8754   13.0896    2.6860 H         2 RES2    0.0000
     89 C46        1.9488   12.6361    3.0471 C.3       2 RES2    0.0000
     90 H44        1.8448   12.0651    2.2797 H         2 RES2    0.0000
     91 H45        1.6324   13.5173    2.8340 H         2 RES2    0.0000
     92 H46        1.4393   12.2823    3.7795 H         2 RES2    0.0000
     93 N1         3.8620   13.6136    9.4730 N.am      1 RES1    0.0000
     94 N2         4.9558   10.8638   11.9260 N.pl3     1 RES1    0.0000
     95 N3         2.9537   10.4170    8.9026 N.3       1 RES1    0.0000
     96 N4         5.6786    2.9972    6.0220 N.am      2 RES2    0.0000
     97 N5         4.6864    5.7224    3.5457 N.pl3     2 RES2    0.0000
     98 N6         6.6113    6.1994    6.5931 N.3       2 RES2    0.0000
     99 O1         5.0219   12.2499    8.0620 O.2       1 RES1    0.0000
    100 O2         5.4989   11.9509   11.9382 O.2       1 RES1    0.0000
    101 O3         4.7755   10.1830   12.9088 O.2       1 RES1    0.0000
    102 O4         5.8823    9.7027    8.5591 O.3       1 RES1    0.0000
    103 H47        5.4528   10.2401    8.1132 H         1 RES1    0.0000
    104 O5         4.5320    4.3710    7.4365 O.2       2 RES2    0.0000
    105 O6         4.0551    4.6857    3.4988 O.2       2 RES2    0.0000
    106 O7         5.0458    6.3248    2.5538 O.2       2 RES2    0.0000
    107 O8         3.6858    6.9182    6.8885 O.3       2 RES2    0.0000
    108 H48        3.9972    6.3315    7.3683 H         2 RES2    0.0000
    109 H49        5.4811    2.2840    6.3225 H         2 RES2    0.0000
    110 H50        4.0254   14.4208    9.0436 H         1 RES1    0.0000
@<TRIPOS>BOND
     1    1    2 ar
     2    2    3 1
     3    4    2 ar
     4    5    4 1
     5    6    4 ar
     6    7    6 1
     7    8    6 ar
     8    9    8 1
     9   10    1 ar
    10   11   10 1
    11   12   11 1
    12   13   11 1
    13   14   13 1
    14   15   14 1
    15   16   14 1
    16   17   13 1
    17   18   17 1
    18   19   17 1
    19   20   19 1
    20   21   19 1
    21   22   21 1
    22   23   21 1
    23   24   21 1
    24   25   24 1
    25   26   24 1
    26   27   24 1
    27   28   27 1
    28   29   27 1
    29   30   17 1
    30   31   30 ar
    31   32   31 1
    32   33   31 ar
    33   34   33 1
    34   35   33 ar
    35   36   35 ar
    36   37   36 1
    37   38   30 ar
    38   39   38 1
    39   40   35 1
    40   41   40 1
    41   42   40 1
    42   43   40 1
    43   44   43 1
    44   45   43 1
    45   46   43 1
    46   47   48 ar
    47   48   49 1
    48   50   48 ar
    49   51   50 1
    50   52   50 ar
    51   53   52 1
    52   54   52 ar
    53   55   54 1
    54   56   47 ar
    55   57   56 1
    56   58   57 1
    57   59   57 1
    58   60   59 1
    59   61   60 1
    60   62   60 1
    61   63   59 1
    62   64   63 1
    63   65   63 1
    64   66   65 1
    65   67   65 1
    66   68   67 1
    67   69   67 1
    68   70   67 1
    69   71   70 1
    70   72   70 1
    71   73   70 1
    72   74   73 1
    73   75   73 1
    74   76   63 1
    75   77   76 ar
    76   78   77 1
    77   79   77 ar
    78   80   79 1
    79   81   79 ar
    80   82   81 ar
    81   83   82 1
    82   84   76 ar
    83   85   84 1
    84   86   81 1
    85   87   86 1
    86   88   86 1
    87   89   86 1
    88   90   89 1
    89   91   89 1
    90   92   89 1
    91   93    1 1
    92   94   13 1
    93   95   11 1
    94   96   47 1
    95   97   59 1
    96   98   57 1
    97   99   12 2
    98  100   94 2
    99  101   94 2
   100  102   14 1
   101  103  102 1
   102  104   58 2
   103  105   97 2
   104  106   97 2
   105  107   60 1
   106  108  107 1
   107  109   96 1
   108  110   93 1
   109    8   10 ar
   110   12   93 1
   111   19   95 1
   112   27   95 1
   113   36   38 ar
   114   54   56 ar
   115   58   96 1
   116   65   98 1
   117   73   98 1
   118   82   84 ar
@<TRIPOS>SUBSTRUCTURE
     1 RES1 1
     2 RES2 47

@<TRIPOS>CRYSIN
  14.8538   11.1963   25.0793  90.0000  90.0000  90.0000  29 1

