# MOL2 file generated by ConQuest
# Please check atom types

@<TRIPOS>MOLECULE
YUNJOG
    30    30     1
SMALL
NO_CHARGES
****
Generated from CSD

@<TRIPOS>ATOM
      1 O1        32.2269   10.5275    4.0218 O.3       1 RES1    0.0000
      2 O2        37.4374   -0.0022    4.2716 O.2       1 RES1    0.0000
      3 O3        35.3095   -0.0845    4.5813 O.2       1 RES1    0.0000
      4 N1        35.6683    4.2803    0.0849 N.3       1 RES1    0.0000
      5 N2        36.2986    0.3556    3.9918 N.pl3     1 RES1    0.0000
      6 C1        33.0960    9.5208    4.3615 C.3       1 RES1    0.0000
      7 C2        33.2330    8.5318    3.3323 C.1       1 RES1    0.0000
      8 C3        33.4300    7.6606    2.5130 C.1       1 RES1    0.0000
      9 C4        33.7339    6.7450    1.5438 C.1       1 RES1    0.0000
     10 C5        34.0080    5.9116    0.7594 C.1       1 RES1    0.0000
     11 C6        34.4275    4.9137   -0.2648 C.3       1 RES1    0.0000
     12 C7        35.8019    3.2980    1.0442 C.ar      1 RES1    0.0000
     13 C8        37.0735    2.7513    1.2790 C.ar      1 RES1    0.0000
     14 C9        37.2062    1.7913    2.2432 C.ar      1 RES1    0.0000
     15 C10       36.1016    1.3579    2.9826 C.ar      1 RES1    0.0000
     16 C11       34.8557    1.9002    2.7528 C.ar      1 RES1    0.0000
     17 C12       34.7016    2.8625    1.8086 C.ar      1 RES1    0.0000
     18 C13       38.2680    3.1936    0.4946 C.3       1 RES1    0.0000
     19 H1        36.4356    4.6226   -0.5446 H         1 RES1    0.0000
     20 H2        32.9247   11.2898    3.3623 H         1 RES1    0.0000
     21 H3        32.7963    9.1118    5.1659 H         1 RES1    0.0000
     22 H4        33.9523    9.9119    4.5064 H         1 RES1    0.0000
     23 H5        33.7382    4.2448   -0.3397 H         1 RES1    0.0000
     24 H6        34.5089    5.3560   -1.1041 H         1 RES1    0.0000
     25 H7        38.0625    1.4223    2.4181 H         1 RES1    0.0000
     26 H8        34.1236    1.6001    3.2474 H         1 RES1    0.0000
     27 H9        33.8667    3.2447    1.6637 H         1 RES1    0.0000
     28 H10       38.0197    3.2892   -0.4197 H         1 RES1    0.0000
     29 H11       38.9616    2.5335    0.5795 H         1 RES1    0.0000
     30 H12       38.5763    4.0225    0.8243 H         1 RES1    0.0000
@<TRIPOS>BOND
     1    1    6 1
     2    2    5 2
     3    3    5 2
     4    4   11 1
     5    5   15 1
     6    6    7 1
     7    7    8 3
     8    8    9 1
     9    9   10 3
    10   10   11 1
    11   11   23 1
    12   12    4 1
    13   13   12 ar
    14   14   13 ar
    15   15   14 ar
    16   16   15 ar
    17   17   12 ar
    18   18   13 1
    19   19    4 1
    20   20    1 1
    21   21    6 1
    22   22    6 1
    23   24   11 1
    24   25   14 1
    25   26   16 1
    26   27   17 1
    27   28   18 1
    28   29   18 1
    29   30   18 1
    30   16   17 ar
@<TRIPOS>SUBSTRUCTURE
     1 RES1 1

@<TRIPOS>CRYSIN
  42.8150   22.2240    4.9960  90.0000  90.0000  90.0000  43 1

