# MOL2 file generated by ConQuest
# Please check atom types

@<TRIPOS>MOLECULE
YUNXOU
    32    33     1
SMALL
NO_CHARGES
****
Generated from CSD

@<TRIPOS>ATOM
      1 O1        -2.1867    8.6817   10.5787 O.2       1 RES1    0.0000
      2 O2        -1.9716   10.5278    9.4801 O.2       1 RES1    0.0000
      3 N1        -1.6989    9.3493    9.6718 N.pl3     1 RES1    0.0000
      4 C1        -0.7434    8.6979    8.7648 C.ar      1 RES1    0.0000
      5 C2        -0.1572    9.4502    7.7618 C.ar      1 RES1    0.0000
      6 C3         0.7085    8.8235    6.8885 C.ar      1 RES1    0.0000
      7 C4         0.9822    7.4641    6.9960 C.ar      1 RES1    0.0000
      8 C5         0.3857    6.7441    8.0301 C.ar      1 RES1    0.0000
      9 C6        -0.4748    7.3558    8.9259 C.ar      1 RES1    0.0000
     10 C7         1.8583    6.7782    5.9722 C.3       1 RES1    0.0000
     11 H1        -0.3536   10.3764    7.6782 H         1 RES1    0.0000
     12 H2         1.1266    9.3352    6.2007 H         1 RES1    0.0000
     13 H3         0.5773    5.8171    8.1157 H         1 RES1    0.0000
     14 H4        -0.8674    6.8570    9.6369 H         1 RES1    0.0000
     15 H5         2.1960    5.9672    6.3263 H         1 RES1    0.0000
     16 H6         2.6042    7.3404    5.7632 H         1 RES1    0.0000
     17 C7B        1.0871    6.5028    4.6727 C.3       1 RES1    0.0000
     18 C4B        1.9632    5.8169    3.6490 C.ar      1 RES1    0.0000
     19 H5B        0.7494    7.3138    4.3187 H         1 RES1    0.0000
     20 H6B        0.3412    5.9406    4.8818 H         1 RES1    0.0000
     21 C3B        2.2369    4.4575    3.7565 C.ar      1 RES1    0.0000
     22 C5B        2.5597    6.5369    2.6148 C.ar      1 RES1    0.0000
     23 C2B        3.1027    3.8308    2.8832 C.ar      1 RES1    0.0000
     24 H2B        1.8189    3.9458    4.4443 H         1 RES1    0.0000
     25 C6B        3.4203    5.9252    1.7191 C.ar      1 RES1    0.0000
     26 H3B        2.3681    7.4639    2.5292 H         1 RES1    0.0000
     27 C1B        3.6888    4.5831    1.8801 C.ar      1 RES1    0.0000
     28 H1B        3.2991    2.9046    2.9668 H         1 RES1    0.0000
     29 H4B        3.8129    6.4240    1.0081 H         1 RES1    0.0000
     30 N1B        4.6443    3.9317    0.9732 N.pl3     1 RES1    0.0000
     31 O1B        5.1322    4.5993    0.0662 O.2       1 RES1    0.0000
     32 O2B        4.9171    2.7532    1.1649 O.2       1 RES1    0.0000
@<TRIPOS>BOND
     1    1    3 2
     2    2    3 2
     3    3    4 1
     4    4    5 ar
     5    5    6 ar
     6    6    7 ar
     7    7    8 ar
     8    8    9 ar
     9    9    4 ar
    10   10    7 1
    11   11    5 1
    12   12    6 1
    13   13    8 1
    14   14    9 1
    15   15   10 1
    16   16   10 1
    17   17   10 1
    18   18   17 1
    19   19   17 1
    20   20   17 1
    21   21   18 ar
    22   22   18 ar
    23   23   21 ar
    24   24   21 1
    25   25   22 ar
    26   26   22 1
    27   27   23 ar
    28   28   23 1
    29   29   25 1
    30   30   27 1
    31   31   30 2
    32   32   30 2
    33   25   27 ar
@<TRIPOS>SUBSTRUCTURE
     1 RES1 1

@<TRIPOS>CRYSIN
   4.4870   13.2810   10.7560  90.0000  98.2400  90.0000  14 1

