# MOL2 file generated by ConQuest
# Please check atom types

@<TRIPOS>MOLECULE
YUPGOF
    30    29     1
SMALL
NO_CHARGES
****
Generated from CSD

@<TRIPOS>ATOM
      1 O1         7.6109    0.8298   10.3476 O.3       1 RES1    0.0000
      2 N1         7.9621   -0.0812    9.3247 N.2       1 RES1    0.0000
      3 C1         7.6522   -1.1680    7.2767 C.3       1 RES1    0.0000
      4 C2         7.1835   -0.1306    8.3080 C.2       1 RES1    0.0000
      5 C3         5.9132    0.7527    8.1679 C.3       1 RES1    0.0000
      6 C4         8.9796   -1.8027    7.7055 C.3       1 RES1    0.0000
      7 C5         7.9060   -0.5283    5.9013 C.3       1 RES1    0.0000
      8 C6         6.6393   -2.3109    7.1679 C.3       1 RES1    0.0000
      9 C7         6.3327    2.2272    8.1773 C.3       1 RES1    0.0000
     10 C8         4.9633    0.4438    9.3362 C.3       1 RES1    0.0000
     11 C9         5.0894    0.5618    6.8855 C.3       1 RES1    0.0000
     12 H1         8.3051    0.7201   10.9407 H         1 RES1    0.0000
     13 H2         9.7230   -1.0466    7.7401 H         1 RES1    0.0000
     14 H3         9.2486   -2.4365    7.0184 H         1 RES1    0.0000
     15 H4         8.8936   -2.2858    8.5664 H         1 RES1    0.0000
     16 H5         8.4009   -1.1890    5.3657 H         1 RES1    0.0000
     17 H6         8.5156    0.2177    5.9306 H         1 RES1    0.0000
     18 H7         7.0657   -0.3600    5.4599 H         1 RES1    0.0000
     19 H8         6.9827   -3.0059    6.6836 H         1 RES1    0.0000
     20 H9         5.7847   -2.0179    6.7673 H         1 RES1    0.0000
     21 H10        6.4255   -2.7380    8.0748 H         1 RES1    0.0000
     22 H11        6.8257    2.4784    8.9847 H         1 RES1    0.0000
     23 H12        5.5736    2.7631    8.1166 H         1 RES1    0.0000
     24 H13        6.9199    2.4449    7.3426 H         1 RES1    0.0000
     25 H14        5.3716    0.5861   10.2085 H         1 RES1    0.0000
     26 H15        4.1104    0.9713    9.2253 H         1 RES1    0.0000
     27 H16        4.7511   -0.5610    9.2776 H         1 RES1    0.0000
     28 H17        4.2584    1.1806    6.9661 H         1 RES1    0.0000
     29 H18        4.7844   -0.3349    6.7673 H         1 RES1    0.0000
     30 H19        5.6025    0.8122    6.0979 H         1 RES1    0.0000
@<TRIPOS>BOND
     1    1    2 1
     2    2    4 2
     3    3    4 1
     4    4    5 1
     5    5    9 1
     6    6    3 1
     7    7    3 1
     8    8    3 1
     9    9   22 1
    10   10    5 1
    11   11    5 1
    12   12    1 1
    13   13    6 1
    14   14    6 1
    15   15    6 1
    16   16    7 1
    17   17    7 1
    18   18    7 1
    19   19    8 1
    20   20    8 1
    21   21    8 1
    22   23    9 1
    23   24    9 1
    24   25   10 1
    25   26   10 1
    26   27   10 1
    27   28   11 1
    28   29   11 1
    29   30   11 1
@<TRIPOS>SUBSTRUCTURE
     1 RES1 1

@<TRIPOS>CRYSIN
  11.2390    8.3730   10.6980  90.0000 102.1200  90.0000  14 1

