# MOL2 file generated by ConQuest
# Please check atom types

@<TRIPOS>MOLECULE
YUPSOT
    64    64     2
SMALL
NO_CHARGES
****
Generated from CSD

@<TRIPOS>ATOM
      1 O1        -1.7095    9.4466    3.7370 O.3       1 RES1    0.0000
      2 H1        -1.4717   10.2939    3.8219 H         1 RES1    0.0000
      3 C1        -1.2905    8.7709    4.8600 C.ar      1 RES1    0.0000
      4 O2        -0.3487   12.9252    5.1117 O.3       1 RES1    0.0000
      5 H2        -0.3766   13.3015    4.2806 H         1 RES1    0.0000
      6 C2        -0.6686    9.4303    5.9152 C.ar      1 RES1    0.0000
      7 C3        -0.2735    8.6763    7.0219 C.ar      1 RES1    0.0000
      8 H3         0.1356    9.1259    7.7522 H         1 RES1    0.0000
      9 C4        -0.4503    7.2994    7.1059 C.ar      1 RES1    0.0000
     10 C5        -1.0834    6.6915    6.0272 C.ar      1 RES1    0.0000
     11 H4        -1.2285    5.7530    6.0489 H         1 RES1    0.0000
     12 C6        -1.5093    7.4127    4.9222 C.ar      1 RES1    0.0000
     13 H5        -1.9518    6.9697    4.2080 H         1 RES1    0.0000
     14 C7        -0.4319   10.8653    5.9256 C.2       1 RES1    0.0000
     15 H6        -0.1111   11.2802    6.7177 H         1 RES1    0.0000
     16 N1        -0.6462   11.5733    4.8888 N.2       1 RES1    0.0000
     17 C8         0.1015    6.4873    8.2792 C.3       1 RES1    0.0000
     18 C9        -0.8445    5.3258    8.6236 C.3       1 RES1    0.0000
     19 H7        -1.7337    5.6799    8.8376 H         1 RES1    0.0000
     20 H8        -0.4943    4.8369    9.3969 H         1 RES1    0.0000
     21 H9        -0.9103    4.7198    7.8567 H         1 RES1    0.0000
     22 C10        0.2610    7.3378    9.5353 C.3       1 RES1    0.0000
     23 H10        0.9406    8.0272    9.3791 H         1 RES1    0.0000
     24 H11        0.5404    6.7683   10.2823 H         1 RES1    0.0000
     25 H12       -0.5934    7.7649    9.7511 H         1 RES1    0.0000
     26 C11        1.4651    5.8897    7.8694 C.3       1 RES1    0.0000
     27 H13        1.8353    5.4017    8.6478 H         1 RES1    0.0000
     28 H14        1.3085    5.2266    7.1509 H         1 RES1    0.0000
     29 C12        2.5146    6.8779    7.3853 C.3       1 RES1    0.0000
     30 H15        2.1941    7.3237    6.5738 H         1 RES1    0.0000
     31 H16        3.3473    6.4002    7.1878 H         1 RES1    0.0000
     32 H17        2.6799    7.5467    8.0822 H         1 RES1    0.0000
     33 O3         8.5462    4.3649    2.5006 O.3       2 RES2    0.0000
     34 H18        8.7443    3.5593    2.5255 H         2 RES2    0.0000
     35 C13        9.5882    5.0224    1.8926 C.ar      2 RES2    0.0000
     36 O4        10.4282    0.8765    2.3695 O.3       2 RES2    0.0000
     37 H19        9.8622    0.4665    2.9697 H         2 RES2    0.0000
     38 C14       10.7552    4.3602    1.5075 C.ar      2 RES2    0.0000
     39 C15       11.7766    5.1039    0.9089 C.ar      2 RES2    0.0000
     40 H20       12.5646    4.6505    0.6332 H         2 RES2    0.0000
     41 C16       11.6919    6.4733    0.6981 C.ar      2 RES2    0.0000
     42 C17       10.4981    7.0840    1.0867 C.ar      2 RES2    0.0000
     43 H21       10.3973    8.0187    0.9517 H         2 RES2    0.0000
     44 C18        9.4588    6.3787    1.6615 C.ar      2 RES2    0.0000
     45 H22        8.6551    6.8254    1.8982 H         2 RES2    0.0000
     46 C19       10.9356    2.9289    1.6920 C.2       2 RES2    0.0000
     47 H23       11.7089    2.5074    1.3377 H         2 RES2    0.0000
     48 N2        10.0752    2.2317    2.3204 N.2       2 RES2    0.0000
     49 C20       12.8426    7.3003    0.1250 C.3       2 RES2    0.0000
     50 C21       13.9062    6.4217   -0.5389 C.3       2 RES2    0.0000
     51 H24       14.3035    5.8260    0.1312 H         2 RES2    0.0000
     52 H25       14.6041    6.9903   -0.9249 H         2 RES2    0.0000
     53 H26       13.4910    5.8860   -1.2472 H         2 RES2    0.0000
     54 C22       12.3158    8.2716   -0.9453 C.3       2 RES2    0.0000
     55 H27       11.8585    7.7658   -1.6485 H         2 RES2    0.0000
     56 H28       13.0657    8.7671   -1.3351 H         2 RES2    0.0000
     57 H29       11.6869    8.9020   -0.5338 H         2 RES2    0.0000
     58 C23       13.4773    8.1433    1.2474 C.3       2 RES2    0.0000
     59 H30       14.2215    8.6707    0.8599 H         2 RES2    0.0000
     60 H31       12.8001    8.7840    1.5785 H         2 RES2    0.0000
     61 C24       14.0135    7.3556    2.4339 C.3       2 RES2    0.0000
     62 H32       13.2814    6.8601    2.8550 H         2 RES2    0.0000
     63 H33       14.4073    7.9728    3.0856 H         2 RES2    0.0000
     64 H34       14.6993    6.7262    2.1250 H         2 RES2    0.0000
@<TRIPOS>BOND
     1    1    2 1
     2    3    1 1
     3    4    5 1
     4    6    3 ar
     5    7    6 ar
     6    8    7 1
     7    9    7 ar
     8   10    9 ar
     9   11   10 1
    10   12    3 ar
    11   13   12 1
    12   14    6 1
    13   15   14 1
    14   16    4 1
    15   17    9 1
    16   18   17 1
    17   19   18 1
    18   20   18 1
    19   21   18 1
    20   22   17 1
    21   23   22 1
    22   24   22 1
    23   25   22 1
    24   26   17 1
    25   27   26 1
    26   28   26 1
    27   29   26 1
    28   30   29 1
    29   31   29 1
    30   32   29 1
    31   33   34 1
    32   35   33 1
    33   36   37 1
    34   38   35 ar
    35   39   38 ar
    36   40   39 1
    37   41   39 ar
    38   42   41 ar
    39   43   42 1
    40   44   35 ar
    41   45   44 1
    42   46   38 1
    43   47   46 1
    44   48   36 1
    45   49   41 1
    46   50   49 1
    47   51   50 1
    48   52   50 1
    49   53   50 1
    50   54   49 1
    51   55   54 1
    52   56   54 1
    53   57   54 1
    54   58   49 1
    55   59   58 1
    56   60   58 1
    57   61   58 1
    58   62   61 1
    59   63   61 1
    60   64   61 1
    61   10   12 ar
    62   14   16 2
    63   42   44 ar
    64   46   48 2
@<TRIPOS>SUBSTRUCTURE
     1 RES1 1
     2 RES2 33

@<TRIPOS>CRYSIN
  19.3272    9.3666   13.5947  90.0000 110.4270  90.0000  14 1

