# MOL2 file generated by ConQuest
# Please check atom types

@<TRIPOS>MOLECULE
YUPZIT
    46    46     2
SMALL
NO_CHARGES
****
Generated from CSD

@<TRIPOS>ATOM
      1 N1        12.2261    3.2273    0.8410 N.pl3     1 RES1    0.0000
      2 O1        13.1779    3.6013    1.5066 O.2       1 RES1    0.0000
      3 O2        12.1499    2.1072    0.3616 O.2       1 RES1    0.0000
      4 C1        10.3850    6.5522    0.8312 C.ar      1 RES1    0.0000
      5 O3        12.7340    2.2850    4.7392 O.2       2 RES2    0.0000
      6 N2        11.7090    2.7791    4.3406 N.pl3     2 RES2    0.0000
      7 C2        11.3087    5.4156    0.9298 C.2       1 RES1    0.0000
      8 H1        12.1551    5.6089    1.2633 H         1 RES1    0.0000
      9 C3         7.8904    7.4828    4.6797 C.ar      2 RES2    0.0000
     10 C4        11.0919    4.1539    0.6055 C.2       1 RES1    0.0000
     11 C5        11.4850    4.2252    4.5708 C.2       2 RES2    0.0000
     12 C6        10.2808    4.6783    4.2962 C.2       2 RES2    0.0000
     13 H2         9.6697    4.0446    3.9967 H         2 RES2    0.0000
     14 C7         9.0176    6.4477    1.0362 C.ar      1 RES1    0.0000
     15 H3         8.6315    5.6177    1.2038 H         1 RES1    0.0000
     16 O4        10.8741    2.1404    3.7363 O.2       2 RES2    0.0000
     17 C8         9.7752    6.0561    4.4008 C.ar      2 RES2    0.0000
     18 C9        10.5477    7.1967    4.2290 C.ar      2 RES2    0.0000
     19 H4        11.4611    7.1098    4.0756 H         2 RES2    0.0000
     20 C10        8.4193    6.2212    4.6236 C.ar      2 RES2    0.0000
     21 H5         7.8706    5.4790    4.7347 H         2 RES2    0.0000
     22 C11       10.9127    7.8187    0.5985 C.ar      1 RES1    0.0000
     23 H6        11.8296    7.9124    0.4702 H         1 RES1    0.0000
     24 C12        9.9880    8.4544    4.2818 C.ar      2 RES2    0.0000
     25 H7        10.5264    9.2043    4.1633 H         2 RES2    0.0000
     26 N3         6.4396    7.6107    4.9084 N.pl3     2 RES2    0.0000
     27 N4         6.7935    7.4457    1.2542 N.pl3     1 RES1    0.0000
     28 C13        8.2368    7.5765    0.9901 C.ar      1 RES1    0.0000
     29 O5         6.3585    6.3647    1.4612 O.2       1 RES1    0.0000
     30 O6         6.0974    8.4055    1.2558 O.2       1 RES1    0.0000
     31 O7         5.8079    6.6508    5.1900 O.2       2 RES2    0.0000
     32 C14        8.6413    8.6116    4.5087 C.ar      2 RES2    0.0000
     33 H8         8.2543    9.4572    4.5443 H         2 RES2    0.0000
     34 C15       12.6678    4.9176    5.1380 C.3       2 RES2    0.0000
     35 H9        13.3207    5.0543    4.4476 H         2 RES2    0.0000
     36 H10       13.0489    4.3805    5.8373 H         2 RES2    0.0000
     37 H11       12.4005    5.7671    5.4966 H         2 RES2    0.0000
     38 C16        8.7539    8.8235    0.7532 C.ar      1 RES1    0.0000
     39 H12        8.2040    9.5734    0.7276 H         1 RES1    0.0000
     40 C17       10.1107    8.9328    0.5535 C.ar      1 RES1    0.0000
     41 H13       10.4872    9.7668    0.3884 H         1 RES1    0.0000
     42 C18        9.9124    3.5222   -0.0179 C.3       1 RES1    0.0000
     43 H14        9.3435    4.2008   -0.3884 H         1 RES1    0.0000
     44 H15        9.4285    3.0242    0.6443 H         1 RES1    0.0000
     45 H16       10.1994    2.9294   -0.7172 H         1 RES1    0.0000
     46 O8         5.9148    8.6741    4.7600 O.2       2 RES2    0.0000
@<TRIPOS>BOND
     1    1    2 2
     2    3    1 2
     3    4    7 1
     4    5    6 2
     5    6   11 1
     6    7    8 1
     7    9   20 ar
     8   10    1 1
     9   11   12 2
    10   12   13 1
    11   14    4 ar
    12   15   14 1
    13   16    6 2
    14   17   12 1
    15   18   17 ar
    16   19   18 1
    17   20   17 ar
    18   21   20 1
    19   22    4 ar
    20   23   22 1
    21   24   18 ar
    22   25   24 1
    23   26    9 1
    24   27   28 1
    25   28   14 ar
    26   29   27 2
    27   30   27 2
    28   31   26 2
    29   32    9 ar
    30   33   32 1
    31   34   11 1
    32   35   34 1
    33   36   34 1
    34   37   34 1
    35   38   28 ar
    36   39   38 1
    37   40   22 ar
    38   41   40 1
    39   42   10 1
    40   43   42 1
    41   44   42 1
    42   45   42 1
    43   46   26 2
    44    7   10 2
    45   24   32 ar
    46   38   40 ar
@<TRIPOS>SUBSTRUCTURE
     1 RES1 1
     2 RES2 5

@<TRIPOS>CRYSIN
  13.3621    9.7648   14.8835  90.0000  91.2900  90.0000  14 1

