# MOL2 file generated by ConQuest
# Please check atom types

@<TRIPOS>MOLECULE
YUQFAT
    56    58     2
SMALL
NO_CHARGES
****
Generated from CSD

@<TRIPOS>ATOM
      1 C1         5.4447    5.6364    2.4071 C.ar      1 RES1    0.0000
      2 C2         6.4933    6.2376    3.0768 C.ar      1 RES1    0.0000
      3 N1         6.3810    6.5842    4.5054 N.pl3     1 RES1    0.0000
      4 O1         5.8499    5.7673    5.2600 O.2       1 RES1    0.0000
      5 O2         6.8585    7.6520    4.8754 O.2       1 RES1    0.0000
      6 C3         7.6846    6.6247    2.4519 C.ar      1 RES1    0.0000
      7 H1         8.3829    7.0387    2.9465 H         1 RES1    0.0000
      8 C4         7.8187    6.3871    1.0934 C.ar      1 RES1    0.0000
      9 H2         8.6218    6.6228    0.6448 H         1 RES1    0.0000
     10 C5         6.7797    5.8092    0.3977 C.ar      1 RES1    0.0000
     11 H3         6.8638    5.6626   -0.5378 H         1 RES1    0.0000
     12 C6         5.6170    5.4405    1.0448 C.ar      1 RES1    0.0000
     13 H4         4.9153    5.0416    0.5434 H         1 RES1    0.0000
     14 C7         4.1185    5.2409    3.0764 C.3       1 RES1    0.0000
     15 H5         4.3087    4.6420    3.8545 H         1 RES1    0.0000
     16 O3         3.2675    4.5602    2.1602 O.3       1 RES1    0.0000
     17 H6         3.5488    3.6799    2.2355 H         1 RES1    0.0000
     18 N2         3.4615    6.4403    3.5512 N.pl3     1 RES1    0.0000
     19 H7         3.6452    7.2064    3.2224 H         1 RES1    0.0000
     20 N3         2.2043    5.3145    5.1588 N.ar      1 RES1    0.0000
     21 C8         2.5613    6.4687    4.5675 C.ar      1 RES1    0.0000
     22 N4         2.1013    7.6951    4.9045 N.ar      1 RES1    0.0000
     23 C9         1.1942    7.7306    5.8800 C.ar      1 RES1    0.0000
     24 H8         0.8374    8.5739    6.1323 H         1 RES1    0.0000
     25 C10        0.7455    6.6075    6.5430 C.ar      1 RES1    0.0000
     26 H9         0.0935    6.6544    7.2331 H         1 RES1    0.0000
     27 C11        1.2998    5.4183    6.1439 C.ar      1 RES1    0.0000
     28 H10        1.0273    4.6248    6.5898 H         1 RES1    0.0000
     29 C12        0.8647    1.4953    4.5060 C.ar      2 RES2    0.0000
     30 C13        0.0036    0.7978    3.6641 C.ar      2 RES2    0.0000
     31 N5         0.4106    0.4513    2.2909 N.pl3     2 RES2    0.0000
     32 O4         0.9903    1.2978    1.6230 O.2       2 RES2    0.0000
     33 O5         0.1177   -0.6512    1.8788 O.2       2 RES2    0.0000
     34 C14       -1.2594    0.3833    4.0507 C.ar      2 RES2    0.0000
     35 H11       -1.8027   -0.1246    3.4589 H         2 RES2    0.0000
     36 C15       -1.7175    0.7178    5.3060 C.ar      2 RES2    0.0000
     37 H12       -2.5980    0.4811    5.5706 H         2 RES2    0.0000
     38 C16       -0.8937    1.3953    6.1739 C.ar      2 RES2    0.0000
     39 H13       -1.2042    1.6128    7.0445 H         2 RES2    0.0000
     40 C17        0.3876    1.7654    5.7882 C.ar      2 RES2    0.0000
     41 H14        0.9500    2.2118    6.4096 H         2 RES2    0.0000
     42 C18        2.2692    1.9159    4.0799 C.3       2 RES2    0.0000
     43 H15        2.1985    2.5280    3.2928 H         2 RES2    0.0000
     44 O6         2.9622    2.5802    5.1154 O.3       2 RES2    0.0000
     45 H16        2.7748    3.4786    5.0567 H         2 RES2    0.0000
     46 N6         2.9928    0.7445    3.6927 N.pl3     2 RES2    0.0000
     47 H17        2.7606    0.0671    4.0473 H         2 RES2    0.0000
     48 N7         4.2278    1.8801    2.0898 N.ar      2 RES2    0.0000
     49 C19        3.9196    0.7222    2.7031 C.ar      2 RES2    0.0000
     50 N8         4.4363   -0.4869    2.4063 N.ar      2 RES2    0.0000
     51 C20        5.3502   -0.5066    1.4265 C.ar      2 RES2    0.0000
     52 H18        5.7402   -1.3397    1.1896 H         2 RES2    0.0000
     53 C21        5.7514    0.6193    0.7482 C.ar      2 RES2    0.0000
     54 H19        6.4099    0.5846    0.0648 H         2 RES2    0.0000
     55 C22        5.1495    1.7919    1.1116 C.ar      2 RES2    0.0000
     56 H20        5.3938    2.5855    0.6504 H         2 RES2    0.0000
@<TRIPOS>BOND
     1    1    2 ar
     2    2    3 1
     3    3    4 2
     4    5    3 2
     5    6    2 ar
     6    7    6 1
     7    8    6 ar
     8    9    8 1
     9   10    8 ar
    10   11   10 1
    11   12    1 ar
    12   13   12 1
    13   14    1 1
    14   15   14 1
    15   16   14 1
    16   17   16 1
    17   18   14 1
    18   19   18 1
    19   20   21 ar
    20   21   18 1
    21   22   21 ar
    22   23   22 ar
    23   24   23 1
    24   25   23 ar
    25   26   25 1
    26   27   20 ar
    27   28   27 1
    28   29   30 ar
    29   30   31 1
    30   31   32 2
    31   33   31 2
    32   34   30 ar
    33   35   34 1
    34   36   34 ar
    35   37   36 1
    36   38   36 ar
    37   39   38 1
    38   40   29 ar
    39   41   40 1
    40   42   29 1
    41   43   42 1
    42   44   42 1
    43   45   44 1
    44   46   42 1
    45   47   46 1
    46   48   49 ar
    47   49   46 1
    48   50   49 ar
    49   51   50 ar
    50   52   51 1
    51   53   51 ar
    52   54   53 1
    53   55   48 ar
    54   56   55 1
    55   10   12 ar
    56   25   27 ar
    57   38   40 ar
    58   53   55 ar
@<TRIPOS>SUBSTRUCTURE
     1 RES1 1
     2 RES2 29

@<TRIPOS>CRYSIN
  16.3210    9.5830   14.4820  90.0000 103.5700  90.0000  14 1

