# MOL2 file generated by ConQuest
# Please check atom types

@<TRIPOS>MOLECULE
YUQGOH
    36    34     2
SMALL
NO_CHARGES
****
Generated from CSD

@<TRIPOS>ATOM
      1 O1         5.4826    7.3465    5.0405 O.2       1 RES1    0.0000
      2 O2         7.0085    6.2580    3.9778 O.2       1 RES1    0.0000
      3 N1         7.5793    2.5512    4.2616 N.2       1 RES1    0.0000
      4 N2         5.9152    6.3308    4.5158 N.pl3     1 RES1    0.0000
      5 C1         8.9521    2.3077    4.5453 C.ar      1 RES1    0.0000
      6 C2         9.3381    0.9936    4.8322 C.ar      1 RES1    0.0000
      7 C3        10.6834    0.7280    5.1303 C.ar      1 RES1    0.0000
      8 C4        11.5939    1.7654    5.1071 C.ar      1 RES1    0.0000
      9 C5        11.2147    3.0483    4.7873 C.ar      1 RES1    0.0000
     10 C6         9.8946    3.3216    4.4983 C.ar      1 RES1    0.0000
     11 C7         8.3134   -0.1036    4.8518 C.3       1 RES1    0.0000
     12 C8        11.1375   -0.6714    5.4670 C.3       1 RES1    0.0000
     13 C9         7.0438    3.6005    4.7157 C.2       1 RES1    0.0000
     14 C10        5.6110    3.8708    4.5011 C.ar      1 RES1    0.0000
     15 C11        5.0549    5.1508    4.4801 C.ar      1 RES1    0.0000
     16 C12        3.6965    5.3746    4.3790 C.ar      1 RES1    0.0000
     17 C13        2.8531    4.2968    4.2893 C.ar      1 RES1    0.0000
     18 C14        3.3662    3.0200    4.3194 C.ar      1 RES1    0.0000
     19 C15        4.7216    2.8102    4.4218 C.ar      1 RES1    0.0000
     20 H1        12.4843    1.5930    5.3129 H         1 RES1    0.0000
     21 H2        11.8471    3.7297    4.7663 H         1 RES1    0.0000
     22 H3         9.6371    4.1861    4.2721 H         1 RES1    0.0000
     23 H4         8.0511   -0.2801    5.7583 H         1 RES1    0.0000
     24 H5         8.6885   -0.8988    4.4665 H         1 RES1    0.0000
     25 H6         7.5453    0.1669    4.3433 H         1 RES1    0.0000
     26 H7        12.0766   -0.6640    5.6663 H         1 RES1    0.0000
     27 H8        10.9736   -1.2500    4.7189 H         1 RES1    0.0000
     28 H9        10.6510   -0.9905    6.2310 H         1 RES1    0.0000
     29 H10        7.5601    4.2107    5.1910 H         1 RES1    0.0000
     30 H11        3.3591    6.2413    4.3717 H         1 RES1    0.0000
     31 H12        1.9361    4.4283    4.2080 H         1 RES1    0.0000
     32 H13        2.7903    2.2915    4.2706 H         1 RES1    0.0000
     33 H14        5.0481    1.9397    4.4383 H         1 RES1    0.0000
     34 H15        7.5362    0.1932    5.3308 Du        2 SUP2    0.0000
     35 H16        8.6809   -0.8769    5.2859 Du        2 SUP2    0.0000
     36 H17        8.0679   -0.3283    3.9514 Du        2 SUP2    0.0000
@<TRIPOS>BOND
     1    1    4 2
     2    2    4 2
     3    3    5 1
     4    4   15 1
     5    5    6 ar
     6    6    7 ar
     7    7    8 ar
     8    8    9 ar
     9    9   10 ar
    10   10    5 ar
    11   11    6 1
    12   12    7 1
    13   13    3 2
    14   14   13 1
    15   15   14 ar
    16   16   15 ar
    17   17   16 ar
    18   18   17 ar
    19   19   14 ar
    20   20    8 1
    21   21    9 1
    22   22   10 1
    23   23   11 1
    24   24   11 1
    25   25   11 1
    26   26   12 1
    27   27   12 1
    28   28   12 1
    29   29   13 1
    30   30   16 1
    31   31   17 1
    32   32   18 1
    33   33   19 1
    34   18   19 ar
@<TRIPOS>SUBSTRUCTURE
     1 RES1 1
     2 SUP2 34

@<TRIPOS>CRYSIN
  12.2910   15.1422    7.3384  90.0000 107.0910  90.0000  14 1

