# MOL2 file generated by ConQuest
# Please check atom types

@<TRIPOS>MOLECULE
YUQJOK
    48    50     2
SMALL
NO_CHARGES
****
Generated from CSD

@<TRIPOS>ATOM
      1 O1         2.2852   12.1966    1.5773 O.2       1 RES1    0.0000
      2 O2         1.3056   13.0136    3.3200 O.2       1 RES1    0.0000
      3 N1         3.1531   18.2565    0.3869 N.ar      1 RES1    0.0000
      4 N2         2.1571   17.9090    3.0111 N.ar      1 RES1    0.0000
      5 N3         1.9112   13.1418    2.2638 N.pl3     1 RES1    0.0000
      6 C1         2.9639   19.2719    1.1945 C.ar      1 RES1    0.0000
      7 C2         2.8398   17.0110    0.8655 C.ar      1 RES1    0.0000
      8 C3         3.0176   15.8912    0.0296 C.ar      1 RES1    0.0000
      9 H1         3.3475   16.0039   -0.8326 H         1 RES1    0.0000
     10 C4         2.7045   14.6354    0.4852 C.ar      1 RES1    0.0000
     11 H2         2.8136   13.8921   -0.0622 H         1 RES1    0.0000
     12 C5         2.2172   14.4953    1.7916 C.ar      1 RES1    0.0000
     13 C6         2.0240   15.5480    2.6456 C.ar      1 RES1    0.0000
     14 H3         1.6965   15.4169    3.5053 H         1 RES1    0.0000
     15 C7         2.3399   16.8374    2.1747 C.ar      1 RES1    0.0000
     16 C8         2.4607   19.0940    2.5394 C.ar      1 RES1    0.0000
     17 C9         2.2702   20.2779    3.4314 C.3       1 RES1    0.0000
     18 H4         2.0082   19.9801    4.3061 H         1 RES1    0.0000
     19 H5         1.5860   20.8460    3.0684 H         1 RES1    0.0000
     20 H6         3.0931   20.7673    3.4935 H         1 RES1    0.0000
     21 C10        3.2916   20.6436    0.6965 C.3       1 RES1    0.0000
     22 H7         3.5800   20.5918   -0.2184 H         1 RES1    0.0000
     23 H8         3.9947   21.0192    1.2318 H         1 RES1    0.0000
     24 H9         2.5117   21.1991    0.7551 H         1 RES1    0.0000
     25 O3         6.6378   19.8231    1.3973 O.2       2 RES2    0.0000
     26 O4         5.6741   19.4248    3.2892 O.2       2 RES2    0.0000
     27 N4         6.0357   13.6152    0.9891 N.ar      2 RES2    0.0000
     28 N5         5.1832   14.5189    3.5318 N.ar      2 RES2    0.0000
     29 N6         6.1374   19.0578    2.2157 N.pl3     2 RES2    0.0000
     30 C11        5.6239   12.7858    1.9176 C.ar      2 RES2    0.0000
     31 C12        6.0342   14.9478    1.3012 C.ar      2 RES2    0.0000
     32 C13        6.4540   15.8786    0.3233 C.ar      2 RES2    0.0000
     33 H10        6.7088   15.5811   -0.5202 H         2 RES2    0.0000
     34 C14        6.4874   17.2170    0.6104 C.ar      2 RES2    0.0000
     35 H11        6.7661   17.8346   -0.0258 H         2 RES2    0.0000
     36 C15        6.0897   17.6304    1.8915 C.ar      2 RES2    0.0000
     37 C16        5.6608   16.7658    2.8656 C.ar      2 RES2    0.0000
     38 H12        5.4008   17.0812    3.7014 H         2 RES2    0.0000
     39 C17        5.6237   15.3910    2.5710 C.ar      2 RES2    0.0000
     40 C18        5.1787   13.2464    3.2133 C.ar      2 RES2    0.0000
     41 C19        4.6977   12.2676    4.2401 C.3       2 RES2    0.0000
     42 H13        4.4439   12.7383    5.0365 H         2 RES2    0.0000
     43 H14        5.4011   11.6476    4.4459 H         2 RES2    0.0000
     44 H15        3.9400   11.7893    3.8963 H         2 RES2    0.0000
     45 C20        5.6383   11.3275    1.5991 C.3       2 RES2    0.0000
     46 H16        5.9891   11.1955    0.7151 H         2 RES2    0.0000
     47 H17        4.7431   10.9819    1.6428 H         2 RES2    0.0000
     48 H18        6.1908   10.8672    2.2347 H         2 RES2    0.0000
@<TRIPOS>BOND
     1    1    5 2
     2    2    5 2
     3    3    6 ar
     4    4   15 ar
     5    5   12 1
     6    6   16 ar
     7    7    3 ar
     8    8    7 ar
     9    9    8 1
    10   10    8 ar
    11   11   10 1
    12   12   10 ar
    13   13   12 ar
    14   14   13 1
    15   15    7 ar
    16   16    4 ar
    17   17   16 1
    18   18   17 1
    19   19   17 1
    20   20   17 1
    21   21    6 1
    22   22   21 1
    23   23   21 1
    24   24   21 1
    25   25   29 2
    26   26   29 2
    27   27   30 ar
    28   28   39 ar
    29   29   36 1
    30   30   40 ar
    31   31   27 ar
    32   32   31 ar
    33   33   32 1
    34   34   32 ar
    35   35   34 1
    36   36   34 ar
    37   37   36 ar
    38   38   37 1
    39   39   31 ar
    40   40   28 ar
    41   41   40 1
    42   42   41 1
    43   43   41 1
    44   44   41 1
    45   45   30 1
    46   46   45 1
    47   47   45 1
    48   48   45 1
    49   13   15 ar
    50   37   39 ar
@<TRIPOS>SUBSTRUCTURE
     1 RES1 1
     2 RES2 25

@<TRIPOS>CRYSIN
   7.1125   22.4900   12.9596  90.0000 115.0260  90.0000  14 1

