# MOL2 file generated by ConQuest
# Please check atom types

@<TRIPOS>MOLECULE
YUQSEJ
    94    98     2
SMALL
NO_CHARGES
****
Generated from CSD

@<TRIPOS>ATOM
      1 O1         0.7116   15.3381   12.0771 O.3       1 RES1    0.0000
      2 O2         5.1581   11.8891   13.9482 O.3       1 RES1    0.0000
      3 O3         6.2904   11.2810   12.0791 O.2       1 RES1    0.0000
      4 N1         1.1606   14.4414   14.0237 N.2       1 RES1    0.0000
      5 N2        -0.1562   15.9525   13.0144 N.2       1 RES1    0.0000
      6 N3         4.7914   12.9721   12.0527 N.am      1 RES1    0.0000
      7 C1        -0.5551   15.6593   15.3863 C.ar      1 RES1    0.0000
      8 C2        -1.8096   16.2396   15.3669 C.ar      1 RES1    0.0000
      9 C3        -2.4773   16.5064   16.5467 C.ar      1 RES1    0.0000
     10 C4        -1.9045   16.1744   17.7529 C.ar      1 RES1    0.0000
     11 C5        -0.6606   15.5802   17.7810 C.ar      1 RES1    0.0000
     12 C6         0.0081   15.3102   16.6100 C.ar      1 RES1    0.0000
     13 C7         0.1379   15.3661   14.1502 C.2       1 RES1    0.0000
     14 C8         1.4397   14.4445   12.7771 C.2       1 RES1    0.0000
     15 C9         2.4242   13.6144   12.0456 C.3       1 RES1    0.0000
     16 C10        2.5154   13.8735   10.5722 C.3       1 RES1    0.0000
     17 C11        3.6069   13.0078    9.9463 C.3       1 RES1    0.0000
     18 C12        4.9235   13.2079   10.6303 C.3       1 RES1    0.0000
     19 C13        3.7717   13.7804   12.7190 C.3       1 RES1    0.0000
     20 C14        5.4610   11.9698   12.6768 C.2       1 RES1    0.0000
     21 C15        5.7963   10.8822   14.8377 C.3       1 RES1    0.0000
     22 C16        5.1280   11.2018   16.1511 C.3       1 RES1    0.0000
     23 C17        5.4252    9.4921   14.3595 C.3       1 RES1    0.0000
     24 C18        7.2563   11.0855   14.9098 C.3       1 RES1    0.0000
     25 O4         1.4235    3.0192   14.4404 O.3       2 RES2    0.0000
     26 O5        -4.3164    7.1307   14.0870 O.2       2 RES2    0.0000
     27 O6        -3.1023    6.5318   12.2712 O.3       2 RES2    0.0000
     28 N4         2.4329    2.5848   13.5472 N.2       2 RES2    0.0000
     29 N5         0.7800    3.6212   12.4342 N.2       2 RES2    0.0000
     30 N6        -2.4723    5.8321   14.2839 N.am      2 RES2    0.0000
     31 C19        2.7321    2.7431   11.1613 C.ar      2 RES2    0.0000
     32 C20        4.0079    2.2295   11.1736 C.ar      2 RES2    0.0000
     33 C21        4.6749    1.9766    9.9938 C.ar      2 RES2    0.0000
     34 C22        4.0740    2.2823    8.7824 C.ar      2 RES2    0.0000
     35 C23        2.8223    2.7896    8.7507 C.ar      2 RES2    0.0000
     36 C24        2.1380    3.0456    9.9182 C.ar      2 RES2    0.0000
     37 C25        2.0028    3.0006   12.3832 C.2       2 RES2    0.0000
     38 C26        0.4772    3.5964   13.6755 C.2       2 RES2    0.0000
     39 C27       -0.7789    4.0851   14.3366 C.3       2 RES2    0.0000
     40 C28       -0.6880    4.1968   15.8452 C.3       2 RES2    0.0000
     41 C29       -2.0313    4.6529   16.3762 C.3       2 RES2    0.0000
     42 C30       -2.5062    5.9236   15.7291 C.3       2 RES2    0.0000
     43 C31       -1.2071    5.3853   13.6966 C.3       2 RES2    0.0000
     44 C32       -3.3593    6.5504   13.5648 C.2       2 RES2    0.0000
     45 C33       -3.8072    7.3898   11.2966 C.3       2 RES2    0.0000
     46 C34       -3.5634    8.8327   11.6377 C.3       2 RES2    0.0000
     47 C35       -3.0992    7.0267   10.0079 C.3       2 RES2    0.0000
     48 C36       -5.2598    7.0376   11.2158 C.3       2 RES2    0.0000
     49 H1        -2.2063   16.4537   14.5529 H         1 RES1    0.0000
     50 H2        -3.3146   16.9098   16.5256 H         1 RES1    0.0000
     51 H3        -2.3552   16.3497   18.5476 H         1 RES1    0.0000
     52 H4        -0.2720   15.3599   18.5968 H         1 RES1    0.0000
     53 H5         0.8387   14.8913   16.6364 H         1 RES1    0.0000
     54 H6         2.1568   12.6789   12.1599 H         1 RES1    0.0000
     55 H7         2.7153   14.8106   10.4193 H         1 RES1    0.0000
     56 H8         1.6623   13.6765   10.1555 H         1 RES1    0.0000
     57 H9         3.3519   12.0738   10.0079 H         1 RES1    0.0000
     58 H10        3.6961   13.2312    9.0074 H         1 RES1    0.0000
     59 H11        5.5789   12.5966   10.2593 H         1 RES1    0.0000
     60 H12        5.2345   14.1140   10.4773 H         1 RES1    0.0000
     61 H13        4.0329   14.7144   12.6927 H         1 RES1    0.0000
     62 H14        3.7034   13.5136   13.6492 H         1 RES1    0.0000
     63 H15        5.3220   12.1095   16.3955 H         1 RES1    0.0000
     64 H16        5.4584   10.6107   16.8298 H         1 RES1    0.0000
     65 H17        4.1782   11.0901   16.0632 H         1 RES1    0.0000
     66 H18        5.8102    9.3385   13.4927 H         1 RES1    0.0000
     67 H19        4.4699    9.4176   14.3032 H         1 RES1    0.0000
     68 H20        5.7621    8.8404   14.9784 H         1 RES1    0.0000
     69 H21        7.4458   12.0241   14.9872 H         1 RES1    0.0000
     70 H22        7.6678   10.7395   14.1133 H         1 RES1    0.0000
     71 H23        7.6056   10.6247   15.6764 H         1 RES1    0.0000
     72 H24        4.4249    2.0511   11.9859 H         2 RES2    0.0000
     73 H25        5.5261    1.6027   10.0096 H         2 RES2    0.0000
     74 H26        4.5344    2.1364    7.9876 H         2 RES2    0.0000
     75 H27        2.4178    2.9696    7.9331 H         2 RES2    0.0000
     76 H28        1.2861    3.4180    9.8883 H         2 RES2    0.0000
     77 H29       -1.4785    3.4273   14.1415 H         2 RES2    0.0000
     78 H30       -0.4548    3.3373   16.2285 H         2 RES2    0.0000
     79 H31       -0.0014    4.8376   16.0896 H         2 RES2    0.0000
     80 H32       -2.6863    3.9532   16.2214 H         2 RES2    0.0000
     81 H33       -1.9639    4.7895   17.3326 H         2 RES2    0.0000
     82 H34       -3.4135    6.1114   16.0175 H         2 RES2    0.0000
     83 H35       -1.9433    6.6606   16.0157 H         2 RES2    0.0000
     84 H36       -0.5242    6.0586   13.8355 H         2 RES2    0.0000
     85 H37       -1.3172    5.2580   12.7401 H         2 RES2    0.0000
     86 H38       -4.0460    9.0577   12.4377 H         2 RES2    0.0000
     87 H39       -3.8642    9.3881   10.9151 H         2 RES2    0.0000
     88 H40       -2.6247    8.9739   11.7819 H         2 RES2    0.0000
     89 H41       -2.1568    7.1819   10.1046 H         2 RES2    0.0000
     90 H42       -3.4406    7.5682    9.2923 H         2 RES2    0.0000
     91 H43       -3.2521    6.1005    9.8092 H         2 RES2    0.0000
     92 H44       -5.7058    7.3308   12.0140 H         2 RES2    0.0000
     93 H45       -5.3540    6.0865   11.1261 H         2 RES2    0.0000
     94 H46       -5.6517    7.4705   10.4527 H         2 RES2    0.0000
@<TRIPOS>BOND
     1    1    5 1
     2    2   20 1
     3    3   20 2
     4    4   13 1
     5    5   13 2
     6    6   18 1
     7    7    8 ar
     8    8    9 ar
     9    9   10 ar
    10   10   11 ar
    11   11   12 ar
    12   12    7 ar
    13   13    7 1
    14   14    1 1
    15   15   14 1
    16   16   15 1
    17   17   16 1
    18   18   17 1
    19   19    6 1
    20   20    6 1
    21   21    2 1
    22   22   21 1
    23   23   21 1
    24   24   21 1
    25   25   28 1
    26   26   44 2
    27   27   44 1
    28   28   37 2
    29   29   37 1
    30   30   42 1
    31   31   32 ar
    32   32   33 ar
    33   33   34 ar
    34   34   35 ar
    35   35   36 ar
    36   36   31 ar
    37   37   31 1
    38   38   25 1
    39   39   38 1
    40   40   39 1
    41   41   40 1
    42   42   41 1
    43   43   30 1
    44   44   30 1
    45   45   27 1
    46   46   45 1
    47   47   45 1
    48   48   45 1
    49   49    8 1
    50   50    9 1
    51   51   10 1
    52   52   11 1
    53   53   12 1
    54   54   15 1
    55   55   16 1
    56   56   16 1
    57   57   17 1
    58   58   17 1
    59   59   18 1
    60   60   18 1
    61   61   19 1
    62   62   19 1
    63   63   22 1
    64   64   22 1
    65   65   22 1
    66   66   23 1
    67   67   23 1
    68   68   23 1
    69   69   24 1
    70   70   24 1
    71   71   24 1
    72   72   32 1
    73   73   33 1
    74   74   34 1
    75   75   35 1
    76   76   36 1
    77   77   39 1
    78   78   40 1
    79   79   40 1
    80   80   41 1
    81   81   41 1
    82   82   42 1
    83   83   42 1
    84   84   43 1
    85   85   43 1
    86   86   46 1
    87   87   46 1
    88   88   46 1
    89   89   47 1
    90   90   47 1
    91   91   47 1
    92   92   48 1
    93   93   48 1
    94   94   48 1
    95    4   14 2
    96   15   19 1
    97   29   38 2
    98   39   43 1
@<TRIPOS>SUBSTRUCTURE
     1 RES1 1
     2 RES2 25

@<TRIPOS>CRYSIN
   6.4640   15.5150   17.8470  90.0000  99.8800  90.0000   4 1

