# MOL2 file generated by ConQuest
# Please check atom types

@<TRIPOS>MOLECULE
YUQZUG
   120   126     2
SMALL
NO_CHARGES
****
Generated from CSD

@<TRIPOS>ATOM
      1 O1         5.6966   12.8153    5.7076 O.3       1 RES1    0.0000
      2 O2         6.8466    9.4373    2.4896 O.2       2 RES2    0.0000
      3 O3         4.3147    9.5623    6.1873 O.2       1 RES1    0.0000
      4 N1         6.4434   10.1985    5.6700 N.am      1 RES1    0.0000
      5 O4         3.7117   11.0527    2.2999 O.3       2 RES2    0.0000
      6 N2         6.8714    8.8913    5.8329 N.2       1 RES1    0.0000
      7 O5         4.6947    4.5467   12.4462 O.2       2 RES2    0.0000
      8 O6         5.0490    6.6898   12.6842 O.2       2 RES2    0.0000
      9 N3         4.7354    8.7642    2.9764 N.am      2 RES2    0.0000
     10 N4         4.8934    5.6627   11.9862 N.pl3     2 RES2    0.0000
     11 N5         5.1108    6.2995    6.4629 N.3       2 RES2    0.0000
     12 O7        10.3383    5.0927   -2.1835 O.2       1 RES1    0.0000
     13 N6         5.1956    7.5183    3.3469 N.2       2 RES2    0.0000
     14 N7         8.6614    6.3122    4.7197 N.2       1 RES1    0.0000
     15 N8         5.2613    5.1945    5.6146 N.2       2 RES2    0.0000
     16 N9         8.3497    6.8477    3.4632 N.3       1 RES1    0.0000
     17 O8        11.6176    3.8604   -0.9378 O.2       1 RES1    0.0000
     18 N10       10.7114    4.6968   -1.0846 N.pl3     1 RES1    0.0000
     19 N11        8.4580    6.7035    6.9927 N.3       1 RES1    0.0000
     20 C1         9.1222    6.1907   -0.0179 C.ar      1 RES1    0.0000
     21 C2         8.9206    6.2986    2.3661 C.ar      1 RES1    0.0000
     22 C3         9.9308    5.3270    2.4860 C.ar      1 RES1    0.0000
     23 C4         5.1175   10.4299    5.9045 C.2       1 RES1    0.0000
     24 C5         5.0539    6.0994    7.7891 C.ar      2 RES2    0.0000
     25 C6         4.9562    5.8245   10.5490 C.ar      2 RES2    0.0000
     26 C7        10.0943    5.2345    0.1163 C.ar      1 RES1    0.0000
     27 C8        10.4855    4.8015    1.3692 C.ar      1 RES1    0.0000
     28 C9         5.1227    7.2271    8.6196 C.ar      2 RES2    0.0000
     29 N12        5.2504    4.5205    3.4543 N.3       2 RES2    0.0000
     30 C10        5.0853    7.0835    9.9763 C.ar      2 RES2    0.0000
     31 C11        4.7097   11.8384    5.7291 C.2       1 RES1    0.0000
     32 C12        8.0579    8.5783    5.4785 C.2       1 RES1    0.0000
     33 C13        8.5434    6.7419    1.0864 C.ar      1 RES1    0.0000
     34 C14        8.4320    7.1435    5.6879 C.2       1 RES1    0.0000
     35 C15        4.9705    5.4480    4.3742 C.2       2 RES2    0.0000
     36 C16        4.3930    6.7597    3.9518 C.2       2 RES2    0.0000
     37 C17        4.6308    4.5053    2.1710 C.3       2 RES2    0.0000
     38 C18        4.9541    4.8347    8.3708 C.ar      2 RES2    0.0000
     39 C19        3.6652   13.7766    5.4392 C.ar      1 RES1    0.0000
     40 C20        4.8939    4.6944    9.7436 C.ar      2 RES2    0.0000
     41 C21        9.0881    9.4578    4.8664 C.3       1 RES1    0.0000
     42 C22        5.6526    9.6817    2.5737 C.2       2 RES2    0.0000
     43 C23        5.0071   14.0075    5.5483 C.ar      1 RES1    0.0000
     44 C24        5.1023   10.9975    2.2694 C.2       2 RES2    0.0000
     45 C25        2.9749    7.0601    4.3581 C.3       2 RES2    0.0000
     46 C26        6.0209    3.3242    3.8033 C.3       2 RES2    0.0000
     47 C27        3.4848   12.3524    5.5752 C.2       1 RES1    0.0000
     48 C28        5.6440   12.1955    2.0493 C.2       2 RES2    0.0000
     49 C29        2.1827   11.6486    5.5269 C.3       1 RES1    0.0000
     50 C30        2.8058   14.8761    5.2691 C.ar      1 RES1    0.0000
     51 C31        5.5926   15.2576    5.5286 C.ar      1 RES1    0.0000
     52 C32        3.3735   16.1280    5.2315 C.ar      1 RES1    0.0000
     53 C33        3.4122   12.3518    2.0529 C.ar      2 RES2    0.0000
     54 C34        8.8444    7.5873    8.0916 C.3       1 RES1    0.0000
     55 C35        6.9505    2.9640    2.8153 C.3       2 RES2    0.0000
     56 C36        8.7653    5.3301    7.2629 C.3       1 RES1    0.0000
     57 C37        4.5454   13.1115    1.8829 C.ar      2 RES2    0.0000
     58 C38        5.5550    4.1447    1.1294 C.3       2 RES2    0.0000
     59 C39       10.2985    7.4889    8.4120 C.3       1 RES1    0.0000
     60 C40        7.1185   12.4657    1.9885 C.3       2 RES2    0.0000
     61 C41       10.7024    6.0380    8.6805 C.3       1 RES1    0.0000
     62 C42       10.2381    5.1419    7.5636 C.3       1 RES1    0.0000
     63 C43        2.1373   12.8627    1.9544 C.ar      2 RES2    0.0000
     64 C44        4.7372   16.3148    5.3479 C.ar      1 RES1    0.0000
     65 C45        6.3429    2.8906    1.4390 C.3       2 RES2    0.0000
     66 C46        3.1282   14.9839    1.5500 C.ar      2 RES2    0.0000
     67 C47        4.4245   14.4809    1.6466 C.ar      2 RES2    0.0000
     68 C48        2.0171   14.1924    1.6878 C.ar      2 RES2    0.0000
     69 H1        10.1853    5.0611    3.3722 H         1 RES1    0.0000
     70 H2        11.1509    4.1130    1.4379 H         1 RES1    0.0000
     71 H3         5.2034    8.0820    8.1913 H         2 RES2    0.0000
     72 H4         5.1371    7.8216   10.5874 H         2 RES2    0.0000
     73 H5         7.8499    7.3946    0.9631 H         1 RES1    0.0000
     74 H6         3.9443    3.8340    2.1622 H         2 RES2    0.0000
     75 H7         4.2375    5.3669    2.0139 H         2 RES2    0.0000
     76 H8         4.9072    4.0702    7.7930 H         2 RES2    0.0000
     77 H9         4.8118    3.8486   10.1909 H         2 RES2    0.0000
     78 H10        9.8898    8.9584    4.6967 H         1 RES1    0.0000
     79 H11        9.2834   10.1805    5.4692 H         1 RES1    0.0000
     80 H12        8.7501    9.8125    4.0416 H         1 RES1    0.0000
     81 H13        2.5947    6.2950    4.7965 H         2 RES2    0.0000
     82 H14        2.4614    7.2664    3.5734 H         2 RES2    0.0000
     83 H15        2.9638    7.8103    4.9553 H         2 RES2    0.0000
     84 H16        6.4832    3.4913    4.6277 H         2 RES2    0.0000
     85 H17        5.4347    2.5711    3.9125 H         2 RES2    0.0000
     86 H18        1.4819   12.2905    5.3906 H         1 RES1    0.0000
     87 H19        2.0494   11.2017    6.3651 H         1 RES1    0.0000
     88 H20        2.1683   11.0041    4.8144 H         1 RES1    0.0000
     89 H21        1.8601   14.7335    5.1878 H         1 RES1    0.0000
     90 H22        2.8096   16.8952    5.1089 H         1 RES1    0.0000
     91 H23        8.5858    8.4848    7.8722 H         1 RES1    0.0000
     92 H24        8.3752    7.3014    8.8788 H         1 RES1    0.0000
     93 H25        7.6298    3.6422    2.7890 H         2 RES2    0.0000
     94 H26        7.3500    2.1194    3.0349 H         2 RES2    0.0000
     95 H27        8.2685    5.0282    8.0275 H         1 RES1    0.0000
     96 H28        8.5195    4.8074    6.4958 H         1 RES1    0.0000
     97 H29        5.1075    4.0588    0.2847 H         2 RES2    0.0000
     98 H30        6.1921    4.8612    1.0827 H         2 RES2    0.0000
     99 H31       10.7596    7.7582    7.6142 H         1 RES1    0.0000
    100 H32       10.5362    8.0761    9.1330 H         1 RES1    0.0000
    101 H33        7.2279   13.4019    1.8087 H         2 RES2    0.0000
    102 H34        7.3145   12.5937    1.1097 H         2 RES2    0.0000
    103 H35        7.3103   12.8491    2.8279 H         2 RES2    0.0000
    104 H36       11.6402    5.9472    8.8639 H         1 RES1    0.0000
    105 H37       10.1986    5.7800    9.4568 H         1 RES1    0.0000
    106 H38       10.4382    4.2232    7.7585 H         1 RES1    0.0000
    107 H39       10.7302    5.4192    6.7879 H         1 RES1    0.0000
    108 H40        5.0752   17.2135    5.3254 H         1 RES1    0.0000
    109 H41        7.0023    2.7299    0.7597 H         2 RES2    0.0000
    110 H42        5.7107    2.1674    1.4476 H         2 RES2    0.0000
    111 H43        2.9672   15.9120    1.3663 H         2 RES2    0.0000
    112 H44        1.1516   14.5966    1.5910 H         2 RES2    0.0000
    113 H45        6.5467   15.3330    5.6131 H         1 RES1    0.0000
    114 H46        5.2139   15.0191    1.5600 H         2 RES2    0.0000
    115 H47        1.4071   12.2541    2.0874 H         2 RES2    0.0000
    116 H48        7.0837   10.8632    5.4054 H         1 RES1    0.0000
    117 H49        7.7432    7.5893    3.4159 H         1 RES1    0.0000
    118 H50        3.7925    8.9368    3.0210 H         2 RES2    0.0000
    119 H51        5.0576    7.1745    6.0708 H         2 RES2    0.0000
    120 H52        8.8674    6.4557   -0.9050 H         1 RES1    0.0000
@<TRIPOS>BOND
     1    1   31 1
     2    2   42 2
     3    3   23 2
     4    4    6 1
     5    5   44 1
     6    6   32 2
     7    7   10 2
     8    8   10 2
     9    9   13 1
    10   10   25 1
    11   11   15 1
    12   12   18 2
    13   13   36 2
    14   14   16 1
    15   15   35 2
    16   16   21 1
    17   17   18 2
    18   18   26 1
    19   19   34 1
    20   20   26 ar
    21   21   22 ar
    22   22   27 ar
    23   23    4 1
    24   24   11 1
    25   25   30 ar
    26   26   27 ar
    27   27   70 1
    28   28   24 ar
    29   29   35 1
    30   30   28 ar
    31   31   23 1
    32   32   34 1
    33   33   20 ar
    34   34   14 2
    35   35   36 1
    36   36   45 1
    37   37   29 1
    38   38   24 ar
    39   39   43 ar
    40   40   25 ar
    41   41   32 1
    42   42    9 1
    43   43    1 1
    44   44   42 1
    45   45   81 1
    46   46   29 1
    47   47   31 2
    48   48   44 2
    49   49   47 1
    50   50   39 ar
    51   51   43 ar
    52   52   50 ar
    53   53    5 1
    54   54   19 1
    55   55   46 1
    56   56   19 1
    57   57   48 1
    58   58   37 1
    59   59   54 1
    60   60   48 1
    61   61   59 1
    62   62   56 1
    63   63   53 ar
    64   64   51 ar
    65   65   55 1
    66   66   67 ar
    67   67   57 ar
    68   68   63 ar
    69   69   22 1
    70   71   28 1
    71   72   30 1
    72   73   33 1
    73   74   37 1
    74   75   37 1
    75   76   38 1
    76   77   40 1
    77   78   41 1
    78   79   41 1
    79   80   41 1
    80   82   45 1
    81   83   45 1
    82   84   46 1
    83   85   46 1
    84   86   49 1
    85   87   49 1
    86   88   49 1
    87   89   50 1
    88   90   52 1
    89   91   54 1
    90   92   54 1
    91   93   55 1
    92   94   55 1
    93   95   56 1
    94   96   56 1
    95   97   58 1
    96   98   58 1
    97   99   59 1
    98  100   59 1
    99  101   60 1
   100  102   60 1
   101  103   60 1
   102  104   61 1
   103  105   61 1
   104  106   62 1
   105  107   62 1
   106  108   64 1
   107  109   65 1
   108  110   65 1
   109  111   66 1
   110  112   68 1
   111  113   51 1
   112  114   67 1
   113  115   63 1
   114  116    4 1
   115  117   16 1
   116  118    9 1
   117  119   11 1
   118  120   20 1
   119   21   33 ar
   120   38   40 ar
   121   39   47 1
   122   52   64 ar
   123   53   57 ar
   124   58   65 1
   125   61   62 1
   126   66   68 ar
@<TRIPOS>SUBSTRUCTURE
     1 RES1 1
     2 RES2 2

@<TRIPOS>CRYSIN
   9.6172   14.1813   18.7384  72.9600  84.8020  80.4920   2 1

