# MOL2 file generated by ConQuest
# Please check atom types

@<TRIPOS>MOLECULE
YURBAP
    71    75     1
SMALL
NO_CHARGES
****
Generated from CSD

@<TRIPOS>ATOM
      1 N1        -3.0507   -0.1882   16.2734 N.2       1 RES1    0.0000
      2 O1        -1.3742   -0.9170   18.2767 O.2       1 RES1    0.0000
      3 N2        -1.9599    0.5672   16.6428 N.am      1 RES1    0.0000
      4 O2         0.2641    1.9651   17.0206 O.3       1 RES1    0.0000
      5 N3        -4.1816    2.5784   14.6513 N.2       1 RES1    0.0000
      6 N4        -2.2932    1.5546   13.8446 N.pl3     1 RES1    0.0000
      7 N5        -5.2438    2.5468   15.5415 N.3       1 RES1    0.0000
      8 C1        -3.7523    0.2247   15.2743 C.2       1 RES1    0.0000
      9 C2        -6.7779    3.7152   16.9474 C.ar      1 RES1    0.0000
     10 C3        -4.8389   -0.6206   14.8522 C.2       1 RES1    0.0000
     11 O3        -6.9977    8.3838   16.9917 O.2       1 RES1    0.0000
     12 O4        -8.2744    7.2275   18.3244 O.2       1 RES1    0.0000
     13 C4        -5.7995    3.7164   15.9466 C.ar      1 RES1    0.0000
     14 C5        -1.7516    0.3449   13.2063 C.3       1 RES1    0.0000
     15 N6        -7.4373    7.3065   17.4274 N.pl3     1 RES1    0.0000
     16 C6        -1.1511    0.0947   17.6368 C.2       1 RES1    0.0000
     17 C7        -3.4788    1.5121   14.5543 C.2       1 RES1    0.0000
     18 C8        -5.9474    6.1211   15.8853 C.ar      1 RES1    0.0000
     19 C9        -5.3914    4.9552   15.4190 C.ar      1 RES1    0.0000
     20 C10       -7.3196    4.8811   17.4070 C.ar      1 RES1    0.0000
     21 C11        1.6905    2.1424   18.7533 C.ar      1 RES1    0.0000
     22 C12       -1.8623    2.7958   13.2063 C.3       1 RES1    0.0000
     23 C13       -5.5715   -0.4093   13.7646 C.2       1 RES1    0.0000
     24 C14       -6.8958    6.0774   16.8827 C.ar      1 RES1    0.0000
     25 C15       -6.6343   -1.2558   13.2182 C.ar      1 RES1    0.0000
     26 C16        0.8832    0.9728   18.9507 C.2       1 RES1    0.0000
     27 C17        0.2412    1.6457   12.4778 C.3       1 RES1    0.0000
     28 C18        0.0245    0.9315   17.9142 C.2       1 RES1    0.0000
     29 C19       -7.1280   -2.3659   13.8956 C.ar      1 RES1    0.0000
     30 C20       -0.2564    0.3838   13.1671 C.3       1 RES1    0.0000
     31 C21       -0.3633    2.8650   13.1433 C.3       1 RES1    0.0000
     32 C22        1.3020    2.6950   17.5670 C.ar      1 RES1    0.0000
     33 C23       -8.1136   -3.1347   13.3254 C.ar      1 RES1    0.0000
     34 C24        3.2212    3.9496   18.9950 C.ar      1 RES1    0.0000
     35 C25        0.9401    0.0449   20.1201 C.3       1 RES1    0.0000
     36 C26        2.6833    2.7909   19.5039 C.ar      1 RES1    0.0000
     37 C27        2.8275    4.4427   17.7797 C.ar      1 RES1    0.0000
     38 C28       -7.1469   -0.9753   11.9621 C.ar      1 RES1    0.0000
     39 C29       -8.6083   -2.8456   12.0897 C.ar      1 RES1    0.0000
     40 C30        1.8375    3.8379   17.0393 C.ar      1 RES1    0.0000
     41 C31       -8.1542   -1.7683   11.4276 C.ar      1 RES1    0.0000
     42 H1        -7.0701    2.8683   17.2913 H         1 RES1    0.0000
     43 H2        -5.0553   -1.3967   15.3741 H         1 RES1    0.0000
     44 H3        -2.0490   -0.4253   13.6962 H         1 RES1    0.0000
     45 H4        -2.0674    0.2900   12.3014 H         1 RES1    0.0000
     46 H5        -5.6802    6.9578   15.4983 H         1 RES1    0.0000
     47 H6        -4.7052    4.9651   14.7489 H         1 RES1    0.0000
     48 H7        -7.9791    4.8648   18.1041 H         1 RES1    0.0000
     49 H8        -2.2032    2.8308   12.3093 H         1 RES1    0.0000
     50 H9        -2.2128    3.5329   13.7110 H         1 RES1    0.0000
     51 H10       -5.4114    0.3960   13.2671 H         1 RES1    0.0000
     52 H11        1.1998    1.6821   12.4961 H         1 RES1    0.0000
     53 H12       -0.0613    1.6093   11.5679 H         1 RES1    0.0000
     54 H13       -6.7605   -2.5817   14.7563 H         1 RES1    0.0000
     55 H14        0.0559    0.4168   14.0744 H         1 RES1    0.0000
     56 H15        0.0969   -0.3973   12.7353 H         1 RES1    0.0000
     57 H16       -0.0763    3.6595   12.6886 H         1 RES1    0.0000
     58 H17       -0.0342    2.8759   14.0457 H         1 RES1    0.0000
     59 H18       -8.4670   -3.8833   13.8119 H         1 RES1    0.0000
     60 H19        3.8744    4.4379   19.5019 H         1 RES1    0.0000
     61 H20        0.3008   -0.6619   20.0067 H         1 RES1    0.0000
     62 H21        0.7456    0.5270   20.9266 H         1 RES1    0.0000
     63 H22        1.8233   -0.3292   20.1762 H         1 RES1    0.0000
     64 H23        2.9679    2.3969   20.3326 H         1 RES1    0.0000
     65 H24        3.2413    5.2360   17.4321 H         1 RES1    0.0000
     66 H25       -6.7940   -0.2097   11.5023 H         1 RES1    0.0000
     67 H26       -9.2906   -3.4008   11.7042 H         1 RES1    0.0000
     68 H27        1.5171    4.1441   16.1876 H         1 RES1    0.0000
     69 H28       -8.5077   -1.5690   10.5571 H         1 RES1    0.0000
     70 H29       -5.5660    1.6984   15.8525 H         1 RES1    0.0000
     71 H30       -1.7983    1.4022   16.1978 H         1 RES1    0.0000
@<TRIPOS>BOND
     1    1    3 1
     2    2   16 2
     3    3   16 1
     4    4   28 1
     5    5    7 1
     6    6   14 1
     7    7   13 1
     8    8    1 2
     9    9   13 ar
    10   10    8 1
    11   11   15 2
    12   12   15 2
    13   13   19 ar
    14   14   30 1
    15   15   24 1
    16   16   28 1
    17   17    5 2
    18   18   19 ar
    19   19   47 1
    20   20    9 ar
    21   21   26 1
    22   22    6 1
    23   23   10 2
    24   24   18 ar
    25   25   23 1
    26   26   28 2
    27   27   30 1
    28   29   25 ar
    29   30   55 1
    30   31   22 1
    31   32    4 1
    32   33   29 ar
    33   34   36 ar
    34   35   26 1
    35   36   21 ar
    36   37   34 ar
    37   38   25 ar
    38   39   33 ar
    39   40   32 ar
    40   41   38 ar
    41   42    9 1
    42   43   10 1
    43   44   14 1
    44   45   14 1
    45   46   18 1
    46   48   20 1
    47   49   22 1
    48   50   22 1
    49   51   23 1
    50   52   27 1
    51   53   27 1
    52   54   29 1
    53   56   30 1
    54   57   31 1
    55   58   31 1
    56   59   33 1
    57   60   34 1
    58   61   35 1
    59   62   35 1
    60   63   35 1
    61   64   36 1
    62   65   37 1
    63   66   38 1
    64   67   39 1
    65   68   40 1
    66   69   41 1
    67   70    7 1
    68   71    3 1
    69    6   17 1
    70    8   17 1
    71   20   24 ar
    72   21   32 ar
    73   27   31 1
    74   37   40 ar
    75   39   41 ar
@<TRIPOS>SUBSTRUCTURE
     1 RES1 1

@<TRIPOS>CRYSIN
  13.8406   12.1451   20.5992  90.0000 124.2820  90.0000  14 1

