# MOL2 file generated by ConQuest
# Please check atom types

@<TRIPOS>MOLECULE
YURGUO
   228   240     4
SMALL
NO_CHARGES
****
Generated from CSD

@<TRIPOS>ATOM
      1 N1        19.4094    1.9899    3.4938 N.3       1 RES1    0.0000
      2 C1        19.4801    2.9476    4.5858 C.3       1 RES1    0.0000
      3 C2        19.3415    2.0633    5.8831 C.3       1 RES1    0.0000
      4 C3        19.8688    0.7425    5.3657 C.ar      1 RES1    0.0000
      5 C4        20.2549   -0.3916    6.0564 C.ar      1 RES1    0.0000
      6 H1        20.2412   -0.4070    7.0070 H         1 RES1    0.0000
      7 C5        20.6670   -1.5187    5.3324 C.ar      1 RES1    0.0000
      8 H2        20.9198   -2.3089    5.7967 H         1 RES1    0.0000
      9 C6        20.7068   -1.4934    3.9718 C.ar      1 RES1    0.0000
     10 H3        21.0078   -2.2612    3.4995 H         1 RES1    0.0000
     11 C7        20.3169   -0.3635    3.2595 C.ar      1 RES1    0.0000
     12 H4        20.3426   -0.3481    2.3106 H         1 RES1    0.0000
     13 C8        19.8860    0.7467    3.9849 C.ar      1 RES1    0.0000
     14 C9        20.0983    2.6402    7.0800 C.3       1 RES1    0.0000
     15 H5        19.9061    2.1040    7.8765 H         1 RES1    0.0000
     16 H6        19.8136    3.5651    7.2324 H         1 RES1    0.0000
     17 H7        21.0615    2.6205    6.8970 H         1 RES1    0.0000
     18 C10       17.8544    1.9033    6.2749 C.3       1 RES1    0.0000
     19 H8        17.3340    1.6422    5.4854 H         1 RES1    0.0000
     20 H9        17.5143    2.7553    6.6205 H         1 RES1    0.0000
     21 H10       17.7712    1.2141    6.9667 H         1 RES1    0.0000
     22 C11       19.7436    2.4409    2.1434 C.3       1 RES1    0.0000
     23 H11       20.6630    2.1461    1.9242 H         1 RES1    0.0000
     24 H12       19.7304    3.4304    2.1228 H         1 RES1    0.0000
     25 C12       18.7751    1.9033    1.0689 C.3       1 RES1    0.0000
     26 H13       19.0813    2.2107    0.1798 H         1 RES1    0.0000
     27 H14       18.8094    0.9137    1.0735 H         1 RES1    0.0000
     28 C13       17.3187    2.3524    1.2785 C.3       1 RES1    0.0000
     29 H15       16.7240    1.7699    0.7407 H         1 RES1    0.0000
     30 H16       17.0793    2.2289    2.2301 H         1 RES1    0.0000
     31 C14       17.0676    3.7855    0.8969 C.2       1 RES1    0.0000
     32 O1        17.9007    4.6277    0.6502 O.2       1 RES1    0.0000
     33 O2        15.7517    4.0478    0.8706 O.3       1 RES1    0.0000
     34 C15       15.3554    5.4207    0.5942 C.3       1 RES1    0.0000
     35 H17       15.8842    5.7842   -0.1583 H         1 RES1    0.0000
     36 H18       15.5098    5.9878    1.3901 H         1 RES1    0.0000
     37 C16       13.8965    5.4039    0.2415 C.3       1 RES1    0.0000
     38 H19       13.5992    6.3162    0.0429 H         1 RES1    0.0000
     39 H20       13.3825    5.0502    0.9983 H         1 RES1    0.0000
     40 H21       13.7558    4.8340   -0.5421 H         1 RES1    0.0000
     41 C17       18.4822    4.0508    4.4200 C.2       1 RES1    0.0000
     42 H22       17.5640    3.8459    4.5488 H         1 RES1    0.0000
     43 C18       18.8072    5.3000    4.1014 C.2       1 RES1    0.0000
     44 H23       18.1213    5.9456    3.9798 H         1 RES1    0.0000
     45 C19       21.1939    4.7245    4.2104 C.ar      1 RES1    0.0000
     46 O3        20.8728    3.4725    4.6250 O.3       1 RES1    0.0000
     47 C20       22.5492    5.0277    4.0993 C.ar      1 RES1    0.0000
     48 H24       23.2041    4.3680    4.2911 H         1 RES1    0.0000
     49 C21       22.9297    6.2923    3.7069 C.ar      1 RES1    0.0000
     50 H25       23.8507    6.5141    3.6336 H         1 RES1    0.0000
     51 C22       21.9551    7.2426    3.4179 C.ar      1 RES1    0.0000
     52 N2        22.3506    8.5725    2.9941 N.pl3     1 RES1    0.0000
     53 O4        23.5454    8.8583    3.0169 O.2       1 RES1    0.0000
     54 O5        21.4851    9.3640    2.6120 O.2       1 RES1    0.0000
     55 C23       20.6024    6.9548    3.5317 C.ar      1 RES1    0.0000
     56 H26       19.9570    7.6215    3.3331 H         1 RES1    0.0000
     57 C24       20.1943    5.6902    3.9361 C.ar      1 RES1    0.0000
     58 N3        13.6189    1.7309    4.1127 N.3       2 RES2    0.0000
     59 C25       13.7144    0.6288    5.0498 C.3       2 RES2    0.0000
     60 C26       13.6252    1.3166    6.4622 C.3       2 RES2    0.0000
     61 C27       14.2149    2.6711    6.1195 C.ar      2 RES2    0.0000
     62 C28       14.6751    3.6845    6.9436 C.ar      2 RES2    0.0000
     63 H27       14.6972    3.5609    7.8845 H         2 RES2    0.0000
     64 C29       15.1030    4.8831    6.3833 C.ar      2 RES2    0.0000
     65 H28       15.4231    5.5807    6.9426 H         2 RES2    0.0000
     66 C30       15.0632    5.0628    5.0128 C.ar      2 RES2    0.0000
     67 H29       15.3576    5.8867    4.6400 H         2 RES2    0.0000
     68 C31       14.5950    4.0494    4.1596 C.ar      2 RES2    0.0000
     69 H30       14.5730    4.1687    3.2177 H         2 RES2    0.0000
     70 C32       14.1655    2.8619    4.7468 C.ar      2 RES2    0.0000
     71 C33       14.3614    0.5418    7.5408 C.3       2 RES2    0.0000
     72 H31       14.2323    0.9825    8.4052 H         2 RES2    0.0000
     73 H32       15.3169    0.5151    7.3290 H         2 RES2    0.0000
     74 H33       14.0097   -0.3720    7.5840 H         2 RES2    0.0000
     75 C34       12.1344    1.5103    6.8473 C.3       2 RES2    0.0000
     76 H34       12.0745    2.0717    7.6484 H         2 RES2    0.0000
     77 H35       11.7273    0.6372    7.0284 H         2 RES2    0.0000
     78 H36       11.6600    1.9454    6.1080 H         2 RES2    0.0000
     79 C35       13.7849    1.4780    2.6954 C.3       2 RES2    0.0000
     80 H37       13.9098    0.5053    2.5548 H         2 RES2    0.0000
     81 H38       14.6038    1.9356    2.3804 H         2 RES2    0.0000
     82 C36       12.6108    1.9454    1.8662 C.3       2 RES2    0.0000
     83 H39       12.4769    2.9167    2.0020 H         2 RES2    0.0000
     84 H40       11.7891    1.4780    2.1657 H         2 RES2    0.0000
     85 C37       12.8414    1.6661    0.3878 C.3       2 RES2    0.0000
     86 H41       13.6181    2.2022    0.0859 H         2 RES2    0.0000
     87 H42       13.0816    0.7116    0.2845 H         2 RES2    0.0000
     88 C38       11.6897    1.9622   -0.5067 C.2       2 RES2    0.0000
     89 O6        11.2598    1.2418   -1.3729 O.2       2 RES2    0.0000
     90 O7        11.1555    3.1745   -0.2321 O.3       2 RES2    0.0000
     91 C39       10.0735    3.5904   -1.1089 C.3       2 RES2    0.0000
     92 H43        9.3067    2.9714   -1.0251 H         2 RES2    0.0000
     93 H44       10.3771    3.5918   -2.0530 H         2 RES2    0.0000
     94 C40        9.6754    4.9772   -0.6881 C.3       2 RES2    0.0000
     95 H45        9.0010    5.3253   -1.3069 H         2 RES2    0.0000
     96 H46       10.4627    5.5611   -0.7004 H         2 RES2    0.0000
     97 H47        9.3028    4.9491    0.2174 H         2 RES2    0.0000
     98 C41       12.7145   -0.4421    4.7680 C.2       2 RES2    0.0000
     99 H48       11.7950   -0.2035    4.7742 H         2 RES2    0.0000
    100 C42       13.0261   -1.7082    4.5096 C.2       2 RES2    0.0000
    101 H49       12.3331   -2.3440    4.3797 H         2 RES2    0.0000
    102 C43       15.4161   -1.1566    4.6091 C.ar      2 RES2    0.0000
    103 O8        15.1166    0.1244    4.9344 O.3       2 RES2    0.0000
    104 C44       16.7754   -1.4766    4.4728 C.ar      2 RES2    0.0000
    105 H50       17.4341   -0.8001    4.5702 H         2 RES2    0.0000
    106 C45       17.1540   -2.7735    4.1988 C.ar      2 RES2    0.0000
    107 H51       18.0723   -3.0051    4.1221 H         2 RES2    0.0000
    108 C46       16.1570   -3.7364    4.0383 C.ar      2 RES2    0.0000
    109 N4        16.5323   -5.1091    3.7453 N.pl3     2 RES2    0.0000
    110 O9        17.7421   -5.4069    3.7920 O.2       2 RES2    0.0000
    111 O10       15.6662   -5.9252    3.4638 O.2       2 RES2    0.0000
    112 C47       14.8138   -3.4346    4.1395 C.ar      2 RES2    0.0000
    113 H52       14.1636   -4.1154    4.0147 H         2 RES2    0.0000
    114 C48       14.4171   -2.1335    4.4234 C.ar      2 RES2    0.0000
    115 N5         8.0068    1.4408    2.9662 N.3       3 RES3    0.0000
    116 C49        8.0510    2.6696    3.7367 C.3       3 RES3    0.0000
    117 C50        7.8068    2.1994    5.2148 C.3       3 RES3    0.0000
    118 C51        8.3920    0.8071    5.1445 C.ar      3 RES3    0.0000
    119 C52        8.7695   -0.0505    6.1611 C.ar      3 RES3    0.0000
    120 H53        8.7063    0.2204    7.0687 H         3 RES3    0.0000
    121 C53        9.2475   -1.3250    5.8326 C.ar      3 RES3    0.0000
    122 H54        9.5095   -1.9285    6.5186 H         3 RES3    0.0000
    123 C54        9.3356   -1.6998    4.5074 C.ar      3 RES3    0.0000
    124 H55        9.6534   -2.5700    4.2938 H         3 RES3    0.0000
    125 C55        8.9704   -0.8379    3.4675 C.ar      3 RES3    0.0000
    126 H56        9.0517   -1.0962    2.5575 H         3 RES3    0.0000
    127 C56        8.4832    0.4155    3.8282 C.ar      3 RES3    0.0000
    128 C57        8.4622    3.1328    6.2462 C.3       3 RES3    0.0000
    129 H57        8.2796    2.8002    7.1492 H         3 RES3    0.0000
    130 H58        8.0950    4.0354    6.1509 H         3 RES3    0.0000
    131 H59        9.4297    3.1567    6.0972 H         3 RES3    0.0000
    132 C58        6.2910    2.1068    5.5076 C.3       3 RES3    0.0000
    133 H60        6.1528    1.7264    6.4005 H         3 RES3    0.0000
    134 H61        5.8636    1.5313    4.8386 H         3 RES3    0.0000
    135 H62        5.8960    3.0023    5.4693 H         3 RES3    0.0000
    136 C59        8.3728    1.4597    1.5562 C.3       3 RES3    0.0000
    137 H63        9.2793    1.0780    1.4518 H         3 RES3    0.0000
    138 H64        8.4008    2.3988    1.2425 H         3 RES3    0.0000
    139 C60        7.4010    0.6751    0.6926 C.3       3 RES3    0.0000
    140 H65        7.3477   -0.2555    1.0305 H         3 RES3    0.0000
    141 H66        7.7464    0.6414   -0.2335 H         3 RES3    0.0000
    142 C61        5.9927    1.2885    0.6838 C.3       3 RES3    0.0000
    143 H67        5.3516    0.6288    0.3167 H         3 RES3    0.0000
    144 H68        5.7197    1.4934    1.6129 H         3 RES3    0.0000
    145 C62        5.9380    2.5489   -0.1425 C.2       3 RES3    0.0000
    146 O11        6.7651    2.9111   -0.9414 O.2       3 RES3    0.0000
    147 O12        4.7940    3.2380    0.1055 O.3       3 RES3    0.0000
    148 C63        4.5622    4.4241   -0.7042 C.3       3 RES3    0.0000
    149 H69        3.5977    4.6431   -0.6924 H         3 RES3    0.0000
    150 H70        4.8177    4.2333   -1.6424 H         3 RES3    0.0000
    151 C64        5.3450    5.6144   -0.2093 C.3       3 RES3    0.0000
    152 H71        5.1692    6.3850   -0.7890 H         3 RES3    0.0000
    153 H72        6.3037    5.4053   -0.2281 H         3 RES3    0.0000
    154 H73        5.0722    5.8277    0.7058 H         3 RES3    0.0000
    155 C65        7.0979    3.7223    3.2206 C.2       3 RES3    0.0000
    156 H74        6.2092    3.4669    3.0057 H         3 RES3    0.0000
    157 C66        7.4557    5.0010    3.0553 C.2       3 RES3    0.0000
    158 H75        6.8033    5.6397    2.7910 H         3 RES3    0.0000
    159 C67        9.7846    4.4466    3.5816 C.ar      3 RES3    0.0000
    160 O13        9.4577    3.1285    3.6436 O.3       3 RES3    0.0000
    161 C68       11.1210    4.7708    3.8234 C.ar      3 RES3    0.0000
    162 H76       11.7512    4.0887    4.0201 H         3 RES3    0.0000
    163 C69       11.5166    6.0944    3.7716 C.ar      3 RES3    0.0000
    164 H77       12.4209    6.3373    3.9315 H         3 RES3    0.0000
    165 C70       10.5559    7.0699    3.4791 C.ar      3 RES3    0.0000
    166 N6        10.9607    8.4693    3.4842 N.pl3     3 RES3    0.0000
    167 O14       12.0836    8.7460    3.9294 O.2       3 RES3    0.0000
    168 O15       10.1752    9.3181    3.0644 O.2       3 RES3    0.0000
    169 C71        9.2348    6.7541    3.2273 C.ar      3 RES3    0.0000
    170 H78        8.6110    7.4405    3.0245 H         3 RES3    0.0000
    171 C72        8.8229    5.4235    3.2740 C.ar      3 RES3    0.0000
    172 N7         2.0017    1.6468    2.9335 N.3       4 RES4    0.0000
    173 C73        2.1616    0.5320    3.8344 C.3       4 RES4    0.0000
    174 C74        2.0461    1.1664    5.2621 C.3       4 RES4    0.0000
    175 C75        2.5832    2.5672    4.9634 C.ar      4 RES4    0.0000
    176 C76        3.0138    3.5637    5.8157 C.ar      4 RES4    0.0000
    177 H79        3.0226    3.4220    6.7547 H         4 RES4    0.0000
    178 C77        3.4350    4.7821    5.2822 C.ar      4 RES4    0.0000
    179 H80        3.7110    5.4797    5.8638 H         4 RES4    0.0000
    180 C78        3.4537    4.9842    3.9176 C.ar      4 RES4    0.0000
    181 H81        3.7774    5.8067    3.5719 H         4 RES4    0.0000
    182 C79        2.9974    3.9834    3.0266 C.ar      4 RES4    0.0000
    183 H82        2.9975    4.1224    2.0879 H         4 RES4    0.0000
    184 C80        2.5434    2.7777    3.5821 C.ar      4 RES4    0.0000
    185 C81        2.8338    0.4084    6.3235 C.3       4 RES4    0.0000
    186 H83        2.6796    0.8197    7.2002 H         4 RES4    0.0000
    187 H84        3.7892    0.4463    6.1106 H         4 RES4    0.0000
    188 H85        2.5405   -0.5263    6.3441 H         4 RES4    0.0000
    189 C82        0.5749    1.2871    5.6829 C.3       4 RES4    0.0000
    190 H86        0.0586    1.6857    4.9513 H         4 RES4    0.0000
    191 H87        0.5073    1.8556    6.4783 H         4 RES4    0.0000
    192 H88        0.2202    0.3972    5.8879 H         4 RES4    0.0000
    193 C83        2.1168    1.4233    1.4993 C.3       4 RES4    0.0000
    194 H89        2.3218    0.4688    1.3391 H         4 RES4    0.0000
    195 H90        2.8750    1.9566    1.1513 H         4 RES4    0.0000
    196 C84        0.8517    1.7966    0.7257 C.3       4 RES4    0.0000
    197 H91        0.9616    1.5341   -0.2227 H         4 RES4    0.0000
    198 H92        0.0850    1.2913    1.0949 H         4 RES4    0.0000
    199 C85        0.5499    3.2928    0.8013 C.3       4 RES4    0.0000
    200 H93        0.5160    3.5595    1.7551 H         4 RES4    0.0000
    201 H94        1.2973    3.7869    0.3811 H         4 RES4    0.0000
    202 C86       -0.7277    3.7125    0.1422 C.2       4 RES4    0.0000
    203 O16       -1.4841    2.9911   -0.4597 O.2       4 RES4    0.0000
    204 O17       -0.9430    5.0319    0.3253 O.3       4 RES4    0.0000
    205 C87       -2.1523    5.5962   -0.2394 C.3       4 RES4    0.0000
    206 H95       -2.9195    5.4235    0.3623 H         4 RES4    0.0000
    207 H96       -2.3432    5.1821   -1.1191 H         4 RES4    0.0000
    208 C88       -1.9491    7.0587   -0.3988 C.3       4 RES4    0.0000
    209 H97       -2.7398    7.4545   -0.8239 H         4 RES4    0.0000
    210 H98       -1.1623    7.2201   -0.9607 H         4 RES4    0.0000
    211 H99       -1.8109    7.4672    0.4804 H         4 RES4    0.0000
    212 C89        1.2213   -0.5965    3.5821 C.2       4 RES4    0.0000
    213 H100       0.2903   -0.4056    3.5558 H         4 RES4    0.0000
    214 C90        1.6089   -1.8570    3.3900 C.2       4 RES4    0.0000
    215 H101       0.9550   -2.5405    3.3009 H         4 RES4    0.0000
    216 C91        3.9579   -1.1552    3.4190 C.ar      4 RES4    0.0000
    217 O18        3.5917    0.1152    3.6852 O.3       4 RES4    0.0000
    218 C92        5.3218   -1.3868    3.2362 C.ar      4 RES4    0.0000
    219 H102       5.9359   -0.6653    3.2928 H         4 RES4    0.0000
    220 C93        5.7783   -2.6584    2.9729 C.ar      4 RES4    0.0000
    221 H103       6.7040   -2.8212    2.8393 H         4 RES4    0.0000
    222 C94        4.8557   -3.7069    2.9045 C.ar      4 RES4    0.0000
    223 N8         5.3289   -5.0625    2.6810 N.pl3     4 RES4    0.0000
    224 O19        6.5467   -5.2351    2.5156 O.2       4 RES4    0.0000
    225 O20        4.5182   -5.9827    2.6557 O.2       4 RES4    0.0000
    226 C95        3.4961   -3.4936    3.0889 C.ar      4 RES4    0.0000
    227 H104       2.8886   -4.2248    3.0620 H         4 RES4    0.0000
    228 C96        3.0238   -2.1966    3.3148 C.ar      4 RES4    0.0000
@<TRIPOS>BOND
     1    1    2 1
     2    2    3 1
     3    3    4 1
     4    4    5 ar
     5    5    6 1
     6    7    5 ar
     7    8    7 1
     8    9    7 ar
     9   10    9 1
    10   11    9 ar
    11   12   11 1
    12   13    1 1
    13   14    3 1
    14   15   14 1
    15   16   14 1
    16   17   14 1
    17   18    3 1
    18   19   18 1
    19   20   18 1
    20   21   18 1
    21   22    1 1
    22   23   22 1
    23   24   22 1
    24   25   22 1
    25   26   25 1
    26   27   25 1
    27   28   25 1
    28   29   28 1
    29   30   28 1
    30   31   28 1
    31   32   31 2
    32   33   31 1
    33   34   33 1
    34   35   34 1
    35   36   34 1
    36   37   34 1
    37   38   37 1
    38   39   37 1
    39   40   37 1
    40   41    2 1
    41   42   41 1
    42   43   41 2
    43   44   43 1
    44   45   46 1
    45   46    2 1
    46   47   45 ar
    47   48   47 1
    48   49   47 ar
    49   50   49 1
    50   51   49 ar
    51   52   51 1
    52   53   52 2
    53   54   52 2
    54   55   51 ar
    55   56   55 1
    56   57   43 1
    57   58   59 1
    58   59   60 1
    59   60   61 1
    60   61   62 ar
    61   62   63 1
    62   64   62 ar
    63   65   64 1
    64   66   64 ar
    65   67   66 1
    66   68   66 ar
    67   69   68 1
    68   70   58 1
    69   71   60 1
    70   72   71 1
    71   73   71 1
    72   74   71 1
    73   75   60 1
    74   76   75 1
    75   77   75 1
    76   78   75 1
    77   79   58 1
    78   80   79 1
    79   81   79 1
    80   82   79 1
    81   83   82 1
    82   84   82 1
    83   85   82 1
    84   86   85 1
    85   87   85 1
    86   88   85 1
    87   89   88 2
    88   90   88 1
    89   91   90 1
    90   92   91 1
    91   93   91 1
    92   94   91 1
    93   95   94 1
    94   96   94 1
    95   97   94 1
    96   98   59 1
    97   99   98 1
    98  100   98 2
    99  101  100 1
   100  102  103 1
   101  103   59 1
   102  104  102 ar
   103  105  104 1
   104  106  104 ar
   105  107  106 1
   106  108  106 ar
   107  109  108 1
   108  110  109 2
   109  111  109 2
   110  112  108 ar
   111  113  112 1
   112  114  100 1
   113  115  116 1
   114  116  117 1
   115  117  118 1
   116  118  119 ar
   117  119  120 1
   118  121  119 ar
   119  122  121 1
   120  123  121 ar
   121  124  123 1
   122  125  123 ar
   123  126  125 1
   124  127  115 1
   125  128  117 1
   126  129  128 1
   127  130  128 1
   128  131  128 1
   129  132  117 1
   130  133  132 1
   131  134  132 1
   132  135  132 1
   133  136  115 1
   134  137  136 1
   135  138  136 1
   136  139  136 1
   137  140  139 1
   138  141  139 1
   139  142  139 1
   140  143  142 1
   141  144  142 1
   142  145  142 1
   143  146  145 2
   144  147  145 1
   145  148  147 1
   146  149  148 1
   147  150  148 1
   148  151  148 1
   149  152  151 1
   150  153  151 1
   151  154  151 1
   152  155  116 1
   153  156  155 1
   154  157  155 2
   155  158  157 1
   156  159  160 1
   157  160  116 1
   158  161  159 ar
   159  162  161 1
   160  163  161 ar
   161  164  163 1
   162  165  163 ar
   163  166  165 1
   164  167  166 2
   165  168  166 2
   166  169  165 ar
   167  170  169 1
   168  171  157 1
   169  172  173 1
   170  173  174 1
   171  174  175 1
   172  175  176 ar
   173  176  177 1
   174  178  176 ar
   175  179  178 1
   176  180  178 ar
   177  181  180 1
   178  182  180 ar
   179  183  182 1
   180  184  172 1
   181  185  174 1
   182  186  185 1
   183  187  185 1
   184  188  185 1
   185  189  174 1
   186  190  189 1
   187  191  189 1
   188  192  189 1
   189  193  172 1
   190  194  193 1
   191  195  193 1
   192  196  193 1
   193  197  196 1
   194  198  196 1
   195  199  196 1
   196  200  199 1
   197  201  199 1
   198  202  199 1
   199  203  202 2
   200  204  202 1
   201  205  204 1
   202  206  205 1
   203  207  205 1
   204  208  205 1
   205  209  208 1
   206  210  208 1
   207  211  208 1
   208  212  173 1
   209  213  212 1
   210  214  212 2
   211  215  214 1
   212  216  217 1
   213  217  173 1
   214  218  216 ar
   215  219  218 1
   216  220  218 ar
   217  221  220 1
   218  222  220 ar
   219  223  222 1
   220  224  223 2
   221  225  223 2
   222  226  222 ar
   223  227  226 1
   224  228  214 1
   225    4   13 ar
   226   11   13 ar
   227   45   57 ar
   228   55   57 ar
   229   61   70 ar
   230   68   70 ar
   231  102  114 ar
   232  112  114 ar
   233  118  127 ar
   234  125  127 ar
   235  159  171 ar
   236  169  171 ar
   237  175  184 ar
   238  182  184 ar
   239  216  228 ar
   240  226  228 ar
@<TRIPOS>SUBSTRUCTURE
     1 RES1 1
     2 RES2 58
     3 RES3 115
     4 RES4 172

@<TRIPOS>CRYSIN
  23.0330   14.0360   27.1350  90.0000  98.5080  90.0000  14 1

