# MOL2 file generated by ConQuest
# Please check atom types

@<TRIPOS>MOLECULE
YURHEZ
    61    64     1
SMALL
NO_CHARGES
****
Generated from CSD

@<TRIPOS>ATOM
      1 N1         8.5872    7.8360   10.8624 N.3       1 RES1    0.0000
      2 C1         7.5782    8.0076    9.8336 C.3       1 RES1    0.0000
      3 C2         7.1139    9.4927   10.0107 C.3       1 RES1    0.0000
      4 C3         7.4118    9.7005   11.4850 C.ar      1 RES1    0.0000
      5 C4         6.9986   10.7031   12.3482 C.ar      1 RES1    0.0000
      6 H1         6.3992   11.3784   12.0543 H         1 RES1    0.0000
      7 C5         7.4821   10.7006   13.6651 C.ar      1 RES1    0.0000
      8 H2         7.2071   11.3797   14.2705 H         1 RES1    0.0000
      9 C6         8.3549    9.7157   14.0867 C.ar      1 RES1    0.0000
     10 H3         8.6736    9.7333   14.9809 H         1 RES1    0.0000
     11 C7         8.7834    8.6896   13.2271 C.ar      1 RES1    0.0000
     12 H4         9.3813    8.0138   13.5223 H         1 RES1    0.0000
     13 C8         8.2931    8.7055   11.9222 C.ar      1 RES1    0.0000
     14 C9         5.6553    9.7109    9.6042 C.3       1 RES1    0.0000
     15 H5         5.4432   10.6662    9.6507 H         1 RES1    0.0000
     16 H6         5.0691    9.2152   10.2127 H         1 RES1    0.0000
     17 H7         5.5198    9.3904    8.6881 H         1 RES1    0.0000
     18 C10        7.9975   10.4496    9.1820 C.3       1 RES1    0.0000
     19 H8         7.7789   11.3772    9.4115 H         1 RES1    0.0000
     20 H9         7.8327   10.3019    8.2274 H         1 RES1    0.0000
     21 H10        8.9408   10.2779    9.3809 H         1 RES1    0.0000
     22 C11        9.2158    6.5244   11.0389 C.3       1 RES1    0.0000
     23 H11        8.6885    5.8430   10.5509 H         1 RES1    0.0000
     24 H12        9.2057    6.2855   12.0001 H         1 RES1    0.0000
     25 C12       10.6616    6.5020   10.5299 C.3       1 RES1    0.0000
     26 H13       10.9947    5.5695   10.5297 H         1 RES1    0.0000
     27 H14       10.6871    6.8351    9.5977 H         1 RES1    0.0000
     28 C13       11.5673    7.3608   11.3974 C.3       1 RES1    0.0000
     29 H15       11.1179    8.2281   11.5630 H         1 RES1    0.0000
     30 H16       11.6856    6.9133   12.2722 H         1 RES1    0.0000
     31 C14       12.9331    7.6278   10.8012 C.2       1 RES1    0.0000
     32 O1        13.3777    7.1237    9.8075 O.2       1 RES1    0.0000
     33 O2        13.5948    8.5398   11.5500 O.3       1 RES1    0.0000
     34 C15       14.9193    8.9234   11.0910 C.3       1 RES1    0.0000
     35 H17       15.1461    9.8178   11.4510 H         1 RES1    0.0000
     36 H18       14.9198    8.9820   10.1032 H         1 RES1    0.0000
     37 C16       15.9622    7.9218   11.5363 C.3       1 RES1    0.0000
     38 H19       16.8492    8.2269   11.2519 H         1 RES1    0.0000
     39 H20       15.7714    7.0494   11.1329 H         1 RES1    0.0000
     40 H21       15.9427    7.8424   12.5126 H         1 RES1    0.0000
     41 C17        8.1021    7.6264    8.4816 C.2       1 RES1    0.0000
     42 H22        8.7682    8.1752    8.0861 H         1 RES1    0.0000
     43 C18        7.6822    6.5597    7.8082 C.2       1 RES1    0.0000
     44 H23        8.0865    6.3422    6.9774 H         1 RES1    0.0000
     45 C19        6.0065    6.1096    9.5192 C.ar      1 RES1    0.0000
     46 O3         6.4094    7.1846   10.2293 O.3       1 RES1    0.0000
     47 C20        4.9000    5.3995   10.0395 C.ar      1 RES1    0.0000
     48 O4         4.3676    5.9033   11.1848 O.3       1 RES1    0.0000
     49 C21        4.4359    4.2854    9.3597 C.ar      1 RES1    0.0000
     50 H24        3.6973    3.7882    9.6908 H         1 RES1    0.0000
     51 C22        5.0766    3.9088    8.1755 C.ar      1 RES1    0.0000
     52 N2         4.5522    2.7608    7.4453 N.pl3     1 RES1    0.0000
     53 O5         3.5169    2.2299    7.8431 O.2       1 RES1    0.0000
     54 O6         5.1548    2.3797    6.4519 O.2       1 RES1    0.0000
     55 C23        6.1492    4.5922    7.6467 C.ar      1 RES1    0.0000
     56 H25        6.5632    4.3025    6.8419 H         1 RES1    0.0000
     57 C24        6.6130    5.7225    8.3251 C.ar      1 RES1    0.0000
     58 C25        3.3438    5.1362   11.8241 C.3       1 RES1    0.0000
     59 H26        3.0583    5.5922   12.6434 H         1 RES1    0.0000
     60 H27        3.6926    4.2483   12.0484 H         1 RES1    0.0000
     61 H28        2.5793    5.0425   11.2177 H         1 RES1    0.0000
@<TRIPOS>BOND
     1    1    2 1
     2    2    3 1
     3    3    4 1
     4    4    5 ar
     5    5    6 1
     6    7    5 ar
     7    8    7 1
     8    9    7 ar
     9   10    9 1
    10   11    9 ar
    11   12   11 1
    12   13    1 1
    13   14    3 1
    14   15   14 1
    15   16   14 1
    16   17   14 1
    17   18    3 1
    18   19   18 1
    19   20   18 1
    20   21   18 1
    21   22    1 1
    22   23   22 1
    23   24   22 1
    24   25   22 1
    25   26   25 1
    26   27   25 1
    27   28   25 1
    28   29   28 1
    29   30   28 1
    30   31   28 1
    31   32   31 2
    32   33   31 1
    33   34   33 1
    34   35   34 1
    35   36   34 1
    36   37   34 1
    37   38   37 1
    38   39   37 1
    39   40   37 1
    40   41    2 1
    41   42   41 1
    42   43   41 2
    43   44   43 1
    44   45   46 1
    45   46    2 1
    46   47   45 ar
    47   48   47 1
    48   49   47 ar
    49   50   49 1
    50   51   49 ar
    51   52   51 1
    52   53   52 2
    53   54   52 2
    54   55   51 ar
    55   56   55 1
    56   57   43 1
    57   58   48 1
    58   59   58 1
    59   60   58 1
    60   61   58 1
    61    4   13 ar
    62   11   13 ar
    63   45   57 ar
    64   55   57 ar
@<TRIPOS>SUBSTRUCTURE
     1 RES1 1

@<TRIPOS>CRYSIN
  15.1881   12.6063   12.1356  90.0000 103.8630  90.0000   9 1

