# MOL2 file generated by ConQuest
# Please check atom types

@<TRIPOS>MOLECULE
YUTSUD
    45    45     2
SMALL
NO_CHARGES
****
Generated from CSD

@<TRIPOS>ATOM
      1 O1         5.3556   14.4439   11.5634 O.2       1 RES1    0.0000
      2 O2         5.1902   12.2885   11.4435 O.2       1 RES1    0.0000
      3 O3         0.7358   15.1815    6.5856 O.2       1 RES1    0.0000
      4 O4        -0.9309   14.3296    5.0284 O.3       1 RES1    0.0000
      5 H1        -0.3185   14.7852    5.4249 H         1 RES1    0.0000
      6 O5        -0.8852   10.3392    6.2448 O.3       1 RES1    0.0000
      7 O6         0.7450    9.5641    8.2318 O.2       1 RES1    0.0000
      8 O7         0.1270    7.4346    7.9299 O.3       1 RES1    0.0000
      9 N1         4.8819   13.4178   11.0872 N.pl3     1 RES1    0.0000
     10 C1         1.9604   13.8080    8.0537 C.ar      1 RES1    0.0000
     11 C2         2.5805   14.9364    8.5741 C.ar      1 RES1    0.0000
     12 H2         2.3488   15.7966    8.2410 H         1 RES1    0.0000
     13 C3         3.5310   14.8226    9.5696 C.ar      1 RES1    0.0000
     14 H3         3.9454   15.5950    9.9350 H         1 RES1    0.0000
     15 C4         3.8661   13.5690   10.0215 C.ar      1 RES1    0.0000
     16 C5         3.2845   12.4194    9.5213 C.ar      1 RES1    0.0000
     17 H4         3.5363   11.5641    9.8455 H         1 RES1    0.0000
     18 C6         2.3191   12.5527    8.5272 C.ar      1 RES1    0.0000
     19 H5         1.9020   11.7787    8.1689 H         1 RES1    0.0000
     20 C7         0.9353   13.9771    6.9715 C.2       1 RES1    0.0000
     21 C8         0.2373   12.8926    6.4360 C.2       1 RES1    0.0000
     22 H6         0.4143   12.0129    6.7478 H         1 RES1    0.0000
     23 C9        -0.7227   13.1023    5.4401 C.2       1 RES1    0.0000
     24 C10       -1.5520   12.0779    4.7881 C.ar      1 RES1    0.0000
     25 C11       -2.3364   12.4909    3.6996 C.ar      1 RES1    0.0000
     26 H7        -2.2986   13.3999    3.4230 H         1 RES1    0.0000
     27 C12       -3.1552   11.6226    3.0244 C.ar      1 RES1    0.0000
     28 H8        -3.6737   11.9332    2.2900 H         1 RES1    0.0000
     29 C13       -3.2247   10.3088    3.4077 C.ar      1 RES1    0.0000
     30 H9        -3.7901    9.7056    2.9406 H         1 RES1    0.0000
     31 C14       -2.4666    9.8601    4.4835 C.ar      1 RES1    0.0000
     32 H10       -2.5180    8.9511    4.7525 H         1 RES1    0.0000
     33 C15       -1.6349   10.7381    5.1631 C.ar      1 RES1    0.0000
     34 C16       -0.9217    8.9706    6.5871 C.3       1 RES1    0.0000
     35 H11       -0.6977    8.4162    5.7982 H         1 RES1    0.0000
     36 H12       -1.8282    8.7202    6.8984 H         1 RES1    0.0000
     37 C17        0.0857    8.7381    7.6874 C.2       1 RES1    0.0000
     38 C18        1.0225    6.9560    8.9848 C.3       1 RES1    0.0000
     39 H13        1.7444    7.6146    9.1382 H         1 RES1    0.0000
     40 H14        1.4374    6.0991    8.7103 H         1 RES1    0.0000
     41 C19        0.2391    6.7625   10.2328 C.3       1 RES1    0.0000
     42 H15       -0.1597    7.6146   10.5048 H         1 RES1    0.0000
     43 H16        0.8314    6.4373   10.9436 H         1 RES1    0.0000
     44 H17       -0.4708    6.1056   10.0747 H         1 RES1    0.0000
     45 H18        0.1129   15.2324    5.9946 Du        2 SUP2    0.0000
@<TRIPOS>BOND
     1    1    9 2
     2    2    9 2
     3    3   20 2
     4    4    5 1
     5    6   33 1
     6    7   37 2
     7    8   37 1
     8    9   15 1
     9   10   11 ar
    10   11   12 1
    11   13   11 ar
    12   14   13 1
    13   15   13 ar
    14   16   15 ar
    15   17   16 1
    16   18   10 ar
    17   19   18 1
    18   20   10 1
    19   21   20 1
    20   22   21 1
    21   23    4 1
    22   24   23 1
    23   25   24 ar
    24   26   25 1
    25   27   25 ar
    26   28   27 1
    27   29   27 ar
    28   30   29 1
    29   31   29 ar
    30   32   31 1
    31   33   24 ar
    32   34    6 1
    33   35   34 1
    34   36   34 1
    35   37   34 1
    36   38    8 1
    37   39   38 1
    38   40   38 1
    39   41   38 1
    40   42   41 1
    41   43   41 1
    42   44   41 1
    43   16   18 ar
    44   21   23 2
    45   31   33 ar
@<TRIPOS>SUBSTRUCTURE
     1 RES1 1
     2 SUP2 45

@<TRIPOS>CRYSIN
   4.7818   16.2600   21.9480  90.0000  95.9330  90.0000 231 1

