# MOL2 file generated by ConQuest
# Please check atom types

@<TRIPOS>MOLECULE
YUTTOY
    61    64     1
SMALL
NO_CHARGES
****
Generated from CSD

@<TRIPOS>ATOM
      1 O1         1.9685    9.5752    8.7083 O.2       1 RES1    0.0000
      2 O2         7.4536    7.6873    5.0285 O.2       1 RES1    0.0000
      3 N1         2.4330    9.3377    7.5393 N.3       1 RES1    0.0000
      4 N2         6.2652    8.1677    5.0082 N.3       1 RES1    0.0000
      5 N3         4.3589    8.7678    6.2735 N.ar      1 RES1    0.0000
      6 C1         3.7872    8.9271    7.4761 C.ar      1 RES1    0.0000
      7 C2         4.4586    8.7043    8.6897 C.ar      1 RES1    0.0000
      8 C3         5.7755    8.2767    8.6491 C.ar      1 RES1    0.0000
      9 C4         6.3750    8.0692    7.4205 C.ar      1 RES1    0.0000
     10 C5         5.6298    8.3504    6.2594 C.ar      1 RES1    0.0000
     11 C6         1.4676    9.3553    6.3819 C.3       1 RES1    0.0000
     12 C7         0.1300    9.8460    6.9160 C.3       1 RES1    0.0000
     13 C8         1.9433   10.3217    5.2983 C.3       1 RES1    0.0000
     14 C9         1.3135    7.9332    5.8571 C.3       1 RES1    0.0000
     15 C10        5.6884    8.5530    3.6598 C.3       1 RES1    0.0000
     16 C11        4.4089    7.7662    3.3968 C.3       1 RES1    0.0000
     17 C12        5.4673   10.0708    3.6480 C.3       1 RES1    0.0000
     18 C13        6.7307    8.1856    2.6004 C.3       1 RES1    0.0000
     19 C14        6.5472    8.0562    9.9192 C.ar      1 RES1    0.0000
     20 C15        6.4035    6.8623   10.6382 C.ar      1 RES1    0.0000
     21 C16        5.4892    5.8281   10.2524 C.ar      1 RES1    0.0000
     22 C17        5.3904    4.6726   10.9707 C.ar      1 RES1    0.0000
     23 C18        6.2037    4.4591   12.1127 C.ar      1 RES1    0.0000
     24 C19        7.0918    5.3992   12.5134 C.ar      1 RES1    0.0000
     25 C20        7.2122    6.6396   11.8062 C.ar      1 RES1    0.0000
     26 C21        8.1278    7.6307   12.2092 C.ar      1 RES1    0.0000
     27 C22        8.2465    8.8270   11.5192 C.ar      1 RES1    0.0000
     28 C23        9.1733    9.8376   11.9250 C.ar      1 RES1    0.0000
     29 C24        9.2782   11.0088   11.2533 C.ar      1 RES1    0.0000
     30 C25        8.4357   11.2667   10.1265 C.ar      1 RES1    0.0000
     31 C26        7.5508   10.3323    9.6978 C.ar      1 RES1    0.0000
     32 C27        7.4275    9.0610   10.3567 C.ar      1 RES1    0.0000
     33 H1         3.9947    8.8314    9.5340 H         1 RES1    0.0000
     34 H2         7.2828    7.7934    7.3809 H         1 RES1    0.0000
     35 H3         0.2483   10.8542    7.2536 H         1 RES1    0.0000
     36 H4        -0.5349    9.8298    6.2104 H         1 RES1    0.0000
     37 H5        -0.2227    9.2966    7.5811 H         1 RES1    0.0000
     38 H6         2.7599   10.0730    4.8652 H         1 RES1    0.0000
     39 H7         1.2737   10.4012    4.5608 H         1 RES1    0.0000
     40 H8         2.0506   11.2211    5.6161 H         1 RES1    0.0000
     41 H9         0.9174    7.3828    6.5379 H         1 RES1    0.0000
     42 H10        0.6463    7.9958    5.1309 H         1 RES1    0.0000
     43 H11        2.1728    7.5589    5.5918 H         1 RES1    0.0000
     44 H12        3.6789    7.9793    4.0877 H         1 RES1    0.0000
     45 H13        4.1132    8.0696    2.4502 H         1 RES1    0.0000
     46 H14        4.5871    6.7985    3.4424 H         1 RES1    0.0000
     47 H15        6.3901   10.4968    3.6874 H         1 RES1    0.0000
     48 H16        5.0113   10.3522    2.8020 H         1 RES1    0.0000
     49 H17        4.8981   10.3712    4.4031 H         1 RES1    0.0000
     50 H18        6.8381    7.2399    2.6079 H         1 RES1    0.0000
     51 H19        6.3299    8.3925    1.6945 H         1 RES1    0.0000
     52 H20        7.5407    8.6373    2.7025 H         1 RES1    0.0000
     53 H21        4.9434    6.0515    9.4430 H         1 RES1    0.0000
     54 H22        4.7625    4.0274   10.6620 H         1 RES1    0.0000
     55 H23        6.0744    3.6055   12.5906 H         1 RES1    0.0000
     56 H24        7.6395    5.1796   13.3063 H         1 RES1    0.0000
     57 H25        8.7304    7.4480   13.0152 H         1 RES1    0.0000
     58 H26        9.7460    9.6114   12.6998 H         1 RES1    0.0000
     59 H27        9.8972   11.7099   11.4626 H         1 RES1    0.0000
     60 H28        8.4954   12.1581    9.6771 H         1 RES1    0.0000
     61 H29        7.0062   10.5519    8.9517 H         1 RES1    0.0000
@<TRIPOS>BOND
     1    1    3 1
     2    2    4 1
     3    3    6 1
     4    4   10 1
     5    5    6 ar
     6    6    7 ar
     7    7    8 ar
     8    8    9 ar
     9    9   10 ar
    10   10    5 ar
    11   11    3 1
    12   12   11 1
    13   13   11 1
    14   14   11 1
    15   15    4 1
    16   16   15 1
    17   17   15 1
    18   18   15 1
    19   19    8 1
    20   20   19 ar
    21   21   20 ar
    22   22   21 ar
    23   23   22 ar
    24   24   23 ar
    25   25   20 ar
    26   26   25 ar
    27   27   26 ar
    28   28   27 ar
    29   29   28 ar
    30   30   29 ar
    31   31   30 ar
    32   32   19 ar
    33   33    7 1
    34   34    9 1
    35   35   12 1
    36   36   12 1
    37   37   12 1
    38   38   13 1
    39   39   13 1
    40   40   13 1
    41   41   14 1
    42   42   14 1
    43   43   14 1
    44   44   16 1
    45   45   16 1
    46   46   16 1
    47   47   17 1
    48   48   17 1
    49   49   17 1
    50   50   18 1
    51   51   18 1
    52   52   18 1
    53   53   21 1
    54   54   22 1
    55   55   23 1
    56   56   24 1
    57   57   26 1
    58   58   28 1
    59   59   29 1
    60   60   30 1
    61   61   31 1
    62   24   25 ar
    63   27   32 ar
    64   31   32 ar
@<TRIPOS>SUBSTRUCTURE
     1 RES1 1

@<TRIPOS>CRYSIN
   9.4650   10.0570   13.3196  73.1500  69.9300  79.2800   2 1

