# MOL2 file generated by ConQuest
# Please check atom types

@<TRIPOS>MOLECULE
YUXCUQ
    42    44     1
SMALL
NO_CHARGES
****
Generated from CSD

@<TRIPOS>ATOM
      1 O1         1.5909    2.2611    5.2828 O.3       1 RES1    0.0000
      2 N1         1.8016    0.8215    5.3956 N.3       1 RES1    0.0000
      3 C1         1.7224    2.4814    3.8789 C.3       1 RES1    0.0000
      4 H1         2.0050    3.3917    3.7017 H         1 RES1    0.0000
      5 H2         0.8764    2.3254    3.4293 H         1 RES1    0.0000
      6 O2         4.2549   -1.0493    3.4320 O.3       1 RES1    0.0000
      7 N2         4.4728    2.4086    5.8170 N.pl3     1 RES1    0.0000
      8 C2         2.7689    1.4973    3.3957 C.3       1 RES1    0.0000
      9 H3         3.5711    1.9605    3.1071 H         1 RES1    0.0000
     10 H4         2.4301    0.9670    2.6575 H         1 RES1    0.0000
     11 C3         3.0567    0.6088    4.6278 C.3       1 RES1    0.0000
     12 O3         2.4658   -1.7819    2.2857 O.3       1 RES1    0.0000
     13 O4         4.4581    2.6374    7.0062 O.2       1 RES1    0.0000
     14 C4         3.1362   -0.8791    4.3097 C.3       1 RES1    0.0000
     15 H5         3.2886   -1.3830    5.1365 H         1 RES1    0.0000
     16 O5         4.5991    3.2556    4.9433 O.2       1 RES1    0.0000
     17 C5         1.9422   -1.4595    3.5742 C.3       1 RES1    0.0000
     18 H6         1.6081   -2.2517    4.0225 H         1 RES1    0.0000
     19 H7         1.2256   -0.8092    3.5058 H         1 RES1    0.0000
     20 C6         3.8753   -1.9388    2.4548 C.3       1 RES1    0.0000
     21 C7         4.2374   -3.3908    2.7837 C.3       1 RES1    0.0000
     22 H8         5.1755   -3.4267    3.0293 H         1 RES1    0.0000
     23 H9         3.7227   -3.6696    3.5568 H         1 RES1    0.0000
     24 C8         4.0068   -4.3294    1.7180 C.3       1 RES1    0.0000
     25 H10        3.0553   -4.3928    1.5408 H         1 RES1    0.0000
     26 H11        4.3242   -5.2067    1.9824 H         1 RES1    0.0000
     27 C9         4.7520   -3.8700    0.4255 C.3       1 RES1    0.0000
     28 H12        5.7101   -3.8776    0.5771 H         1 RES1    0.0000
     29 H13        4.5545   -4.4797   -0.3020 H         1 RES1    0.0000
     30 C10        4.3057   -2.4871    0.0644 C.3       1 RES1    0.0000
     31 H14        4.7806   -2.1950   -0.7288 H         1 RES1    0.0000
     32 H15        3.3580   -2.5012   -0.1436 H         1 RES1    0.0000
     33 C11        4.5444   -1.5408    1.1395 C.3       1 RES1    0.0000
     34 H16        4.2153   -0.6693    0.8697 H         1 RES1    0.0000
     35 H17        5.5007   -1.4633    1.2831 H         1 RES1    0.0000
     36 C12        4.3667    0.9689    5.3768 C.3       1 RES1    0.0000
     37 H18        4.4408    0.4008    6.1593 H         1 RES1    0.0000
     38 H19        5.1182    0.7676    4.7983 H         1 RES1    0.0000
     39 C13        1.8230    0.5275    6.8075 C.3       1 RES1    0.0000
     40 H20        0.9806    0.7704    7.1981 H         1 RES1    0.0000
     41 H21        2.5268    1.0275    7.2276 H         1 RES1    0.0000
     42 H22        1.9768   -0.4112    6.9364 H         1 RES1    0.0000
@<TRIPOS>BOND
     1    1    2 1
     2    2   11 1
     3    3    1 1
     4    4    3 1
     5    5    3 1
     6    6   14 1
     7    7   13 2
     8    8    3 1
     9    9    8 1
    10   10    8 1
    11   11    8 1
    12   12   17 1
    13   14   11 1
    14   15   14 1
    15   16    7 2
    16   17   14 1
    17   18   17 1
    18   19   17 1
    19   20    6 1
    20   21   20 1
    21   22   21 1
    22   23   21 1
    23   24   21 1
    24   25   24 1
    25   26   24 1
    26   27   24 1
    27   28   27 1
    28   29   27 1
    29   30   27 1
    30   31   30 1
    31   32   30 1
    32   33   20 1
    33   34   33 1
    34   35   33 1
    35   36    7 1
    36   37   36 1
    37   38   36 1
    38   39    2 1
    39   40   39 1
    40   41   39 1
    41   42   39 1
    42   11   36 1
    43   12   20 1
    44   30   33 1
@<TRIPOS>SUBSTRUCTURE
     1 RES1 1

@<TRIPOS>CRYSIN
   5.9247    9.4529   13.5600  90.0000  98.1870  90.0000   4 1

