# MOL2 file generated by ConQuest
# Please check atom types

@<TRIPOS>MOLECULE
YUXCEA
    76    80     2
SMALL
NO_CHARGES
****
Generated from CSD

@<TRIPOS>ATOM
      1 C1         4.3488    7.9846    7.3862 C.3       1 RES1    0.0000
      2 C2         5.7919    7.6568    6.9516 C.3       1 RES1    0.0000
      3 H1         5.9224    6.6988    6.8663 H         1 RES1    0.0000
      4 H2         6.0083    8.0820    6.1067 H         1 RES1    0.0000
      5 C3         6.6353    8.2281    8.0877 C.3       1 RES1    0.0000
      6 H3         7.2444    7.5547    8.4316 H         1 RES1    0.0000
      7 H4         7.1541    8.9867    7.7774 H         1 RES1    0.0000
      8 O1         5.7141    8.6308    9.0986 O.3       1 RES1    0.0000
      9 N1         4.5587    9.1009    8.3291 N.3       1 RES1    0.0000
     10 C4         3.5227    9.3294    9.3347 C.3       1 RES1    0.0000
     11 H5         3.7889   10.0505    9.9093 H         1 RES1    0.0000
     12 H6         3.4021    8.5325    9.8565 H         1 RES1    0.0000
     13 H7         2.6978    9.5551    8.8982 H         1 RES1    0.0000
     14 C5         3.4972    8.4322    6.1851 C.3       1 RES1    0.0000
     15 H8         3.9068    9.2236    5.7761 H         1 RES1    0.0000
     16 C6         3.3174    7.3497    5.1177 C.3       1 RES1    0.0000
     17 H9         3.4509    7.7130    4.2276 H         1 RES1    0.0000
     18 H10        3.9391    6.6182    5.2567 H         1 RES1    0.0000
     19 O2         1.9729    6.9189    5.2964 O.3       1 RES1    0.0000
     20 C7         1.2434    8.0258    5.7921 C.3       1 RES1    0.0000
     21 O3         2.1782    8.7527    6.6027 O.3       1 RES1    0.0000
     22 C8         0.7100    8.9089    4.6837 C.3       1 RES1    0.0000
     23 H11        1.4414    9.1814    4.1081 H         1 RES1    0.0000
     24 H12        0.3165    9.7078    5.0692 H         1 RES1    0.0000
     25 C9        -0.3397    8.1775    3.8545 C.3       1 RES1    0.0000
     26 H13        0.0772    7.4339    3.3915 H         1 RES1    0.0000
     27 H14       -0.7003    8.7825    3.1874 H         1 RES1    0.0000
     28 C10       -1.4732    7.6568    4.7303 C.3       1 RES1    0.0000
     29 H15       -1.9531    8.4042    5.1206 H         1 RES1    0.0000
     30 H16       -2.0970    7.1483    4.1887 H         1 RES1    0.0000
     31 C11       -0.9261    6.7756    5.8331 C.3       1 RES1    0.0000
     32 H17       -0.5301    5.9814    5.4400 H         1 RES1    0.0000
     33 H18       -1.6533    6.4937    6.4080 H         1 RES1    0.0000
     34 C12        0.1243    7.4986    6.6693 C.3       1 RES1    0.0000
     35 H19       -0.2909    8.2365    7.1427 H         1 RES1    0.0000
     36 H20        0.4905    6.8880    7.3274 H         1 RES1    0.0000
     37 C13        3.7257    6.8149    8.0599 C.1       1 RES1    0.0000
     38 N2         3.2449    5.9580    8.6263 N.1       1 RES1    0.0000
     39 C14        4.1744   10.3380    1.3465 C.3       2 RES2    0.0000
     40 C15        5.7186   10.3830    1.5374 C.3       2 RES2    0.0000
     41 H21        6.1697   10.5300    0.6916 H         2 RES2    0.0000
     42 H22        5.9724   11.0854    2.1568 H         2 RES2    0.0000
     43 C16        6.0488    9.0241    2.0985 C.3       2 RES2    0.0000
     44 H23        6.8789    8.6898    1.7235 H         2 RES2    0.0000
     45 H24        6.1330    9.0606    3.0637 H         2 RES2    0.0000
     46 O4         4.9540    8.1991    1.7163 O.3       2 RES2    0.0000
     47 N3         3.8164    9.0625    2.0062 N.3       2 RES2    0.0000
     48 C17        2.6660    8.3470    1.4606 C.3       2 RES2    0.0000
     49 H25        2.5332    7.5332    1.9527 H         2 RES2    0.0000
     50 H26        2.8269    8.1401    0.5375 H         2 RES2    0.0000
     51 H27        1.8830    8.8968    1.5333 H         2 RES2    0.0000
     52 C18        3.4891   11.4983    2.0695 C.3       2 RES2    0.0000
     53 H28        3.7876   11.5190    3.0026 H         2 RES2    0.0000
     54 C19        3.7260   12.8684    1.4352 C.3       2 RES2    0.0000
     55 H29        3.8825   13.5427    2.1152 H         2 RES2    0.0000
     56 H30        4.4857   12.8450    0.8319 H         2 RES2    0.0000
     57 O5         2.5206   13.1316    0.7251 O.3       2 RES2    0.0000
     58 C20        1.4802   12.5032    1.4442 C.3       2 RES2    0.0000
     59 O6         2.0775   11.3410    2.0331 O.3       2 RES2    0.0000
     60 C21        0.9126   13.3826    2.5417 C.3       2 RES2    0.0000
     61 H31        0.5723   14.2048    2.1555 H         2 RES2    0.0000
     62 H32        1.6156   13.6130    3.1679 H         2 RES2    0.0000
     63 C22       -0.2146   12.6605    3.2818 C.3       2 RES2    0.0000
     64 H33        0.1564   11.9076    3.7679 H         2 RES2    0.0000
     65 H34       -0.6088   13.2674    3.9276 H         2 RES2    0.0000
     66 C23       -1.2948   12.1623    2.3485 C.3       2 RES2    0.0000
     67 H35       -1.9325   11.6304    2.8499 H         2 RES2    0.0000
     68 H36       -1.7684   12.9200    1.9694 H         2 RES2    0.0000
     69 C24       -0.7118   11.3260    1.2319 C.3       2 RES2    0.0000
     70 H37       -1.4168   11.0985    0.6041 H         2 RES2    0.0000
     71 H38       -0.3656   10.4991    1.6027 H         2 RES2    0.0000
     72 C25        0.4074   12.0481    0.4862 C.3       2 RES2    0.0000
     73 H39        0.7949   11.4515   -0.1736 H         2 RES2    0.0000
     74 H40        0.0427   12.8160    0.0194 H         2 RES2    0.0000
     75 C26        3.8207   10.3258   -0.1001 C.1       2 RES2    0.0000
     76 N4         3.5316   10.2622   -1.1923 N.1       2 RES2    0.0000
@<TRIPOS>BOND
     1    1    2 1
     2    2    3 1
     3    4    2 1
     4    5    2 1
     5    6    5 1
     6    7    5 1
     7    8    5 1
     8    9    1 1
     9   10    9 1
    10   11   10 1
    11   12   10 1
    12   13   10 1
    13   14    1 1
    14   15   14 1
    15   16   14 1
    16   17   16 1
    17   18   16 1
    18   19   16 1
    19   20   19 1
    20   21   14 1
    21   22   20 1
    22   23   22 1
    23   24   22 1
    24   25   22 1
    25   26   25 1
    26   27   25 1
    27   28   25 1
    28   29   28 1
    29   30   28 1
    30   31   28 1
    31   32   31 1
    32   33   31 1
    33   34   20 1
    34   35   34 1
    35   36   34 1
    36   37    1 1
    37   38   37 3
    38   39   40 1
    39   40   41 1
    40   42   40 1
    41   43   40 1
    42   44   43 1
    43   45   43 1
    44   46   43 1
    45   47   39 1
    46   48   47 1
    47   49   48 1
    48   50   48 1
    49   51   48 1
    50   52   39 1
    51   53   52 1
    52   54   52 1
    53   55   54 1
    54   56   54 1
    55   57   54 1
    56   58   57 1
    57   59   52 1
    58   60   58 1
    59   61   60 1
    60   62   60 1
    61   63   60 1
    62   64   63 1
    63   65   63 1
    64   66   63 1
    65   67   66 1
    66   68   66 1
    67   69   66 1
    68   70   69 1
    69   71   69 1
    70   72   58 1
    71   73   72 1
    72   74   72 1
    73   75   39 1
    74   76   75 3
    75    8    9 1
    76   20   21 1
    77   31   34 1
    78   46   47 1
    79   58   59 1
    80   69   72 1
@<TRIPOS>SUBSTRUCTURE
     1 RES1 1
     2 RES2 39

@<TRIPOS>CRYSIN
  10.3810    9.3650   13.9030  90.0000  92.6400  90.0000   4 1

