# MOL2 file generated by ConQuest
# Please check atom types

@<TRIPOS>MOLECULE
YUXDUS
    65    66     1
SMALL
NO_CHARGES
****
Generated from CSD

@<TRIPOS>ATOM
      1 C1         0.7902    0.3788    8.4369 C.3       1 RES1    0.0000
      2 H1        -0.0961    0.3758    8.8995 H         1 RES1    0.0000
      3 C2         1.7836   -0.4044    9.2998 C.3       1 RES1    0.0000
      4 H2         2.6842   -0.3543    8.8686 H         1 RES1    0.0000
      5 C3         1.9012    0.1316   10.7200 C.3       1 RES1    0.0000
      6 H3         2.0543    1.1091   10.6746 H         1 RES1    0.0000
      7 H4         1.0375   -0.0134   11.1820 H         1 RES1    0.0000
      8 C4         3.0073   -0.4909   11.5604 C.3       1 RES1    0.0000
      9 H5         2.9514   -1.4767   11.4826 H         1 RES1    0.0000
     10 H6         2.8588   -0.2549   12.5104 H         1 RES1    0.0000
     11 C5         4.4122   -0.0421   11.1539 C.3       1 RES1    0.0000
     12 H7         4.5121   -0.1545   10.1756 H         1 RES1    0.0000
     13 H8         5.0744   -0.6329   11.5931 H         1 RES1    0.0000
     14 C6         4.7320    1.4190   11.5202 C.3       1 RES1    0.0000
     15 H9         3.8844    1.9294   11.5527 H         1 RES1    0.0000
     16 H10        5.1273    1.4381   12.4272 H         1 RES1    0.0000
     17 C7         5.6847    2.1214   10.5603 C.3       1 RES1    0.0000
     18 H11        6.5200    1.5922   10.5023 H         1 RES1    0.0000
     19 H12        5.9176    3.0059   10.9384 H         1 RES1    0.0000
     20 C8         5.1406    2.3251    9.1503 C.3       1 RES1    0.0000
     21 H13        4.8762    1.4452    8.7807 H         1 RES1    0.0000
     22 H14        5.8642    2.6855    8.5787 H         1 RES1    0.0000
     23 C9         3.9419    3.2681    9.0789 C.3       1 RES1    0.0000
     24 H15        4.2422    4.1846    9.3023 H         1 RES1    0.0000
     25 H16        3.2786    2.9940    9.7609 H         1 RES1    0.0000
     26 C10        3.2603    3.2929    7.7100 C.3       1 RES1    0.0000
     27 H17        2.6392    4.0629    7.6792 H         1 RES1    0.0000
     28 H18        3.9499    3.4367    7.0150 H         1 RES1    0.0000
     29 C11        2.4833    2.0238    7.3730 C.3       1 RES1    0.0000
     30 H19        3.0753    1.2424    7.5093 H         1 RES1    0.0000
     31 H20        2.2333    2.0484    6.4150 H         1 RES1    0.0000
     32 C12        1.2089    1.8306    8.2121 C.3       1 RES1    0.0000
     33 H21        1.3467    2.2576    9.0943 H         1 RES1    0.0000
     34 H22        0.4640    2.3059    7.7648 H         1 RES1    0.0000
     35 C13        2.1355   -3.4238    7.8904 C.3       1 RES1    0.0000
     36 C14        1.5593   -4.3373    6.7977 C.3       1 RES1    0.0000
     37 H23        1.3012   -3.7810    6.0205 H         1 RES1    0.0000
     38 H24        2.2661   -4.9624    6.4993 H         1 RES1    0.0000
     39 C15        0.3531   -5.1407    7.2459 C.3       1 RES1    0.0000
     40 H25        0.0050   -5.6771    6.4898 H         1 RES1    0.0000
     41 H26        0.6114   -5.7594    7.9739 H         1 RES1    0.0000
     42 C16       -0.7133   -4.1834    7.7352 C.3       1 RES1    0.0000
     43 H27       -1.4968   -4.7038    8.0428 H         1 RES1    0.0000
     44 H28       -1.0062   -3.6138    6.9794 H         1 RES1    0.0000
     45 C17       -0.2314   -3.2842    8.8792 C.3       1 RES1    0.0000
     46 C18       -0.0504   -4.0797   10.1818 C.3       1 RES1    0.0000
     47 H29        0.4425   -4.9060    9.9938 H         1 RES1    0.0000
     48 H30       -0.9297   -4.3018   10.5546 H         1 RES1    0.0000
     49 H31        0.4511   -3.5391   10.8279 H         1 RES1    0.0000
     50 C19       -1.2962   -2.2171    9.1318 C.3       1 RES1    0.0000
     51 H32       -1.0209   -1.6523    9.8833 H         1 RES1    0.0000
     52 H33       -2.1491   -2.6506    9.3439 H         1 RES1    0.0000
     53 H34       -1.4017   -1.6643    8.3291 H         1 RES1    0.0000
     54 C20        2.8628   -4.2280    8.9791 C.3       1 RES1    0.0000
     55 H35        2.9770   -3.6696    9.7764 H         1 RES1    0.0000
     56 H36        3.7416   -4.5074    8.6464 H         1 RES1    0.0000
     57 H37        2.3336   -5.0202    9.2084 H         1 RES1    0.0000
     58 C21        3.1593   -2.4934    7.2323 C.3       1 RES1    0.0000
     59 H38        2.6982   -1.8787    6.6241 H         1 RES1    0.0000
     60 H39        3.8085   -3.0274    6.7287 H         1 RES1    0.0000
     61 H40        3.6260   -1.9792    7.9240 H         1 RES1    0.0000
     62 N1         1.0004   -2.5766    8.3852 N.3       1 RES1    0.0000
     63 O1         0.6244   -0.2055    7.1523 O.3       1 RES1    0.0000
     64 H41        0.6079   -1.1174    7.3501 H         1 RES1    0.0000
     65 O2         1.4636   -1.8051    9.5316 O.3       1 RES1    0.0000
@<TRIPOS>BOND
     1    1    2 1
     2    3    1 1
     3    4    3 1
     4    5    3 1
     5    6    5 1
     6    7    5 1
     7    8    5 1
     8    9    8 1
     9   10    8 1
    10   11    8 1
    11   12   11 1
    12   13   11 1
    13   14   11 1
    14   15   14 1
    15   16   14 1
    16   17   14 1
    17   18   17 1
    18   19   17 1
    19   20   17 1
    20   21   20 1
    21   22   20 1
    22   23   20 1
    23   24   23 1
    24   25   23 1
    25   26   23 1
    26   27   26 1
    27   28   26 1
    28   29   26 1
    29   30   29 1
    30   31   29 1
    31   32    1 1
    32   33   32 1
    33   34   32 1
    34   35   36 1
    35   36   37 1
    36   38   36 1
    37   39   36 1
    38   40   39 1
    39   41   39 1
    40   42   39 1
    41   43   42 1
    42   44   42 1
    43   45   42 1
    44   46   45 1
    45   47   46 1
    46   48   46 1
    47   49   46 1
    48   50   45 1
    49   51   50 1
    50   52   50 1
    51   53   50 1
    52   54   35 1
    53   55   54 1
    54   56   54 1
    55   57   54 1
    56   58   35 1
    57   59   58 1
    58   60   58 1
    59   61   58 1
    60   62   35 1
    61   63    1 1
    62   64   63 1
    63   65    3 1
    64   29   32 1
    65   45   62 1
    66   62   65 1
@<TRIPOS>SUBSTRUCTURE
     1 RES1 1

@<TRIPOS>CRYSIN
   7.9274   10.8653   12.2044 102.8260  91.1880  98.3960   2 1

