# MOL2 file generated by ConQuest
# Please check atom types

@<TRIPOS>MOLECULE
YUXDEC
    48    49     1
SMALL
NO_CHARGES
****
Generated from CSD

@<TRIPOS>ATOM
      1 C1         5.6239    8.6110   12.5511 C.2       1 RES1    0.0000
      2 C2         5.2412    9.6258   13.6312 C.3       1 RES1    0.0000
      3 H1         4.6946   10.3515   13.2149 H         1 RES1    0.0000
      4 C3         6.5266   10.2404   14.2114 C.3       1 RES1    0.0000
      5 H2         6.2880   10.9548   14.8533 H         1 RES1    0.0000
      6 H3         7.0310    9.5440   14.7010 H         1 RES1    0.0000
      7 C4         7.4074   10.8236   13.1096 C.3       1 RES1    0.0000
      8 H4         6.9374   11.5830   12.6820 H         1 RES1    0.0000
      9 H5         8.2461   11.1679   13.5083 H         1 RES1    0.0000
     10 C5         7.7400    9.7846   12.0604 C.3       1 RES1    0.0000
     11 H6         8.2687    9.0582   12.4758 H         1 RES1    0.0000
     12 H7         8.2934   10.1991   11.3529 H         1 RES1    0.0000
     13 C6         6.4691    9.1931   11.4312 C.3       1 RES1    0.0000
     14 H8         5.9550    9.9393   11.0103 H         1 RES1    0.0000
     15 C7         6.7803    8.1638   10.3521 C.3       1 RES1    0.0000
     16 H9         7.3474    7.4582   10.7280 H         1 RES1    0.0000
     17 H10        7.2498    8.6002    9.6098 H         1 RES1    0.0000
     18 H11        5.9441    7.7718   10.0238 H         1 RES1    0.0000
     19 C8         2.1082    8.9800   14.2555 C.3       1 RES1    0.0000
     20 C9         0.8080    9.6881   14.6539 C.3       1 RES1    0.0000
     21 H12        0.7972   10.5894   14.2458 H         1 RES1    0.0000
     22 H13        0.0424    9.1806   14.2855 H         1 RES1    0.0000
     23 C10        0.6248    9.8288   16.1581 C.3       1 RES1    0.0000
     24 H14       -0.2050   10.3325   16.3521 H         1 RES1    0.0000
     25 H15        0.5518    8.9337   16.5757 H         1 RES1    0.0000
     26 C11        1.8232   10.5671   16.7183 C.3       1 RES1    0.0000
     27 H16        1.7225   10.6442   17.7002 H         1 RES1    0.0000
     28 H17        1.8398   11.4835   16.3441 H         1 RES1    0.0000
     29 C12        3.1626    9.8773   16.4065 C.3       1 RES1    0.0000
     30 C13        2.0411    7.4748   14.5522 C.3       1 RES1    0.0000
     31 H18        2.9395    7.0898   14.4901 H         1 RES1    0.0000
     32 H19        1.4535    7.0390   13.9001 H         1 RES1    0.0000
     33 H20        1.6871    7.3357   15.4560 H         1 RES1    0.0000
     34 C14        2.2708    9.1499   12.7389 C.3       1 RES1    0.0000
     35 H21        2.4370   10.0936   12.5313 H         1 RES1    0.0000
     36 H22        1.4525    8.8560   12.2871 H         1 RES1    0.0000
     37 H23        3.0272    8.6091   12.4282 H         1 RES1    0.0000
     38 C15        3.3058    8.5785   17.2161 C.3       1 RES1    0.0000
     39 H24        2.4557    8.0904   17.2038 H         1 RES1    0.0000
     40 H25        3.5456    8.7953   18.1411 H         1 RES1    0.0000
     41 H26        4.0077    8.0217   16.8184 H         1 RES1    0.0000
     42 C16        4.2948   10.8223   16.8090 C.3       1 RES1    0.0000
     43 H27        5.1548   10.3654   16.7026 H         1 RES1    0.0000
     44 H28        4.1802   11.0892   17.7446 H         1 RES1    0.0000
     45 H29        4.2748   11.6179   16.2379 H         1 RES1    0.0000
     46 N1         3.2298    9.7187   14.9175 N.3       1 RES1    0.0000
     47 O1         5.3178    7.4400   12.6062 O.2       1 RES1    0.0000
     48 O2         4.4608    8.9805   14.6433 O.3       1 RES1    0.0000
@<TRIPOS>BOND
     1    1    2 1
     2    2    3 1
     3    4    2 1
     4    5    4 1
     5    6    4 1
     6    7    4 1
     7    8    7 1
     8    9    7 1
     9   10    7 1
    10   11   10 1
    11   12   10 1
    12   13    1 1
    13   14   13 1
    14   15   13 1
    15   16   15 1
    16   17   15 1
    17   18   15 1
    18   19   20 1
    19   20   21 1
    20   22   20 1
    21   23   20 1
    22   24   23 1
    23   25   23 1
    24   26   23 1
    25   27   26 1
    26   28   26 1
    27   29   26 1
    28   30   19 1
    29   31   30 1
    30   32   30 1
    31   33   30 1
    32   34   19 1
    33   35   34 1
    34   36   34 1
    35   37   34 1
    36   38   29 1
    37   39   38 1
    38   40   38 1
    39   41   38 1
    40   42   29 1
    41   43   42 1
    42   44   42 1
    43   45   42 1
    44   46   19 1
    45   47    1 2
    46   48    2 1
    47   10   13 1
    48   29   46 1
    49   46   48 1
@<TRIPOS>SUBSTRUCTURE
     1 RES1 1

@<TRIPOS>CRYSIN
   9.8543    9.9562   15.8604  90.0000  90.0000  90.0000  19 1

