# MOL2 file generated by ConQuest
# Please check atom types

@<TRIPOS>MOLECULE
YUXJUY
    76    62     3
SMALL
NO_CHARGES
****
Generated from CSD

@<TRIPOS>ATOM
      1 C1         2.1790    2.8043    7.7166 C.ar      1 RES1    0.0000
      2 C2         3.0001    2.2630    8.7105 C.ar      1 RES1    0.0000
      3 H1         3.8930    2.0898    8.5143 H         1 RES1    0.0000
      4 C3         2.5270    1.9827    9.9548 C.ar      1 RES1    0.0000
      5 H2         3.0930    1.6193   10.5957 H         1 RES1    0.0000
      6 C4         1.1967    2.2405   10.2640 C.ar      1 RES1    0.0000
      7 H3         0.8661    2.0374   11.1104 H         1 RES1    0.0000
      8 C5         0.3725    2.7961    9.3165 C.ar      1 RES1    0.0000
      9 H4        -0.5146    2.9799    9.5297 H         1 RES1    0.0000
     10 C6         0.8510    3.0854    8.0451 C.ar      1 RES1    0.0000
     11 H5         0.2869    3.4669    7.4115 H         1 RES1    0.0000
     12 C7         2.7278    3.1055    6.3823 C.2       1 RES1    0.0000
     13 C8         2.2603    2.9134    5.0360 C.2       1 RES1    0.0000
     14 C9         0.9841    2.2756    4.8568 C.2       1 RES1    0.0000
     15 H6         0.5150    1.9902    5.6103 H         1 RES1    0.0000
     16 C10        0.4340    2.0748    3.6253 C.2       1 RES1    0.0000
     17 C11        1.1410    2.4842    2.4674 C.2       1 RES1    0.0000
     18 C12        2.4528    3.1102    2.6145 C.2       1 RES1    0.0000
     19 H7         2.9288    3.3815    1.8655 H         1 RES1    0.0000
     20 C13        2.9557    3.2874    3.8091 C.2       1 RES1    0.0000
     21 H8         3.7981    3.6705    3.8781 H         1 RES1    0.0000
     22 N1         0.5487    2.2362    1.3555 N.2       1 RES1    0.0000
     23 O1        -0.7975    1.5559    1.3789 O.3       1 RES1    0.0000
     24 H9        -0.7484    0.8398    0.9833 H         1 RES1    0.0000
     25 C14       -0.8389    1.5236    3.4498 C.3       1 RES1    0.0000
     26 H10       -1.4483    2.2083    3.1659 H         1 RES1    0.0000
     27 H11       -1.1426    1.1468    4.2778 H         1 RES1    0.0000
     28 H12       -0.7990    0.8339    2.7845 H         1 RES1    0.0000
     29 C15        4.0378    3.7138    6.3910 C.1       1 RES1    0.0000
     30 N2         5.0673    4.2370    6.4351 N.1       1 RES1    0.0000
     31 C16        2.0325    2.8189    5.2657 Du        3 SUP3    0.0000
     32 C17        0.7623    2.1378    5.1279 Du        3 SUP3    0.0000
     33 H13        0.3153    1.8437    5.8906 Du        3 SUP3    0.0000
     34 C18        0.2114    1.9173    3.9332 Du        3 SUP3    0.0000
     35 H14       -0.6114    1.4917    3.8872 Du        3 SUP3    0.0000
     36 C19        0.8440    2.3071    2.7156 Du        3 SUP3    0.0000
     37 C20        2.1364    2.9803    2.7937 Du        3 SUP3    0.0000
     38 C21        2.6787    3.2165    4.0619 Du        3 SUP3    0.0000
     39 H15        3.4956    3.6500    4.1216 Du        3 SUP3    0.0000
     40 N3         0.4564    2.1929    1.3739 Du        3 SUP3    0.0000
     41 O2         1.4061    2.6890    0.1590 Du        3 SUP3    0.0000
     42 H16        2.1767    2.7673    0.4273 Du        3 SUP3    0.0000
     43 C22        2.9656    3.4252    1.4625 Du        3 SUP3    0.0000
     44 H17        2.4527    4.0665    0.9649 Du        3 SUP3    0.0000
     45 H18        3.1309    2.6535    0.9144 Du        3 SUP3    0.0000
     46 H19        3.8017    3.8173    1.7231 Du        3 SUP3    0.0000
     47 C1B       -2.1790    1.1327   -7.7166 C.ar      2 RES2    0.0000
     48 C2B       -3.0001    1.6740   -8.7105 C.ar      2 RES2    0.0000
     49 H1B       -3.8930    1.8472   -8.5143 H         2 RES2    0.0000
     50 C3B       -2.5270    1.9543   -9.9548 C.ar      2 RES2    0.0000
     51 H2B       -3.0930    2.3177  -10.5957 H         2 RES2    0.0000
     52 C4B       -1.1967    1.6965  -10.2640 C.ar      2 RES2    0.0000
     53 H3B       -0.8661    1.8996  -11.1104 H         2 RES2    0.0000
     54 C5B       -0.3725    1.1409   -9.3165 C.ar      2 RES2    0.0000
     55 H4B        0.5146    0.9571   -9.5297 H         2 RES2    0.0000
     56 C6B       -0.8510    0.8516   -8.0451 C.ar      2 RES2    0.0000
     57 H5B       -0.2869    0.4701   -7.4115 H         2 RES2    0.0000
     58 C7B       -2.7278    0.8315   -6.3823 C.2       2 RES2    0.0000
     59 C8B       -2.2603    1.0236   -5.0360 C.2       2 RES2    0.0000
     60 C9B       -0.9841    1.6614   -4.8568 C.2       2 RES2    0.0000
     61 H6B       -0.5150    1.9468   -5.6103 H         2 RES2    0.0000
     62 C10B      -0.4340    1.8622   -3.6253 C.2       2 RES2    0.0000
     63 C11B      -1.1410    1.4528   -2.4674 C.2       2 RES2    0.0000
     64 C12B      -2.4528    0.8268   -2.6145 C.2       2 RES2    0.0000
     65 H7B       -2.9288    0.5555   -1.8655 H         2 RES2    0.0000
     66 C13B      -2.9557    0.6496   -3.8091 C.2       2 RES2    0.0000
     67 H8B       -3.7981    0.2665   -3.8781 H         2 RES2    0.0000
     68 N1B       -0.5487    1.7008   -1.3555 N.2       2 RES2    0.0000
     69 O1B        0.7975    2.3811   -1.3789 O.3       2 RES2    0.0000
     70 H9B        0.7484    3.0972   -0.9833 H         2 RES2    0.0000
     71 C14B       0.8389    2.4134   -3.4498 C.3       2 RES2    0.0000
     72 H10B       1.4483    1.7287   -3.1659 H         2 RES2    0.0000
     73 H11B       1.1426    2.7902   -4.2778 H         2 RES2    0.0000
     74 H12B       0.7990    3.1031   -2.7845 H         2 RES2    0.0000
     75 C15B      -4.0378    0.2232   -6.3910 C.1       2 RES2    0.0000
     76 N2B       -5.0673   -0.3000   -6.4351 N.1       2 RES2    0.0000
@<TRIPOS>BOND
     1    1    2 ar
     2    2    3 1
     3    4    2 ar
     4    5    4 1
     5    6    4 ar
     6    7    6 1
     7    8    6 ar
     8    9    8 1
     9   10    1 ar
    10   11   10 1
    11   12    1 1
    12   13   12 2
    13   14   13 1
    14   15   14 1
    15   16   14 2
    16   17   16 1
    17   18   17 1
    18   19   18 1
    19   20   13 1
    20   21   20 1
    21   22   17 2
    22   23   22 1
    23   24   23 1
    24   25   16 1
    25   26   25 1
    26   27   25 1
    27   28   25 1
    28   29   12 1
    29   30   29 3
    30   47   48 ar
    31   48   49 1
    32   50   48 ar
    33   51   50 1
    34   52   50 ar
    35   53   52 1
    36   54   52 ar
    37   55   54 1
    38   56   47 ar
    39   57   56 1
    40   58   47 1
    41   59   58 2
    42   60   59 1
    43   61   60 1
    44   62   60 2
    45   63   62 1
    46   64   63 1
    47   65   64 1
    48   66   59 1
    49   67   66 1
    50   68   63 2
    51   69   68 1
    52   70   69 1
    53   71   62 1
    54   72   71 1
    55   73   71 1
    56   74   71 1
    57   75   58 1
    58   76   75 3
    59    8   10 ar
    60   18   20 2
    61   54   56 ar
    62   64   66 2
@<TRIPOS>SUBSTRUCTURE
     1 RES1 1
     2 RES2 47
     3 SUP3 31

@<TRIPOS>CRYSIN
   6.9580    3.9370   45.9600  90.0000  91.2780  90.0000  14 1

