# MOL2 file generated by ConQuest
# Please check atom types

@<TRIPOS>MOLECULE
YUXLUY
    72    80     2
SMALL
NO_CHARGES
****
Generated from CSD

@<TRIPOS>ATOM
      1 O1        -1.6852    3.5298   12.5664 O.3       1 RES1    0.0000
      2 O2        -0.3653   -0.8039    9.9853 O.3       1 RES1    0.0000
      3 N1        -2.7675    4.2384   13.1253 N.2       1 RES1    0.0000
      4 N2        -1.2232   -1.6460    9.2404 N.2       1 RES1    0.0000
      5 C1        -0.4999    1.4330   12.6281 C.3       1 RES1    0.0000
      6 C2        -0.2690    1.3488   11.0849 C.3       1 RES1    0.0000
      7 C3         1.2377    1.2200   11.3863 C.3       1 RES1    0.0000
      8 C4         0.9837    1.8885   12.7382 C.3       1 RES1    0.0000
      9 C5        -1.5803    2.3016   13.1282 C.2       1 RES1    0.0000
     10 C6        -2.5599    2.1751   14.0643 C.2       1 RES1    0.0000
     11 C7        -3.2672    3.4080   14.0148 C.2       1 RES1    0.0000
     12 C8        -4.3862    3.6099   14.8679 C.2       1 RES1    0.0000
     13 C9        -4.7231    2.6253   15.7108 C.2       1 RES1    0.0000
     14 C10       -4.0014    1.4000   15.7826 C.2       1 RES1    0.0000
     15 C11       -2.9480    1.1588   14.9841 C.2       1 RES1    0.0000
     16 C12       -1.0016    0.3413   10.3157 C.2       1 RES1    0.0000
     17 C13       -2.2760    0.2966    9.8244 C.2       1 RES1    0.0000
     18 C14       -2.3569   -0.9681    9.1661 C.2       1 RES1    0.0000
     19 C15       -3.5856   -1.3488    8.5413 C.2       1 RES1    0.0000
     20 C16       -4.6031   -0.4785    8.5918 C.2       1 RES1    0.0000
     21 C17       -4.5152    0.7733    9.2467 C.2       1 RES1    0.0000
     22 C18       -3.3758    1.1652    9.8520 C.2       1 RES1    0.0000
     23 H1        -0.6493    0.5061   13.0330 H         1 RES1    0.0000
     24 H2        -0.4013    2.1716   10.7061 H         1 RES1    0.0000
     25 H3         1.4572    0.2884   11.4347 H         1 RES1    0.0000
     26 H4         1.8958    1.6537   10.7187 H         1 RES1    0.0000
     27 H5         1.0382    2.8837   12.6077 H         1 RES1    0.0000
     28 H6         1.5356    1.5478   13.4711 H         1 RES1    0.0000
     29 H7        -4.8624    4.3726   14.8062 H         1 RES1    0.0000
     30 H8        -5.4408    2.6718   16.2634 H         1 RES1    0.0000
     31 H9        -4.2929    0.7709   16.4508 H         1 RES1    0.0000
     32 H10       -2.4971    0.3708   14.9599 H         1 RES1    0.0000
     33 H11       -3.6169   -2.2245    8.0654 H         1 RES1    0.0000
     34 H12       -5.4167   -0.7239    8.1075 H         1 RES1    0.0000
     35 H13       -5.3698    1.3771    9.2236 H         1 RES1    0.0000
     36 H14       -3.3608    1.9421   10.3481 H         1 RES1    0.0000
     37 O3         0.1210    3.4904    4.0876 O.3       2 RES2    0.0000
     38 O4        -2.8229   -0.7880    4.0525 O.3       2 RES2    0.0000
     39 N3         1.1040    4.1978    3.3685 N.2       2 RES2    0.0000
     40 N4        -3.0738   -1.6143    2.9191 N.2       2 RES2    0.0000
     41 C19       -0.3528    1.3918    5.1713 C.3       2 RES2    0.0000
     42 C20       -1.8398    1.3253    4.7049 C.3       2 RES2    0.0000
     43 C21       -2.2282    1.1558    6.1745 C.3       2 RES2    0.0000
     44 C22       -0.8994    1.8026    6.5702 C.3       2 RES2    0.0000
     45 C23        0.5788    2.2734    4.4473 C.2       2 RES2    0.0000
     46 C24        1.8576    2.1357    3.9918 C.2       2 RES2    0.0000
     47 C25        2.1276    3.3627    3.3274 C.2       2 RES2    0.0000
     48 C26        3.3991    3.5851    2.7178 C.2       2 RES2    0.0000
     49 C27        4.2982    2.5865    2.8138 C.2       2 RES2    0.0000
     50 C28        4.0453    1.3671    3.4976 C.2       2 RES2    0.0000
     51 C29        2.8519    1.1258    4.0803 C.2       2 RES2    0.0000
     52 C30       -2.1998    0.3519    3.6793 C.2       2 RES2    0.0000
     53 C31       -2.0194    0.3278    2.3181 C.2       2 RES2    0.0000
     54 C32       -2.5736   -0.9110    1.9113 C.2       2 RES2    0.0000
     55 C33       -2.5500   -1.2776    0.5349 C.2       2 RES2    0.0000
     56 C34       -1.9954   -0.4108   -0.3243 C.2       2 RES2    0.0000
     57 C35       -1.4433    0.8439    0.0922 C.2       2 RES2    0.0000
     58 C36       -1.4487    1.2170    1.3854 C.2       2 RES2    0.0000
     59 H15       -0.0062    0.5120    5.2014 H         2 RES2    0.0000
     60 H16       -2.0075    2.1068    4.4349 H         2 RES2    0.0000
     61 H17       -2.2736    0.1530    6.3681 H         2 RES2    0.0000
     62 H18       -2.9802    1.5654    6.5091 H         2 RES2    0.0000
     63 H19       -0.9427    2.8542    6.5639 H         2 RES2    0.0000
     64 H20       -0.4384    1.4301    7.2715 H         2 RES2    0.0000
     65 H21        3.5787    4.4844    2.2617 H         2 RES2    0.0000
     66 H22        5.1696    2.5894    2.3817 H         2 RES2    0.0000
     67 H23        4.8414    0.6591    3.5083 H         2 RES2    0.0000
     68 H24        2.6347    0.2884    4.5760 H         2 RES2    0.0000
     69 H25       -2.8508   -2.0951    0.2738 H         2 RES2    0.0000
     70 H26       -2.0323   -0.6003   -1.2382 H         2 RES2    0.0000
     71 H27       -1.0297    1.4359   -0.5917 H         2 RES2    0.0000
     72 H28       -1.0548    2.0774    1.6868 H         2 RES2    0.0000
@<TRIPOS>BOND
     1    1    3 1
     2    2    4 1
     3    3   11 2
     4    4   18 2
     5    5    6 1
     6    6    7 1
     7    7    8 1
     8    8    5 1
     9    9    1 1
    10   10    9 2
    11   11   10 1
    12   12   11 1
    13   13   12 2
    14   14   13 1
    15   15   10 1
    16   16    2 1
    17   17   16 2
    18   18   17 1
    19   19   18 1
    20   20   19 2
    21   21   20 1
    22   22   17 1
    23   23    5 1
    24   24    6 1
    25   25    7 1
    26   26    7 1
    27   27    8 1
    28   28    8 1
    29   29   12 1
    30   30   13 1
    31   31   14 1
    32   32   15 1
    33   33   19 1
    34   34   20 1
    35   35   21 1
    36   36   22 1
    37   37   39 1
    38   38   40 1
    39   39   47 2
    40   40   54 2
    41   41   42 1
    42   42   43 1
    43   43   44 1
    44   44   41 1
    45   45   37 1
    46   46   45 2
    47   47   46 1
    48   48   47 1
    49   49   48 2
    50   50   49 1
    51   51   46 1
    52   52   38 1
    53   53   52 2
    54   54   53 1
    55   55   54 1
    56   56   55 2
    57   57   56 1
    58   58   53 1
    59   59   41 1
    60   60   42 1
    61   61   43 1
    62   62   43 1
    63   63   44 1
    64   64   44 1
    65   65   48 1
    66   66   49 1
    67   67   50 1
    68   68   51 1
    69   69   55 1
    70   70   56 1
    71   71   57 1
    72   72   58 1
    73    5    9 1
    74    6   16 1
    75   14   15 2
    76   21   22 2
    77   41   45 1
    78   42   52 1
    79   50   51 2
    80   57   58 2
@<TRIPOS>SUBSTRUCTURE
     1 RES1 1
     2 RES2 37

@<TRIPOS>CRYSIN
  23.4080    5.8850   23.4960  90.0000 116.3300  90.0000 231 1

