# MOL2 file generated by ConQuest
# Please check atom types

@<TRIPOS>MOLECULE
YUXMEK
    42    43     1
SMALL
NO_CHARGES
****
Generated from CSD

@<TRIPOS>ATOM
      1 O1         1.8950   15.1456    2.5679 O.2       1 RES1    0.0000
      2 O2         1.5687   16.1805    6.6061 O.3       1 RES1    0.0000
      3 O3         0.9795   18.3667    8.1209 O.2       1 RES1    0.0000
      4 O4         2.0700   20.1200    7.5563 O.2       1 RES1    0.0000
      5 O5         1.7276   12.7284    6.7359 O.3       1 RES1    0.0000
      6 O6         1.2231    8.5585    6.1410 O.3       1 RES1    0.0000
      7 O7         2.0249   10.0177    7.6005 O.2       1 RES1    0.0000
      8 N1         1.6258   14.3347    4.6599 N.am      1 RES1    0.0000
      9 H1         1.5935   14.5527    5.4840 H         1 RES1    0.0000
     10 N2         1.5857   19.0227    7.3046 N.pl3     1 RES1    0.0000
     11 C1         1.7715   15.3333    3.7674 C.2       1 RES1    0.0000
     12 C2         1.7838   16.7533    4.2956 C.ar      1 RES1    0.0000
     13 C3         1.7170   17.1368    5.6468 C.ar      1 RES1    0.0000
     14 C4         1.7502   18.5134    5.9324 C.ar      1 RES1    0.0000
     15 C5         1.8599   19.4706    4.9389 C.ar      1 RES1    0.0000
     16 H2         1.9022   20.3828    5.1651 H         1 RES1    0.0000
     17 C6         1.9063   19.0857    3.6249 C.ar      1 RES1    0.0000
     18 H3         1.9647   19.7300    2.9437 H         1 RES1    0.0000
     19 C7         1.8674   17.7405    3.3101 C.ar      1 RES1    0.0000
     20 H4         1.8974   17.4820    2.4067 H         1 RES1    0.0000
     21 C8         2.6352   16.0261    7.5786 C.3       1 RES1    0.0000
     22 H5         3.2226   15.3049    7.3022 H         1 RES1    0.0000
     23 H6         2.2537   15.8186    8.4457 H         1 RES1    0.0000
     24 H7         3.1415   16.8518    7.6374 H         1 RES1    0.0000
     25 C9         1.5856   12.9549    4.3994 C.ar      1 RES1    0.0000
     26 C10        1.6058   12.1096    5.5230 C.ar      1 RES1    0.0000
     27 C11        1.5413   10.7202    5.3520 C.ar      1 RES1    0.0000
     28 C12        1.4544   10.2053    4.0569 C.ar      1 RES1    0.0000
     29 H8         1.4020    9.2760    3.9331 H         1 RES1    0.0000
     30 C13        1.4447   11.0330    2.9625 C.ar      1 RES1    0.0000
     31 H9         1.3968   10.6669    2.0993 H         1 RES1    0.0000
     32 C14        1.5053   12.4065    3.1242 C.ar      1 RES1    0.0000
     33 H10        1.4926   12.9688    2.3715 H         1 RES1    0.0000
     34 C15        0.5820   12.6620    7.5907 C.3       1 RES1    0.0000
     35 H11       -0.2065   12.9376    7.0964 H         1 RES1    0.0000
     36 H12        0.7099   13.2527    8.3490 H         1 RES1    0.0000
     37 H13        0.4656   11.7511    7.9047 H         1 RES1    0.0000
     38 C16        1.6351    9.7773    6.4972 C.2       1 RES1    0.0000
     39 C17        1.3017    7.5426    7.1579 C.3       1 RES1    0.0000
     40 H14        2.2183    7.4623    7.4645 H         1 RES1    0.0000
     41 H15        1.0067    6.6930    6.7907 H         1 RES1    0.0000
     42 H16        0.7314    7.7887    7.9039 H         1 RES1    0.0000
@<TRIPOS>BOND
     1    1   11 2
     2    2   13 1
     3    3   10 2
     4    4   10 2
     5    5   26 1
     6    6   38 1
     7    7   38 2
     8    8    9 1
     9   10   14 1
    10   11    8 1
    11   12   11 1
    12   13   12 ar
    13   14   13 ar
    14   15   14 ar
    15   16   15 1
    16   17   15 ar
    17   18   17 1
    18   19   12 ar
    19   20   19 1
    20   21    2 1
    21   22   21 1
    22   23   21 1
    23   24   21 1
    24   25    8 1
    25   26   25 ar
    26   27   26 ar
    27   28   27 ar
    28   29   28 1
    29   30   28 ar
    30   31   30 1
    31   32   25 ar
    32   33   32 1
    33   34    5 1
    34   35   34 1
    35   36   34 1
    36   37   34 1
    37   38   27 1
    38   39    6 1
    39   40   39 1
    40   41   39 1
    41   42   39 1
    42   17   19 ar
    43   30   32 ar
@<TRIPOS>SUBSTRUCTURE
     1 RES1 1

@<TRIPOS>CRYSIN
   6.9923   28.3844    8.1995  90.0000  91.3230  90.0000  14 1

