# MOL2 file generated by ConQuest
# Please check atom types

@<TRIPOS>MOLECULE
YUXNEL
    68    70     1
SMALL
NO_CHARGES
****
Generated from CSD

@<TRIPOS>ATOM
      1 O1        -0.2206    0.3041    2.9201 O.3       1 RES1    0.0000
      2 O2        -2.4915   -2.1051    0.2384 O.3       1 RES1    0.0000
      3 O3        -1.5243   -2.0557    2.2448 O.2       1 RES1    0.0000
      4 O4        -2.1267    2.3621   -1.8332 O.3       1 RES1    0.0000
      5 O5         0.2927    4.8759    1.3299 O.2       1 RES1    0.0000
      6 O6         2.3695    2.4834    4.0625 O.3       1 RES1    0.0000
      7 O7         3.9974    4.8041    8.0016 O.2       1 RES1    0.0000
      8 O8         4.3485    0.9562    6.3219 O.3       1 RES1    0.0000
      9 O9         5.7748   -1.3274    6.6860 O.2       1 RES1    0.0000
     10 O10        5.7946   -1.9527    8.7507 O.2       1 RES1    0.0000
     11 O11        6.4341    2.3071   11.2706 O.3       1 RES1    0.0000
     12 N1         0.2475    2.8108    2.3059 N.am      1 RES1    0.0000
     13 H1         0.5455    2.3582    2.9684 H         1 RES1    0.0000
     14 N2         3.5480    3.5088    6.1846 N.am      1 RES1    0.0000
     15 H2         3.6447    2.7075    5.8821 H         1 RES1    0.0000
     16 N3         5.7170   -1.0902    7.8807 N.pl3     1 RES1    0.0000
     17 C1        -0.8162    0.7532    1.7629 C.ar      1 RES1    0.0000
     18 C2        -1.5607   -0.0574    0.9061 C.ar      1 RES1    0.0000
     19 C3        -2.0300    0.4689   -0.3108 C.ar      1 RES1    0.0000
     20 H3        -2.5393   -0.0771   -0.8982 H         1 RES1    0.0000
     21 C4        -1.7510    1.7801   -0.6517 C.ar      1 RES1    0.0000
     22 C5        -1.0331    2.6108    0.2078 C.ar      1 RES1    0.0000
     23 H4        -0.8761    3.5197   -0.0207 H         1 RES1    0.0000
     24 C6        -0.5516    2.0937    1.4009 C.ar      1 RES1    0.0000
     25 C7        -1.0695    0.2836    4.0839 C.3       1 RES1    0.0000
     26 H5        -1.5004    1.1578    4.1893 H         1 RES1    0.0000
     27 H6        -0.5303    0.0867    4.8789 H         1 RES1    0.0000
     28 H7        -1.7561   -0.4079    3.9762 H         1 RES1    0.0000
     29 C8        -1.8349   -1.4954    1.2325 C.2       1 RES1    0.0000
     30 C9        -2.8361   -3.4925    0.4657 C.3       1 RES1    0.0000
     31 H8        -2.0262   -4.0430    0.4158 H         1 RES1    0.0000
     32 H9        -3.4738   -3.7864   -0.2175 H         1 RES1    0.0000
     33 H10       -3.2404   -3.5873    1.3525 H         1 RES1    0.0000
     34 C10       -2.5862    1.4981   -2.8697 C.3       1 RES1    0.0000
     35 H11       -1.9610    0.7506   -2.9729 H         1 RES1    0.0000
     36 H12       -2.6402    1.9974   -3.7113 H         1 RES1    0.0000
     37 H13       -3.4733    1.1518   -2.6370 H         1 RES1    0.0000
     38 C11        0.6144    4.1191    2.2351 C.2       1 RES1    0.0000
     39 C12        2.1966    3.8453    4.2621 C.ar      1 RES1    0.0000
     40 C13        1.4166    4.6270    3.4118 C.ar      1 RES1    0.0000
     41 C14        1.3121    5.9971    3.6736 C.ar      1 RES1    0.0000
     42 H14        0.7904    6.5459    3.1001 H         1 RES1    0.0000
     43 C15        1.9588    6.5602    4.7563 C.ar      1 RES1    0.0000
     44 H15        1.8910    7.4958    4.9070 H         1 RES1    0.0000
     45 C16        2.7094    5.7760    5.6300 C.ar      1 RES1    0.0000
     46 H16        3.1393    6.1690    6.3808 H         1 RES1    0.0000
     47 C17        2.8213    4.4052    5.3895 C.ar      1 RES1    0.0000
     48 C18        3.4280    2.1853    3.1268 C.3       1 RES1    0.0000
     49 H17        3.1208    2.3745    2.2152 H         1 RES1    0.0000
     50 H18        3.6720    1.2391    3.1993 H         1 RES1    0.0000
     51 H19        4.2099    2.7402    3.3295 H         1 RES1    0.0000
     52 C19        4.0694    3.7342    7.4161 C.2       1 RES1    0.0000
     53 C20        4.8808    1.2468    7.5525 C.ar      1 RES1    0.0000
     54 C21        4.7806    2.5563    8.0654 C.ar      1 RES1    0.0000
     55 C22        5.3413    2.8497    9.2925 C.ar      1 RES1    0.0000
     56 H20        5.2928    3.7397    9.6201 H         1 RES1    0.0000
     57 C23        5.9775    1.8787   10.0677 C.ar      1 RES1    0.0000
     58 C24        6.0840    0.5862    9.5881 C.ar      1 RES1    0.0000
     59 H21        6.5117   -0.0893   10.1010 H         1 RES1    0.0000
     60 C25        5.5497    0.2989    8.3349 C.ar      1 RES1    0.0000
     61 C26        3.2372    0.0265    6.2839 C.3       1 RES1    0.0000
     62 H22        3.1735   -0.4414    7.1429 H         1 RES1    0.0000
     63 H23        3.3817   -0.6261    5.5670 H         1 RES1    0.0000
     64 H24        2.4061    0.5177    6.1160 H         1 RES1    0.0000
     65 C27        6.9542    1.3124   12.1680 C.3       1 RES1    0.0000
     66 H25        6.2894    0.6023   12.2896 H         1 RES1    0.0000
     67 H26        7.1526    1.7262   13.0339 H         1 RES1    0.0000
     68 H27        7.7744    0.9307   11.7924 H         1 RES1    0.0000
@<TRIPOS>BOND
     1    1   17 1
     2    2   29 1
     3    3   29 2
     4    4   21 1
     5    5   38 2
     6    6   39 1
     7    7   52 2
     8    8   53 1
     9    9   16 2
    10   10   16 2
    11   11   57 1
    12   12   13 1
    13   14   15 1
    14   16   60 1
    15   17   18 ar
    16   18   19 ar
    17   19   20 1
    18   21   19 ar
    19   22   21 ar
    20   23   22 1
    21   24   12 1
    22   25    1 1
    23   26   25 1
    24   27   25 1
    25   28   25 1
    26   29   18 1
    27   30    2 1
    28   31   30 1
    29   32   30 1
    30   33   30 1
    31   34    4 1
    32   35   34 1
    33   36   34 1
    34   37   34 1
    35   38   12 1
    36   39   40 ar
    37   40   38 1
    38   41   40 ar
    39   42   41 1
    40   43   41 ar
    41   44   43 1
    42   45   43 ar
    43   46   45 1
    44   47   14 1
    45   48    6 1
    46   49   48 1
    47   50   48 1
    48   51   48 1
    49   52   14 1
    50   53   54 ar
    51   54   52 1
    52   55   54 ar
    53   56   55 1
    54   57   55 ar
    55   58   57 ar
    56   59   58 1
    57   60   53 ar
    58   61    8 1
    59   62   61 1
    60   63   61 1
    61   64   61 1
    62   65   11 1
    63   66   65 1
    64   67   65 1
    65   68   65 1
    66   17   24 ar
    67   22   24 ar
    68   39   47 ar
    69   45   47 ar
    70   58   60 ar
@<TRIPOS>SUBSTRUCTURE
     1 RES1 1

@<TRIPOS>CRYSIN
   7.8202   11.1046   15.2948 102.7860  93.9600 103.0680   2 1

