# MOL2 file generated by ConQuest
# Please check atom types

@<TRIPOS>MOLECULE
YUXNUB
    93    95     1
SMALL
NO_CHARGES
****
Generated from CSD

@<TRIPOS>ATOM
      1 O1         5.6182   14.8605    3.3590 O.3       1 RES1    0.0000
      2 O2         1.5274   15.0276    5.8175 O.2       1 RES1    0.0000
      3 O3         5.8920    9.9695    2.1714 O.2       1 RES1    0.0000
      4 O4        -2.6367   15.6068    8.2909 O.3       1 RES1    0.0000
      5 O5         0.1215   11.1407    6.5497 O.3       1 RES1    0.0000
      6 O6        -2.8124   10.6015    9.0471 O.2       1 RES1    0.0000
      7 O7        -2.2868    9.9541    7.0584 O.2       1 RES1    0.0000
      8 O8         7.7189    5.5068    1.8981 O.3       1 RES1    0.0000
      9 O9         4.7477    2.9665    4.6407 O.3       1 RES1    0.0000
     10 O10        3.4144    4.2888    5.8004 O.2       1 RES1    0.0000
     11 O11        3.6386    7.0099    5.2750 O.3       1 RES1    0.0000
     12 O12        2.6815   10.4233    4.7714 O.3       1 RES1    0.0000
     13 N1         1.8595   12.8191    5.4980 N.am      1 RES1    0.0000
     14 H1         1.4982   12.0304    5.6287 H         1 RES1    0.0000
     15 N2         4.8362    8.9085    3.8758 N.am      1 RES1    0.0000
     16 H2         4.2967    9.0176    4.5331 H         1 RES1    0.0000
     17 N3        -2.3175   10.7824    7.9446 N.pl3     1 RES1    0.0000
     18 C1         3.0505   12.7742    4.7511 C.ar      1 RES1    0.0000
     19 C2         3.7935   13.8819    4.4033 C.ar      1 RES1    0.0000
     20 H3         3.5215   14.7420    4.6692 H         1 RES1    0.0000
     21 C3         4.9570   13.7069    3.6481 C.ar      1 RES1    0.0000
     22 C4         5.3563   12.4505    3.2531 C.ar      1 RES1    0.0000
     23 H4         6.1279   12.3516    2.7246 H         1 RES1    0.0000
     24 C5         4.6243   11.3190    3.6309 C.ar      1 RES1    0.0000
     25 C6         3.4675   11.4888    4.3726 C.ar      1 RES1    0.0000
     26 C7         1.1740   13.8776    5.9728 C.2       1 RES1    0.0000
     27 C8        -0.1017   13.5453    6.7169 C.ar      1 RES1    0.0000
     28 C9        -0.8375   14.6242    7.1741 C.ar      1 RES1    0.0000
     29 H5        -0.5269   15.4943    6.9998 H         1 RES1    0.0000
     30 C10       -2.0215   14.4627    7.8821 C.ar      1 RES1    0.0000
     31 C11       -2.4768   13.1950    8.1515 C.ar      1 RES1    0.0000
     32 H6        -3.2625   13.0642    8.6497 H         1 RES1    0.0000
     33 C12       -1.7608   12.1238    7.6782 C.ar      1 RES1    0.0000
     34 C13       -0.5706   12.2458    6.9832 C.ar      1 RES1    0.0000
     35 C14        5.1608   10.0021    3.1525 C.2       1 RES1    0.0000
     36 C15        5.2593    7.5757    3.6676 C.ar      1 RES1    0.0000
     37 C16        6.2992    7.2491    2.8041 C.ar      1 RES1    0.0000
     38 H7         6.7303    7.9164    2.3018 H         1 RES1    0.0000
     39 C17        6.6900    5.9255    2.6960 C.ar      1 RES1    0.0000
     40 C18        6.0459    4.9414    3.4110 C.ar      1 RES1    0.0000
     41 H8         6.3181    4.0462    3.3173 H         1 RES1    0.0000
     42 C19        4.9983    5.2545    4.2696 C.ar      1 RES1    0.0000
     43 C20        4.6136    6.5897    4.4036 C.ar      1 RES1    0.0000
     44 C21        6.8452   14.7868    2.6242 C.3       1 RES1    0.0000
     45 H9         6.6812   14.4300    1.7267 H         1 RES1    0.0000
     46 H10        7.4794   14.1979    3.0818 H         1 RES1    0.0000
     47 C22        7.3976   16.1724    2.5356 C.3       1 RES1    0.0000
     48 H11        7.5542   16.5127    3.4406 H         1 RES1    0.0000
     49 H12        6.7364   16.7536    2.1064 H         1 RES1    0.0000
     50 C23        8.6996   16.2344    1.7492 C.3       1 RES1    0.0000
     51 H13        9.3766   15.6994    2.2153 H         1 RES1    0.0000
     52 H14        8.5564   15.8338    0.8666 H         1 RES1    0.0000
     53 C24        9.2240   17.6297    1.5698 C.3       1 RES1    0.0000
     54 H15        9.3492   18.0336    2.4539 H         1 RES1    0.0000
     55 H16        8.5483   18.1592    1.0972 H         1 RES1    0.0000
     56 C25       10.5299   17.7224    0.8073 C.3       1 RES1    0.0000
     57 H17       11.2241   17.2508    1.3135 H         1 RES1    0.0000
     58 H18       10.4261   17.2641   -0.0529 H         1 RES1    0.0000
     59 C26       10.9864   19.1234    0.5542 C.3       1 RES1    0.0000
     60 H19       11.0754   19.5804    1.4160 H         1 RES1    0.0000
     61 H20       10.2900   19.5884    0.0449 H         1 RES1    0.0000
     62 C27       12.2971   19.2542   -0.1954 C.3       1 RES1    0.0000
     63 H21       13.0035   18.7965    0.3075 H         1 RES1    0.0000
     64 H22       12.2155   18.8134   -1.0684 H         1 RES1    0.0000
     65 C28       12.6867   20.6957   -0.4004 C.3       1 RES1    0.0000
     66 H23       12.0491   21.1205   -0.9963 H         1 RES1    0.0000
     67 H24       13.5730   20.7376   -0.7929 H         1 RES1    0.0000
     68 H25       12.6881   21.1549    0.4533 H         1 RES1    0.0000
     69 C29        1.6330   10.1147    3.8401 C.3       1 RES1    0.0000
     70 H26        1.1955   10.9341    3.5624 H         1 RES1    0.0000
     71 H27        0.9848    9.5310    4.2640 H         1 RES1    0.0000
     72 H28        2.0092    9.6699    3.0642 H         1 RES1    0.0000
     73 C30       -3.8106   15.4573    9.0950 C.3       1 RES1    0.0000
     74 H29       -4.4782   14.9543    8.6032 H         1 RES1    0.0000
     75 H30       -4.1635   16.3324    9.3176 H         1 RES1    0.0000
     76 H31       -3.5853   14.9833    9.9103 H         1 RES1    0.0000
     77 C31        0.8390   10.4471    7.5891 C.3       1 RES1    0.0000
     78 H32        1.3787   11.0799    8.0874 H         1 RES1    0.0000
     79 H33        1.4142    9.7746    7.1920 H         1 RES1    0.0000
     80 H34        0.2071   10.0200    8.1883 H         1 RES1    0.0000
     81 C32        8.3162    6.4594    1.0283 C.3       1 RES1    0.0000
     82 H35        7.6309    6.8669    0.4757 H         1 RES1    0.0000
     83 H36        8.9668    6.0160    0.4613 H         1 RES1    0.0000
     84 H37        8.7581    7.1441    1.5537 H         1 RES1    0.0000
     85 C33        4.2863    4.1536    4.9912 C.2       1 RES1    0.0000
     86 C34        4.0711    1.8185    5.2010 C.3       1 RES1    0.0000
     87 H38        4.0973    1.8697    6.1701 H         1 RES1    0.0000
     88 H39        4.5142    1.0077    4.9079 H         1 RES1    0.0000
     89 H40        3.1486    1.8088    4.9031 H         1 RES1    0.0000
     90 C35        2.3040    6.8277    4.8006 C.3       1 RES1    0.0000
     91 H41        2.2304    7.1773    3.8988 H         1 RES1    0.0000
     92 H42        1.6874    7.2982    5.3820 H         1 RES1    0.0000
     93 H43        2.0883    5.8814    4.7990 H         1 RES1    0.0000
@<TRIPOS>BOND
     1    1   21 1
     2    2   26 2
     3    3   35 2
     4    4   30 1
     5    5   34 1
     6    6   17 2
     7    7   17 2
     8    8   39 1
     9    9   85 1
    10   10   85 2
    11   11   43 1
    12   12   25 1
    13   13   14 1
    14   15   16 1
    15   17   33 1
    16   18   13 1
    17   19   18 ar
    18   20   19 1
    19   21   19 ar
    20   22   21 ar
    21   23   22 1
    22   24   22 ar
    23   25   18 ar
    24   26   13 1
    25   27   26 1
    26   28   27 ar
    27   29   28 1
    28   30   28 ar
    29   31   30 ar
    30   32   31 1
    31   33   31 ar
    32   34   27 ar
    33   35   15 1
    34   36   15 1
    35   37   36 ar
    36   38   37 1
    37   39   37 ar
    38   40   39 ar
    39   41   40 1
    40   42   40 ar
    41   43   36 ar
    42   44    1 1
    43   45   44 1
    44   46   44 1
    45   47   44 1
    46   48   47 1
    47   49   47 1
    48   50   47 1
    49   51   50 1
    50   52   50 1
    51   53   50 1
    52   54   53 1
    53   55   53 1
    54   56   53 1
    55   57   56 1
    56   58   56 1
    57   59   56 1
    58   60   59 1
    59   61   59 1
    60   62   59 1
    61   63   62 1
    62   64   62 1
    63   65   62 1
    64   66   65 1
    65   67   65 1
    66   68   65 1
    67   69   12 1
    68   70   69 1
    69   71   69 1
    70   72   69 1
    71   73    4 1
    72   74   73 1
    73   75   73 1
    74   76   73 1
    75   77    5 1
    76   78   77 1
    77   79   77 1
    78   80   77 1
    79   81    8 1
    80   82   81 1
    81   83   81 1
    82   84   81 1
    83   85   42 1
    84   86    9 1
    85   87   86 1
    86   88   86 1
    87   89   86 1
    88   90   11 1
    89   91   90 1
    90   92   90 1
    91   93   90 1
    92   24   25 ar
    93   24   35 1
    94   33   34 ar
    95   42   43 ar
@<TRIPOS>SUBSTRUCTURE
     1 RES1 1

@<TRIPOS>CRYSIN
   6.8316   15.8889   16.4300  83.0620  78.9390  87.5880   2 1

