# MOL2 file generated by ConQuest
# Please check atom types

@<TRIPOS>MOLECULE
YUXNAH
    97    94     3
SMALL
NO_CHARGES
****
Generated from CSD

@<TRIPOS>ATOM
      1 O1         3.6287   14.8604    0.3772 O.3       1 RES1    0.0000
      2 O2         5.0330   18.3866    2.0685 O.3       1 RES1    0.0000
      3 O3         4.6695   17.4583    0.0948 O.2       1 RES1    0.0000
      4 O4         1.3097   16.7902    5.0001 O.3       1 RES1    0.0000
      5 O5         0.2264   12.6354    3.0286 O.2       1 RES1    0.0000
      6 O6         2.5693   11.6844   -0.2893 O.3       1 RES1    0.0000
      7 O7         3.1839    9.1031   -1.4328 O.2       1 RES1    0.0000
      8 O8         1.4733    8.7138   -2.6872 O.2       1 RES1    0.0000
      9 O9         3.5608   16.2604    8.2152 O.3       2 RES2    0.0000
     10 O10        1.8979   12.8056    6.2897 O.3       2 RES2    0.0000
     11 C1         1.9268   12.0955    7.5134 C.3       2 RES2    0.0000
     12 H1         2.2743   11.2021    7.3622 H         2 RES2    0.0000
     13 H2         1.0275   12.0351    7.8742 H         2 RES2    0.0000
     14 H3         2.4969   12.5608    8.1445 H         2 RES2    0.0000
     15 O11        1.9826   14.7301    8.3684 O.2       2 RES2    0.0000
     16 O12        6.1395   15.4886    4.0682 O.3       2 RES2    0.0000
     17 O13        4.6924   11.2567    2.6604 O.2       2 RES2    0.0000
     18 O14        1.6472    9.6159    5.0336 O.3       2 RES2    0.0000
     19 O15        0.8716    6.8305    5.4516 O.2       2 RES2    0.0000
     20 O16       -0.5023    6.7106    3.7980 O.2       2 RES2    0.0000
     21 N1         1.8368   13.4052    1.6372 N.am      1 RES1    0.0000
     22 H4         2.2862   13.2338    0.9237 H         1 RES1    0.0000
     23 N2         1.9887    9.1768   -1.6825 N.pl3     1 RES1    0.0000
     24 N3         3.3178   11.6409    4.4105 N.am      2 RES2    0.0000
     25 H5         2.7170   11.2681    4.8850 H         2 RES2    0.0000
     26 N4         0.5530    7.0669    4.2998 N.pl3     2 RES2    0.0000
     27 C2         3.1139   15.4028    1.5353 C.ar      1 RES1    0.0000
     28 C3         3.4653   16.6594    2.0042 C.ar      1 RES1    0.0000
     29 C4         2.8780   17.1549    3.1798 C.ar      1 RES1    0.0000
     30 H6         3.1245   17.9980    3.5125 H         1 RES1    0.0000
     31 C5         1.9371   16.3943    3.8446 C.ar      1 RES1    0.0000
     32 C6         1.5585   15.1453    3.3739 C.ar      1 RES1    0.0000
     33 H7         0.9082   14.6432    3.8323 H         1 RES1    0.0000
     34 C7         2.1454   14.6409    2.2223 C.ar      1 RES1    0.0000
     35 C8         4.9782   14.3781    0.4911 C.3       1 RES1    0.0000
     36 H8         5.5251   15.0470    0.9311 H         1 RES1    0.0000
     37 H9         5.3339   14.2013   -0.3943 H         1 RES1    0.0000
     38 H10        4.9864   13.5614    1.0129 H         1 RES1    0.0000
     39 C9         4.4345   17.5112    1.2630 C.2       1 RES1    0.0000
     40 C10        6.0224   19.2343    1.4613 C.3       1 RES1    0.0000
     41 H11        6.8411   18.7319    1.3291 H         1 RES1    0.0000
     42 H12        6.1983   19.9916    2.0408 H         1 RES1    0.0000
     43 H13        5.6953   19.5497    0.6050 H         1 RES1    0.0000
     44 C11        1.6644   18.0617    5.5272 C.3       1 RES1    0.0000
     45 H14        2.6177   18.0843    5.7057 H         1 RES1    0.0000
     46 H15        1.1770   18.2164    6.3517 H         1 RES1    0.0000
     47 H16        1.4407   18.7523    4.8837 H         1 RES1    0.0000
     48 C12        0.9040   12.5067    2.0203 C.2       1 RES1    0.0000
     49 C13        1.4757   10.9283    0.0241 C.ar      1 RES1    0.0000
     50 C14        0.6837   11.3087    1.1240 C.ar      1 RES1    0.0000
     51 C15       -0.4315   10.5321    1.4481 C.ar      1 RES1    0.0000
     52 H17       -0.9477   10.7678    2.1970 H         1 RES1    0.0000
     53 C16       -0.8003    9.4295    0.7039 C.ar      1 RES1    0.0000
     54 H18       -1.5734    8.9444    0.9286 H         1 RES1    0.0000
     55 C17       -0.0291    9.0445   -0.3689 C.ar      1 RES1    0.0000
     56 H19       -0.2721    8.3019   -0.8890 H         1 RES1    0.0000
     57 C18        1.1114    9.7708   -0.6691 C.ar      1 RES1    0.0000
     58 C19        2.8264   12.0132   -1.6742 C.3       1 RES1    0.0000
     59 H20        3.4775   11.3926   -2.0383 H         1 RES1    0.0000
     60 H21        3.1729   12.9163   -1.7333 H         1 RES1    0.0000
     61 H22        2.0015   11.9487   -2.1796 H         1 RES1    0.0000
     62 C20        3.1248   13.4057    5.9988 C.ar      2 RES2    0.0000
     63 C21        3.5431   14.6102    6.5457 C.ar      2 RES2    0.0000
     64 C22        4.5720   15.3294    5.9249 C.ar      2 RES2    0.0000
     65 H23        4.8602   16.1466    6.2897 H         2 RES2    0.0000
     66 C23        5.1635   14.8405    4.7773 C.ar      2 RES2    0.0000
     67 C24        4.7900   13.6068    4.2587 C.ar      2 RES2    0.0000
     68 H24        5.2253   13.2642    3.4988 H         2 RES2    0.0000
     69 C25        3.7798   12.8858    4.8593 C.ar      2 RES2    0.0000
     70 C26        2.9238   15.1722    7.7858 C.2       2 RES2    0.0000
     71 C27        3.0877   16.8041    9.4680 C.3       2 RES2    0.0000
     72 H25        2.1747   17.1168    9.3608 H         2 RES2    0.0000
     73 H26        3.6539   17.5460    9.7327 H         2 RES2    0.0000
     74 H27        3.1157   16.1162   10.1506 H         2 RES2    0.0000
     75 C28        6.5693   16.7536    4.5616 C.3       2 RES2    0.0000
     76 H28        5.8167   17.3656    4.5849 H         2 RES2    0.0000
     77 H29        7.2580   17.1117    3.9786 H         2 RES2    0.0000
     78 H30        6.9268   16.6469    5.4565 H         2 RES2    0.0000
     79 C29        3.7704   10.9027    3.3794 C.2       2 RES2    0.0000
     80 C30        2.0551    9.0020    3.8854 C.ar      2 RES2    0.0000
     81 C31        3.0744    9.5851    3.1114 C.ar      2 RES2    0.0000
     82 C32        3.4874    8.9170    1.9623 C.ar      2 RES2    0.0000
     83 H31        4.1887    9.2822    1.4519 H         2 RES2    0.0000
     84 C33        2.9027    7.7371    1.5458 C.ar      2 RES2    0.0000
     85 H32        3.1936    7.3241    0.7538 H         2 RES2    0.0000
     86 C34        1.8949    7.1667    2.2901 C.ar      2 RES2    0.0000
     87 H33        1.4766    6.3743    2.0085 H         2 RES2    0.0000
     88 C35        1.5167    7.7930    3.4615 C.ar      2 RES2    0.0000
     89 C36        0.2269    9.8411    5.2172 C.3       2 RES2    0.0000
     90 H34        0.0480   10.7958    5.2185 H         2 RES2    0.0000
     91 H35       -0.0551    9.4574    6.0616 H         2 RES2    0.0000
     92 H36       -0.2630    9.4218    4.4919 H         2 RES2    0.0000
     93 C37        0.9649   12.8863    6.5736 Du        3 SUP3    0.0000
     94 H37        0.8774   13.8306    6.7794 Du        3 SUP3    0.0000
     95 H38        0.4042   12.3703    7.1749 Du        3 SUP3    0.0000
     96 H39        0.6879   12.7284    5.6586 Du        3 SUP3    0.0000
     97 O17        2.3426   12.4838    6.7360 Du        3 SUP3    0.0000
@<TRIPOS>BOND
     1    1   27 1
     2    2   39 1
     3    3   39 2
     4    4   31 1
     5    5   48 2
     6    6   49 1
     7    7   23 2
     8    8   23 2
     9    9   70 1
    10   10   11 1
    11   11   12 1
    12   13   11 1
    13   14   11 1
    14   15   70 2
    15   16   66 1
    16   17   79 2
    17   18   80 1
    18   19   26 2
    19   20   26 2
    20   21   22 1
    21   23   57 1
    22   24   25 1
    23   26   88 1
    24   27   28 ar
    25   28   29 ar
    26   29   30 1
    27   31   29 ar
    28   32   31 ar
    29   33   32 1
    30   34   21 1
    31   35    1 1
    32   36   35 1
    33   37   35 1
    34   38   35 1
    35   39   28 1
    36   40    2 1
    37   41   40 1
    38   42   40 1
    39   43   40 1
    40   44    4 1
    41   45   44 1
    42   46   44 1
    43   47   44 1
    44   48   21 1
    45   49   50 ar
    46   50   48 1
    47   51   50 ar
    48   52   51 1
    49   53   51 ar
    50   54   53 1
    51   55   53 ar
    52   56   55 1
    53   57   49 ar
    54   58    6 1
    55   59   58 1
    56   60   58 1
    57   61   58 1
    58   62   10 1
    59   63   62 ar
    60   64   63 ar
    61   65   64 1
    62   66   64 ar
    63   67   66 ar
    64   68   67 1
    65   69   24 1
    66   70   63 1
    67   71    9 1
    68   72   71 1
    69   73   71 1
    70   74   71 1
    71   75   16 1
    72   76   75 1
    73   77   75 1
    74   78   75 1
    75   79   24 1
    76   80   81 ar
    77   81   79 1
    78   82   81 ar
    79   83   82 1
    80   84   82 ar
    81   85   84 1
    82   86   84 ar
    83   87   86 1
    84   88   80 ar
    85   89   18 1
    86   90   89 1
    87   91   89 1
    88   92   89 1
    89   27   34 ar
    90   32   34 ar
    91   55   57 ar
    92   62   69 ar
    93   67   69 ar
    94   86   88 ar
@<TRIPOS>SUBSTRUCTURE
     1 RES1 1
     2 RES2 9
     3 SUP3 93

@<TRIPOS>CRYSIN
  11.1282   25.3958   12.4272  90.0000  93.9020  90.0000  14 1

