# MOL2 file generated by ConQuest
# Please check atom types

@<TRIPOS>MOLECULE
YUXNIP
    50    51     1
SMALL
NO_CHARGES
****
Generated from CSD

@<TRIPOS>ATOM
      1 O1        -0.3890    0.5767    6.4573 O.3       1 RES1    0.0000
      2 O2        -0.0244   -1.6080    4.8065 O.3       1 RES1    0.0000
      3 O3         1.6951   -1.2490    3.4386 O.2       1 RES1    0.0000
      4 O4         0.5963    3.5482    1.9180 O.3       1 RES1    0.0000
      5 O5        -1.2411    5.3275    5.8549 O.2       1 RES1    0.0000
      6 O6        -1.7336    2.4419    8.8604 O.3       1 RES1    0.0000
      7 O7        -2.8409    7.7694    9.8716 O.3       1 RES1    0.0000
      8 O8        -1.7591    2.4519   11.6180 O.2       1 RES1    0.0000
      9 O9        -3.5302    3.4994   12.2481 O.2       1 RES1    0.0000
     10 N1        -0.9327    3.1548    6.4263 N.am      1 RES1    0.0000
     11 H1        -1.0137    2.6283    7.0136 H         1 RES1    0.0000
     12 N2        -2.6101    3.3096   11.4676 N.pl3     1 RES1    0.0000
     13 C1        -0.1200    1.2357    5.2831 C.ar      1 RES1    0.0000
     14 C2         0.4180    0.6175    4.1550 C.ar      1 RES1    0.0000
     15 C3         0.6810    1.3679    3.0028 C.ar      1 RES1    0.0000
     16 H2         1.0595    0.9551    2.2475 H         1 RES1    0.0000
     17 C4         0.3839    2.7137    2.9796 C.ar      1 RES1    0.0000
     18 C5        -0.1667    3.3411    4.0986 C.ar      1 RES1    0.0000
     19 H3        -0.3695    4.2590    4.0714 H         1 RES1    0.0000
     20 C6        -0.4118    2.6120    5.2429 C.ar      1 RES1    0.0000
     21 C7         0.7690    0.2595    7.2457 C.3       1 RES1    0.0000
     22 H4         0.7788   -0.6908    7.4382 H         1 RES1    0.0000
     23 H5         0.7405    0.7579    8.0773 H         1 RES1    0.0000
     24 H6         1.5705    0.4966    6.7535 H         1 RES1    0.0000
     25 C8         0.7819   -0.8287    4.0969 C.2       1 RES1    0.0000
     26 C9         0.2597   -3.0291    4.7839 C.3       1 RES1    0.0000
     27 H7         0.4818   -3.3011    3.8803 H         1 RES1    0.0000
     28 H8        -0.5211   -3.5199    5.0863 H         1 RES1    0.0000
     29 H9         1.0077   -3.2187    5.3719 H         1 RES1    0.0000
     30 C10        1.1642    2.9827    0.7418 C.3       1 RES1    0.0000
     31 H10        1.9784    2.5086    0.9715 H         1 RES1    0.0000
     32 H11        1.3687    3.6898    0.1100 H         1 RES1    0.0000
     33 H12        0.5319    2.3647    0.3423 H         1 RES1    0.0000
     34 C11       -1.3023    4.4270    6.6734 C.2       1 RES1    0.0000
     35 C12       -2.0219    3.7574    9.0810 C.ar      1 RES1    0.0000
     36 C13       -1.8053    4.7094    8.0771 C.ar      1 RES1    0.0000
     37 C14       -2.0559    6.0544    8.3345 C.ar      1 RES1    0.0000
     38 H13       -1.8874    6.6904    7.6627 H         1 RES1    0.0000
     39 C15       -2.5502    6.4775    9.5622 C.ar      1 RES1    0.0000
     40 C16       -2.7660    5.5481   10.5644 C.ar      1 RES1    0.0000
     41 H14       -3.1029    5.8183   11.3996 H         1 RES1    0.0000
     42 C17       -2.4807    4.2223   10.3222 C.ar      1 RES1    0.0000
     43 C18       -2.7987    1.4781    8.9959 C.3       1 RES1    0.0000
     44 H15       -3.5826    1.9126    9.3667 H         1 RES1    0.0000
     45 H16       -2.5154    0.7632    9.5879 H         1 RES1    0.0000
     46 H17       -3.0149    1.1100    8.1251 H         1 RES1    0.0000
     47 C19       -2.5466    8.7590    8.8882 C.3       1 RES1    0.0000
     48 H18       -1.6009    8.7304    8.6742 H         1 RES1    0.0000
     49 H19       -2.7729    9.6358    9.2344 H         1 RES1    0.0000
     50 H20       -3.0649    8.5833    8.0873 H         1 RES1    0.0000
@<TRIPOS>BOND
     1    1   13 1
     2    2   25 1
     3    3   25 2
     4    4   17 1
     5    5   34 2
     6    6   35 1
     7    7   39 1
     8    8   12 2
     9    9   12 2
    10   10   11 1
    11   12   42 1
    12   13   14 ar
    13   14   15 ar
    14   15   16 1
    15   17   15 ar
    16   18   17 ar
    17   19   18 1
    18   20   10 1
    19   21    1 1
    20   22   21 1
    21   23   21 1
    22   24   21 1
    23   25   14 1
    24   26    2 1
    25   27   26 1
    26   28   26 1
    27   29   26 1
    28   30    4 1
    29   31   30 1
    30   32   30 1
    31   33   30 1
    32   34   10 1
    33   35   36 ar
    34   36   34 1
    35   37   36 ar
    36   38   37 1
    37   39   37 ar
    38   40   39 ar
    39   41   40 1
    40   42   35 ar
    41   43    6 1
    42   44   43 1
    43   45   43 1
    44   46   43 1
    45   47    7 1
    46   48   47 1
    47   49   47 1
    48   50   47 1
    49   13   20 ar
    50   18   20 ar
    51   40   42 ar
@<TRIPOS>SUBSTRUCTURE
     1 RES1 1

@<TRIPOS>CRYSIN
   7.4447   11.7593   12.3555 108.3360 104.0110 100.2460   2 1

