# MOL2 file generated by ConQuest
# Please check atom types

@<TRIPOS>MOLECULE
YUXNOV
    72    74     1
SMALL
NO_CHARGES
****
Generated from CSD

@<TRIPOS>ATOM
      1 O1         1.9996    8.9241    4.1672 O.3       1 RES1    0.0000
      2 O2        -0.0392    6.5546    7.0551 O.3       1 RES1    0.0000
      3 O3         1.1152    6.4811    5.1633 O.2       1 RES1    0.0000
      4 O4        -0.1351   11.1964    8.7171 O.3       1 RES1    0.0000
      5 O5         2.2560   13.6034    5.4653 O.2       1 RES1    0.0000
      6 O6         4.1186   11.1472    2.6721 O.3       1 RES1    0.0000
      7 O7         3.5474   16.4977    1.4974 O.3       1 RES1    0.0000
      8 O8         5.4205   13.2729   -1.4909 O.2       1 RES1    0.0000
      9 O9         5.9465    9.5735    0.4201 O.3       1 RES1    0.0000
     10 O10        7.3619   10.4668   -4.8624 O.3       1 RES1    0.0000
     11 O11        7.2703    6.4929   -1.7210 O.2       1 RES1    0.0000
     12 O12        7.7385    7.5030    0.1097 O.2       1 RES1    0.0000
     13 N1         2.1453   11.5338    4.5375 N.am      1 RES1    0.0000
     14 H1         2.3661   11.1112    3.8789 H         1 RES1    0.0000
     15 N2         5.0429   12.0853    0.3899 N.am      1 RES1    0.0000
     16 H2         5.1276   11.3327    0.6871 H         1 RES1    0.0000
     17 N3         7.3317    7.4908   -1.0327 N.pl3     1 RES1    0.0000
     18 C1         1.3708    9.4063    5.2925 C.ar      1 RES1    0.0000
     19 C2         0.7430    8.5978    6.2390 C.ar      1 RES1    0.0000
     20 C3         0.2251    9.1818    7.4056 C.ar      1 RES1    0.0000
     21 H3        -0.1891    8.6484    8.0451 H         1 RES1    0.0000
     22 C4         0.3272   10.5373    7.6064 C.ar      1 RES1    0.0000
     23 C5         0.9321   11.3499    6.6562 C.ar      1 RES1    0.0000
     24 H4         0.9762   12.2684    6.7892 H         1 RES1    0.0000
     25 C6         1.4662   10.7927    5.5165 C.ar      1 RES1    0.0000
     26 C7         1.1494    8.6559    3.0415 C.3       1 RES1    0.0000
     27 H5         0.4245    8.0879    3.3159 H         1 RES1    0.0000
     28 H6         1.6562    8.2165    2.3545 H         1 RES1    0.0000
     29 H7         0.7972    9.4813    2.7024 H         1 RES1    0.0000
     30 C8         0.6487    7.1175    6.0602 C.2       1 RES1    0.0000
     31 C9        -0.2495    5.1260    6.9662 C.3       1 RES1    0.0000
     32 H8        -0.5560    4.9017    6.0847 H         1 RES1    0.0000
     33 H9        -0.9081    4.8596    7.6120 H         1 RES1    0.0000
     34 H10        0.5762    4.6698    7.1443 H         1 RES1    0.0000
     35 C10       -0.4922   10.4186    9.8415 C.3       1 RES1    0.0000
     36 H11       -1.2421    9.8619    9.6200 H         1 RES1    0.0000
     37 H12       -0.7272   10.9984   10.5699 H         1 RES1    0.0000
     38 H13        0.2511    9.8678   10.0979 H         1 RES1    0.0000
     39 C11        2.5140   12.8324    4.5593 C.2       1 RES1    0.0000
     40 C12        3.9129   12.4998    2.4358 C.ar      1 RES1    0.0000
     41 C13        3.2220   13.3106    3.3158 C.ar      1 RES1    0.0000
     42 C14        3.0986   14.6705    3.0322 C.ar      1 RES1    0.0000
     43 H14        2.6759   15.2364    3.6364 H         1 RES1    0.0000
     44 C15        3.6063   15.1747    1.8527 C.ar      1 RES1    0.0000
     45 C16        4.2201   14.3526    0.9213 C.ar      1 RES1    0.0000
     46 H15        4.5122   14.6979    0.1083 H         1 RES1    0.0000
     47 C17        4.3944   13.0114    1.2143 C.ar      1 RES1    0.0000
     48 C18        5.1898   10.8723    3.5760 C.3       1 RES1    0.0000
     49 H16        6.0287   10.9891    3.1239 H         1 RES1    0.0000
     50 H17        5.1191    9.9685    3.8905 H         1 RES1    0.0000
     51 H18        5.1430   11.4760    4.3221 H         1 RES1    0.0000
     52 C19        2.9811   17.4095    2.4236 C.3       1 RES1    0.0000
     53 H19        2.0694   17.1660    2.5956 H         1 RES1    0.0000
     54 H20        3.0117   18.2962    2.0586 H         1 RES1    0.0000
     55 H21        3.4801   17.3834    3.2437 H         1 RES1    0.0000
     56 C20        5.4908   12.2330   -0.8673 C.2       1 RES1    0.0000
     57 C21        6.3111    9.7551   -0.8869 C.ar      1 RES1    0.0000
     58 C22        6.1008   10.9998   -1.5110 C.ar      1 RES1    0.0000
     59 C23        6.4846   11.1675   -2.8314 C.ar      1 RES1    0.0000
     60 H22        6.3589   11.9980   -3.2307 H         1 RES1    0.0000
     61 C24        7.0442   10.1517   -3.5782 C.ar      1 RES1    0.0000
     62 C25        7.2619    8.9257   -2.9843 C.ar      1 RES1    0.0000
     63 H23        7.6255    8.2213   -3.4704 H         1 RES1    0.0000
     64 C26        6.9263    8.7664   -1.6486 C.ar      1 RES1    0.0000
     65 C27        5.0547    8.4885    0.7468 C.3       1 RES1    0.0000
     66 H24        4.2257    8.8431    1.0755 H         1 RES1    0.0000
     67 H25        5.4559    7.9366    1.4219 H         1 RES1    0.0000
     68 H26        4.8884    7.9630   -0.0390 H         1 RES1    0.0000
     69 C28        7.8904    9.4401   -5.6781 C.3       1 RES1    0.0000
     70 H27        8.7520    9.1782   -5.3456 H         1 RES1    0.0000
     71 H28        7.9788    9.7609   -6.5784 H         1 RES1    0.0000
     72 H29        7.2989    8.6841   -5.6646 H         1 RES1    0.0000
@<TRIPOS>BOND
     1    1   18 1
     2    2   30 1
     3    3   30 2
     4    4   22 1
     5    5   39 2
     6    6   40 1
     7    7   44 1
     8    8   56 2
     9    9   57 1
    10   10   61 1
    11   11   17 2
    12   12   17 2
    13   13   14 1
    14   15   16 1
    15   17   64 1
    16   18   19 ar
    17   19   20 ar
    18   20   21 1
    19   22   20 ar
    20   23   22 ar
    21   24   23 1
    22   25   13 1
    23   26    1 1
    24   27   26 1
    25   28   26 1
    26   29   26 1
    27   30   19 1
    28   31    2 1
    29   32   31 1
    30   33   31 1
    31   34   31 1
    32   35    4 1
    33   36   35 1
    34   37   35 1
    35   38   35 1
    36   39   13 1
    37   40   41 ar
    38   41   39 1
    39   42   41 ar
    40   43   42 1
    41   44   42 ar
    42   45   44 ar
    43   46   45 1
    44   47   15 1
    45   48    6 1
    46   49   48 1
    47   50   48 1
    48   51   48 1
    49   52    7 1
    50   53   52 1
    51   54   52 1
    52   55   52 1
    53   56   15 1
    54   57   58 ar
    55   58   56 1
    56   59   58 ar
    57   60   59 1
    58   61   59 ar
    59   62   61 ar
    60   63   62 1
    61   64   57 ar
    62   65    9 1
    63   66   65 1
    64   67   65 1
    65   68   65 1
    66   69   10 1
    67   70   69 1
    68   71   69 1
    69   72   69 1
    70   18   25 ar
    71   23   25 ar
    72   40   47 ar
    73   45   47 ar
    74   62   64 ar
@<TRIPOS>SUBSTRUCTURE
     1 RES1 1

@<TRIPOS>CRYSIN
   7.6819   12.8663   15.3441  70.1970  84.7680  76.1220   2 1

