# MOL2 file generated by ConQuest
# Please check atom types

@<TRIPOS>MOLECULE
YUYJUX
    92    92     3
SMALL
NO_CHARGES
****
Generated from CSD

@<TRIPOS>ATOM
      1 N1         4.1058    0.2715    4.4028 N.am      1 RES1    0.0000
      2 C1         4.7052    1.2941    5.1574 C.2       1 RES1    0.0000
      3 N2         4.1973    1.4165    6.4038 N.am      1 RES1    0.0000
      4 H1         4.5637    2.0603    6.9161 H         1 RES1    0.0000
      5 C2         3.1419    0.6828    6.9710 C.2       1 RES1    0.0000
      6 C3         2.6354   -0.3967    6.1781 C.2       1 RES1    0.0000
      7 C4         3.1059   -0.5294    4.9425 C.2       1 RES1    0.0000
      8 H2         2.7445   -1.1976    4.4062 H         1 RES1    0.0000
      9 O1         5.5954    1.9557    4.6945 O.2       1 RES1    0.0000
     10 N3         2.8490    1.0881    8.1484 N.2       1 RES1    0.0000
     11 O2         1.7416    0.3024    8.7261 O.3       1 RES1    0.0000
     12 C5         1.7160   -1.0003    8.2887 C.3       1 RES1    0.0000
     13 H3         1.0033   -1.4669    8.7514 H         1 RES1    0.0000
     14 H4         2.5519   -1.4252    8.5368 H         1 RES1    0.0000
     15 C6         1.5190   -1.1645    6.8351 C.3       1 RES1    0.0000
     16 H5         0.6566   -0.8101    6.5661 H         1 RES1    0.0000
     17 H6         1.5608   -2.1020    6.5897 H         1 RES1    0.0000
     18 C7         4.4871    0.1105    2.9886 C.3       1 RES1    0.0000
     19 H7         5.2165    0.7289    2.7720 H         1 RES1    0.0000
     20 C8         4.8688   -1.2832    2.5743 C.3       1 RES1    0.0000
     21 H8         4.4141   -1.9422    3.1220 H         1 RES1    0.0000
     22 H9         5.8263   -1.4160    2.6519 H         1 RES1    0.0000
     23 C9         4.4269   -1.3846    1.1349 C.3       1 RES1    0.0000
     24 H10        4.2022   -2.3042    0.8808 H         1 RES1    0.0000
     25 C10        3.2393   -0.4715    1.0705 C.3       1 RES1    0.0000
     26 H11        3.3108    0.0574    0.2482 H         1 RES1    0.0000
     27 O3         3.3188    0.4379    2.1917 O.3       1 RES1    0.0000
     28 O4         5.5173   -0.8356    0.3197 O.3       1 RES1    0.0000
     29 C11        5.4899   -1.1553   -0.9969 C.2       1 RES1    0.0000
     30 O5         4.5615   -1.6615   -1.4855 O.2       1 RES1    0.0000
     31 C12        6.6616   -0.5587   -1.7015 C.3       1 RES1    0.0000
     32 H12        6.7331   -0.9369   -2.5806 H         1 RES1    0.0000
     33 H13        7.4624   -0.7467   -1.2051 H         1 RES1    0.0000
     34 H14        6.5440    0.3913   -1.7709 H         1 RES1    0.0000
     35 C13        1.9030   -1.1461    1.0663 C.3       1 RES1    0.0000
     36 H15        1.1984   -0.4801    1.0348 H         1 RES1    0.0000
     37 H16        1.8225   -1.7124    0.2839 H         1 RES1    0.0000
     38 O6         1.7715   -1.9395    2.2580 O.3       1 RES1    0.0000
     39 C14        0.9716   -2.9956    2.2904 C.2       1 RES1    0.0000
     40 O7         0.3800   -3.3614    1.2920 O.2       1 RES1    0.0000
     41 C15        0.8328   -3.6015    3.5880 C.3       1 RES1    0.0000
     42 H17        1.7016   -3.8112    3.9393 H         1 RES1    0.0000
     43 H18        0.3162   -4.4073    3.5123 H         1 RES1    0.0000
     44 H19        0.3878   -2.9913    4.1811 H         1 RES1    0.0000
     45 N4         1.7601    3.0747   15.0948 N.am      2 RES2    0.0000
     46 C16        2.6373    2.3036   15.8601 C.2       2 RES2    0.0000
     47 N5         3.5366    1.5726   15.1473 N.am      2 RES2    0.0000
     48 H20        4.1057    1.0448   15.6008 H         2 RES2    0.0000
     49 C17        3.7022    1.6327   13.7548 C.2       2 RES2    0.0000
     50 C18        2.8486    2.5410   13.0461 C.2       2 RES2    0.0000
     51 C19        1.9314    3.1967   13.7107 C.2       2 RES2    0.0000
     52 H21        1.3684    3.7689   13.2416 H         2 RES2    0.0000
     53 O8         2.4865    2.1898   17.0526 O.2       2 RES2    0.0000
     54 N6         4.6471    0.8703   13.3256 N.2       2 RES2    0.0000
     55 O9         5.0296    1.1878   11.9482 O.3       2 RES2    0.0000
     56 C20        4.2057    1.8322   11.1090 C.3       2 RES2    0.0000
     57 H22        3.8363    1.1624   10.5117 H         2 RES2    0.0000
     58 H23        4.7609    2.4120   10.5643 H         2 RES2    0.0000
     59 O10        4.6908    0.7321   11.8704 Du        3 SUP3    0.0000
     60 C21        3.6147    1.2724   11.2731 Du        3 SUP3    0.0000
     61 H24        2.8775    0.6644   11.4350 Du        3 SUP3    0.0000
     62 H25        3.7883    1.2447   10.3182 Du        3 SUP3    0.0000
     63 C22        3.1106    2.6239   11.5633 C.3       2 RES2    0.0000
     64 H26        2.3105    2.3453   11.0922 H         2 RES2    0.0000
     65 H27        3.2804    3.5500   11.3299 H         2 RES2    0.0000
     66 C23        0.6762    3.7613   15.7360 C.3       2 RES2    0.0000
     67 H28        0.6733    3.5597   16.6951 H         2 RES2    0.0000
     68 C24        0.5764    5.2385   15.5236 C.3       2 RES2    0.0000
     69 H29        0.9272    5.4867   14.6550 H         2 RES2    0.0000
     70 H30        1.0683    5.7181   16.2092 H         2 RES2    0.0000
     71 C25       -0.9026    5.5463   15.6140 C.3       2 RES2    0.0000
     72 H31       -1.1394    6.2893   15.0209 H         2 RES2    0.0000
     73 C26       -1.5853    4.2848   15.1850 C.3       2 RES2    0.0000
     74 H32       -2.2630    4.0323   15.8475 H         2 RES2    0.0000
     75 O11       -0.5514    3.2498   15.1126 O.3       2 RES2    0.0000
     76 O12       -1.1824    5.8867   17.0124 O.3       2 RES2    0.0000
     77 C27       -2.2471    6.7087   17.2482 C.2       2 RES2    0.0000
     78 O13       -3.0135    6.9640   16.4219 O.2       2 RES2    0.0000
     79 C28       -2.2345    7.0853   18.6721 C.3       2 RES2    0.0000
     80 H33       -2.7712    7.8711   18.8004 H         2 RES2    0.0000
     81 H34       -1.3325    7.2658   18.9476 H         2 RES2    0.0000
     82 H35       -2.5908    6.3652   19.1979 H         2 RES2    0.0000
     83 C29       -2.2143    4.3607   13.8137 C.3       2 RES2    0.0000
     84 H36       -2.5087    3.4768   13.5424 H         2 RES2    0.0000
     85 H37       -2.9906    4.9410   13.8453 H         2 RES2    0.0000
     86 O14       -1.2800    4.8641   12.8599 O.3       2 RES2    0.0000
     87 C30       -1.5544    5.8894   12.0723 C.2       2 RES2    0.0000
     88 O15       -2.6524    6.4128   12.1354 O.2       2 RES2    0.0000
     89 C31       -0.4902    6.2665   11.1784 C.3       2 RES2    0.0000
     90 H38       -0.5205    7.2138   11.0270 H         2 RES2    0.0000
     91 H39       -0.5950    5.8048   10.3435 H         2 RES2    0.0000
     92 H40        0.3543    6.0324   11.5696 H         2 RES2    0.0000
@<TRIPOS>BOND
     1    1    2 1
     2    2    3 1
     3    3    4 1
     4    5    3 1
     5    6    5 1
     6    7    1 1
     7    8    7 1
     8    9    2 2
     9   10    5 2
    10   11   10 1
    11   12   11 1
    12   13   12 1
    13   14   12 1
    14   15    6 1
    15   16   15 1
    16   17   15 1
    17   18    1 1
    18   19   18 1
    19   20   18 1
    20   21   20 1
    21   22   20 1
    22   23   20 1
    23   24   23 1
    24   25   23 1
    25   26   25 1
    26   27   18 1
    27   28   23 1
    28   29   28 1
    29   30   29 2
    30   31   29 1
    31   32   31 1
    32   33   31 1
    33   34   31 1
    34   35   25 1
    35   36   35 1
    36   37   35 1
    37   38   35 1
    38   39   38 1
    39   40   39 2
    40   41   39 1
    41   42   41 1
    42   43   41 1
    43   44   41 1
    44   45   46 1
    45   46   47 1
    46   47   48 1
    47   49   47 1
    48   50   49 1
    49   51   45 1
    50   52   51 1
    51   53   46 2
    52   54   49 2
    53   55   54 1
    54   56   55 1
    55   57   56 1
    56   58   56 1
    57   63   50 1
    58   64   63 1
    59   65   63 1
    60   66   45 1
    61   67   66 1
    62   68   66 1
    63   69   68 1
    64   70   68 1
    65   71   68 1
    66   72   71 1
    67   73   71 1
    68   74   73 1
    69   75   66 1
    70   76   71 1
    71   77   76 1
    72   78   77 2
    73   79   77 1
    74   80   79 1
    75   81   79 1
    76   82   79 1
    77   83   73 1
    78   84   83 1
    79   85   83 1
    80   86   83 1
    81   87   86 1
    82   88   87 2
    83   89   87 1
    84   90   89 1
    85   91   89 1
    86   92   89 1
    87    6    7 2
    88   12   15 1
    89   25   27 1
    90   50   51 2
    91   56   63 1
    92   73   75 1
@<TRIPOS>SUBSTRUCTURE
     1 RES1 1
     2 RES2 45
     3 SUP3 59

@<TRIPOS>CRYSIN
  14.6620    5.4190   21.4750  90.0000 101.6600  90.0000   4 1

