# MOL2 file generated by ConQuest
# Please check atom types

@<TRIPOS>MOLECULE
YUYJUY
   228   238     2
SMALL
NO_CHARGES
****
Generated from CSD

@<TRIPOS>ATOM
      1 C1        -0.1744    1.2439  -28.1991 C.ar      1 RES1    0.0000
      2 C2         1.1856    1.0818  -27.7527 C.ar      1 RES1    0.0000
      3 H1         1.4731    1.4190  -26.9107 H         1 RES1    0.0000
      4 C3         2.0637    0.4096  -28.6024 C.ar      1 RES1    0.0000
      5 H2         2.9618    0.2511  -28.3401 H         1 RES1    0.0000
      6 C4         1.5899   -0.0326  -29.8634 C.ar      1 RES1    0.0000
      7 C5         0.2855    0.1498  -30.2001 C.ar      1 RES1    0.0000
      8 H3        -0.0225   -0.2026  -31.0303 H         1 RES1    0.0000
      9 C6        -0.6027    0.8184  -29.4052 C.ar      1 RES1    0.0000
     10 H4        -1.4936    0.9776  -29.6911 H         1 RES1    0.0000
     11 C7         2.6088   -0.7243  -30.6074 C.2       1 RES1    0.0000
     12 C8         2.9826   -1.8980  -32.7181 C.3       1 RES1    0.0000
     13 H5         3.9062   -1.9364  -32.3383 H         1 RES1    0.0000
     14 C9         3.0123   -1.1672  -34.0496 C.3       1 RES1    0.0000
     15 H6         3.3580   -1.8003  -34.7310 H         1 RES1    0.0000
     16 H7         3.6759   -0.4356  -33.9752 H         1 RES1    0.0000
     17 C10        1.7164   -0.5615  -34.6017 C.3       1 RES1    0.0000
     18 H8         1.9457    0.0304  -35.3614 H         1 RES1    0.0000
     19 H9         1.3129    0.0036  -33.8968 H         1 RES1    0.0000
     20 C11        0.6350   -1.5912  -35.0873 C.3       1 RES1    0.0000
     21 C12        0.3579   -2.5688  -34.0339 C.3       1 RES1    0.0000
     22 H10        0.2794   -2.0919  -33.1567 H         1 RES1    0.0000
     23 C13        2.3509   -3.4552  -32.8121 C.3       1 RES1    0.0000
     24 C14        1.6025   -3.9726  -31.4846 C.3       1 RES1    0.0000
     25 H11        1.2923   -4.8886  -31.6217 H         1 RES1    0.0000
     26 H12        0.8368   -3.3893  -31.2966 H         1 RES1    0.0000
     27 H13        2.2251   -3.9451  -30.7288 H         1 RES1    0.0000
     28 C15        3.5794   -4.2540  -33.2742 C.3       1 RES1    0.0000
     29 H14        3.3375   -5.1983  -33.3721 H         1 RES1    0.0000
     30 H15        4.2962   -4.1672  -32.6124 H         1 RES1    0.0000
     31 H16        3.8890   -3.9053  -34.1357 H         1 RES1    0.0000
     32 C16       -0.8973   -3.4226  -34.2532 C.3       1 RES1    0.0000
     33 H17       -0.6499   -4.3756  -34.1475 H         1 RES1    0.0000
     34 H18       -1.2028   -3.2967  -35.1852 H         1 RES1    0.0000
     35 C17       -2.0751   -3.1158  -33.3055 C.3       1 RES1    0.0000
     36 H19       -2.4499   -3.9747  -32.9883 H         1 RES1    0.0000
     37 H20       -1.7232   -2.6332  -32.5184 H         1 RES1    0.0000
     38 C18       -3.2124   -2.2916  -33.9086 C.2       1 RES1    0.0000
     39 C19       -4.2824   -1.5941  -33.1411 C.3       1 RES1    0.0000
     40 C20       -4.8171   -0.3604  -33.8420 C.3       1 RES1    0.0000
     41 H21       -4.9786   -0.6397  -34.7858 H         1 RES1    0.0000
     42 C21       -3.7619    0.7301  -33.9125 C.3       1 RES1    0.0000
     43 H22       -4.2248    1.5926  -34.0574 H         1 RES1    0.0000
     44 H23       -3.3164    0.7822  -33.0314 H         1 RES1    0.0000
     45 C22       -2.7013    0.5984  -34.9542 C.3       1 RES1    0.0000
     46 H24       -2.4418    1.5029  -35.2596 H         1 RES1    0.0000
     47 H25       -3.0765    0.1136  -35.7334 H         1 RES1    0.0000
     48 C23       -1.4630   -0.1324  -34.4764 C.2       1 RES1    0.0000
     49 C24       -0.6182   -0.8459  -35.5886 C.3       1 RES1    0.0000
     50 H26       -1.2016   -1.4935  -36.0546 H         1 RES1    0.0000
     51 H27       -0.3348   -0.1664  -36.2504 H         1 RES1    0.0000
     52 C25        1.1686   -2.2649  -36.3835 C.3       1 RES1    0.0000
     53 H28        0.5116   -2.9154  -36.7046 H         1 RES1    0.0000
     54 H29        2.0135   -2.7207  -36.1916 H         1 RES1    0.0000
     55 H30        1.3152   -1.5796  -37.0688 H         1 RES1    0.0000
     56 C26       -3.7881   -1.4161  -31.6334 C.3       1 RES1    0.0000
     57 H31       -3.0687   -0.7511  -31.6021 H         1 RES1    0.0000
     58 H32       -3.4551   -2.2736  -31.2966 H         1 RES1    0.0000
     59 H33       -4.5372   -1.1136  -31.0773 H         1 RES1    0.0000
     60 C27       -5.3617   -2.6932  -33.0471 C.3       1 RES1    0.0000
     61 H34       -5.0106   -3.4414  -32.5028 H         1 RES1    0.0000
     62 H35       -5.5463   -3.0413  -33.9517 H         1 RES1    0.0000
     63 C28       -6.7053   -2.1911  -32.4127 C.3       1 RES1    0.0000
     64 H36       -6.5590   -1.9233  -31.4689 H         1 RES1    0.0000
     65 H37       -7.3832   -2.9139  -32.4283 H         1 RES1    0.0000
     66 C29       -7.2083   -0.9588  -33.2507 C.3       1 RES1    0.0000
     67 H38       -7.4524   -1.2547  -34.1749 H         1 RES1    0.0000
     68 C30       -6.1936    0.1715  -33.3212 C.3       1 RES1    0.0000
     69 C31       -6.1592    0.9255  -31.9349 C.3       1 RES1    0.0000
     70 H39       -7.0637    1.2207  -31.7039 H         1 RES1    0.0000
     71 H40       -5.5682    1.7041  -32.0015 H         1 RES1    0.0000
     72 H41       -5.8246    0.3184  -31.2418 H         1 RES1    0.0000
     73 C32       -6.7415    1.1223  -34.4020 C.3       1 RES1    0.0000
     74 H42       -6.1345    1.9031  -34.4412 H         1 RES1    0.0000
     75 H43       -6.6692    0.6549  -35.2714 H         1 RES1    0.0000
     76 C33       -8.1471    1.6520  -34.2884 C.3       1 RES1    0.0000
     77 H44       -8.2476    2.3995  -34.9307 H         1 RES1    0.0000
     78 H45       -8.2644    2.0261  -33.3799 H         1 RES1    0.0000
     79 C34       -9.2799    0.6476  -34.5430 C.3       1 RES1    0.0000
     80 H46      -10.1158    1.1643  -34.7270 H         1 RES1    0.0000
     81 C35       -9.5401   -0.2489  -33.4034 C.3       1 RES1    0.0000
     82 C36      -10.1504   -1.6520  -33.8068 C.3       1 RES1    0.0000
     83 H47       -9.5487   -2.1013  -34.4373 H         1 RES1    0.0000
     84 H48      -11.0249   -1.5181  -34.2297 H         1 RES1    0.0000
     85 H49      -10.2578   -2.2048  -33.0040 H         1 RES1    0.0000
     86 C37      -10.5369    0.3907  -32.3265 C.3       1 RES1    0.0000
     87 H50      -10.1859    1.2576  -32.0289 H         1 RES1    0.0000
     88 H51      -10.6140   -0.2098  -31.5551 H         1 RES1    0.0000
     89 H52      -11.4196    0.5174  -32.7299 H         1 RES1    0.0000
     90 C38       -9.1612    0.4544  -36.8613 C.2       1 RES1    0.0000
     91 C39       -9.0384   -0.4378  -38.0635 C.ar      1 RES1    0.0000
     92 C40       -9.1385   -1.8893  -37.8246 C.ar      1 RES1    0.0000
     93 H53       -9.2295   -2.2309  -36.9435 H         1 RES1    0.0000
     94 C41       -9.0914   -2.7576  -38.9328 C.ar      1 RES1    0.0000
     95 H54       -9.1102   -3.7027  -38.8349 H         1 RES1    0.0000
     96 C42       -9.0192   -2.1730  -40.1468 C.ar      1 RES1    0.0000
     97 C43       -8.9226   -0.8003  -40.4170 C.ar      1 RES1    0.0000
     98 H55       -8.8158   -0.4711  -41.3020 H         1 RES1    0.0000
     99 C44       -8.9882    0.0528  -39.3205 C.ar      1 RES1    0.0000
    100 H56       -9.0011    0.9935  -39.4536 H         1 RES1    0.0000
    101 C45       -8.1972    0.3256  -22.2781 C.ar      2 RES2    0.0000
    102 C46       -7.1235    0.9769  -22.8107 C.ar      2 RES2    0.0000
    103 H57       -6.7197    1.7142  -22.3642 H         2 RES2    0.0000
    104 C47       -6.6425    0.5217  -24.0520 C.ar      2 RES2    0.0000
    105 H58       -5.8617    0.8929  -24.4436 H         2 RES2    0.0000
    106 C48       -7.3809   -0.5347  -24.7060 C.ar      2 RES2    0.0000
    107 C49       -8.4703   -1.1143  -24.1813 C.ar      2 RES2    0.0000
    108 H59       -8.9257   -1.8083  -24.6434 H         2 RES2    0.0000
    109 C50       -8.9259   -0.6512  -22.8968 C.ar      2 RES2    0.0000
    110 H60       -9.7079   -1.0116  -22.4974 H         2 RES2    0.0000
    111 C51       -6.8824   -0.9168  -26.0374 C.2       2 RES2    0.0000
    112 C52       -7.3947   -2.1426  -28.1521 C.3       2 RES2    0.0000
    113 H61       -6.5524   -1.6976  -28.4614 H         2 RES2    0.0000
    114 C53       -8.5809   -1.6939  -28.9509 C.3       2 RES2    0.0000
    115 H62       -8.5130   -2.1361  -29.8360 H         2 RES2    0.0000
    116 H63       -8.4677   -0.7236  -29.1115 H         2 RES2    0.0000
    117 C54       -9.9952   -1.8944  -28.4693 C.3       2 RES2    0.0000
    118 H64      -10.0528   -1.5268  -27.5529 H         2 RES2    0.0000
    119 H65      -10.5875   -1.3437  -29.0410 H         2 RES2    0.0000
    120 C55      -10.5462   -3.2649  -28.4419 C.3       2 RES2    0.0000
    121 C56       -9.6185   -4.1564  -27.5921 C.3       2 RES2    0.0000
    122 H66       -9.3710   -3.6679  -26.7541 H         2 RES2    0.0000
    123 C57       -7.2163   -3.6889  -28.0385 C.3       2 RES2    0.0000
    124 C58       -6.7000   -4.1585  -26.7032 C.3       2 RES2    0.0000
    125 H67       -6.6390   -5.1361  -26.7032 H         2 RES2    0.0000
    126 H68       -7.3139   -3.8691  -25.9944 H         2 RES2    0.0000
    127 H69       -5.8130   -3.7750  -26.5426 H         2 RES2    0.0000
    128 C59       -6.2160   -4.0319  -29.1272 C.3       2 RES2    0.0000
    129 H70       -6.0546   -4.9986  -29.1311 H         2 RES2    0.0000
    130 H71       -5.3726   -3.5616  -28.9588 H         2 RES2    0.0000
    131 H72       -6.5730   -3.7577  -30.0004 H         2 RES2    0.0000
    132 C60      -10.7162   -3.8344  -29.9025 C.3       2 RES2    0.0000
    133 H73       -9.8346   -3.9255  -30.3215 H         2 RES2    0.0000
    134 H74      -11.2661   -3.2193  -30.4312 H         2 RES2    0.0000
    135 H75      -11.1522   -4.7114  -29.8634 H         2 RES2    0.0000
    136 C61      -10.1825   -5.5695  -27.2122 C.3       2 RES2    0.0000
    137 H76       -9.4936   -6.2562  -27.3963 H         2 RES2    0.0000
    138 H77      -10.9700   -5.7678  -27.7801 H         2 RES2    0.0000
    139 C62      -10.6016   -5.6477  -25.6968 C.3       2 RES2    0.0000
    140 H78      -10.2763   -6.5088  -25.3326 H         2 RES2    0.0000
    141 H79      -10.1319   -4.9255  -25.2073 H         2 RES2    0.0000
    142 C63      -12.0587   -5.5377  -25.3952 C.2       2 RES2    0.0000
    143 C64      -12.5063   -5.3025  -23.9463 C.3       2 RES2    0.0000
    144 C65      -13.8553   -4.5529  -23.9346 C.3       2 RES2    0.0000
    145 H80      -14.4106   -4.9711  -24.6551 H         2 RES2    0.0000
    146 C66      -13.7286   -3.0435  -24.3105 C.3       2 RES2    0.0000
    147 H81      -12.9639   -2.6571  -23.8132 H         2 RES2    0.0000
    148 H82      -14.5464   -2.5731  -24.0168 H         2 RES2    0.0000
    149 C67      -13.5149   -2.7634  -25.8651 C.3       2 RES2    0.0000
    150 H83      -14.0731   -3.4125  -26.3625 H         2 RES2    0.0000
    151 H84      -13.8791   -1.8633  -26.0570 H         2 RES2    0.0000
    152 C68      -12.1750   -2.8191  -26.4330 C.2       2 RES2    0.0000
    153 C69      -11.9679   -3.1650  -27.8271 C.3       2 RES2    0.0000
    154 H85      -12.4669   -2.5008  -28.3675 H         2 RES2    0.0000
    155 H86      -12.4082   -4.0391  -27.9759 H         2 RES2    0.0000
    156 C70      -11.3602   -4.5674  -23.1514 C.3       2 RES2    0.0000
    157 H87      -10.5358   -5.0934  -23.2062 H         2 RES2    0.0000
    158 H88      -11.6246   -4.4697  -22.2115 H         2 RES2    0.0000
    159 H89      -11.2096   -3.6810  -23.5390 H         2 RES2    0.0000
    160 C71      -12.7315   -6.7367  -23.4176 C.3       2 RES2    0.0000
    161 H90      -13.2911   -7.2295  -24.0677 H         2 RES2    0.0000
    162 H91      -11.8561   -7.1962  -23.3667 H         2 RES2    0.0000
    163 C72      -13.3905   -6.8127  -22.0666 C.3       2 RES2    0.0000
    164 H92      -12.8363   -6.3431  -21.3931 H         2 RES2    0.0000
    165 H93      -13.4849   -7.7577  -21.7886 H         2 RES2    0.0000
    166 C73      -14.7703   -6.1528  -22.1606 C.3       2 RES2    0.0000
    167 H94      -15.3425   -6.6745  -22.7950 H         2 RES2    0.0000
    168 C74      -14.6679   -4.6643  -22.6619 C.3       2 RES2    0.0000
    169 C75      -16.1903   -4.3011  -22.9791 C.3       2 RES2    0.0000
    170 H95      -16.2145   -3.3372  -23.2023 H         2 RES2    0.0000
    171 H96      -16.4362   -4.7902  -23.8053 H         2 RES2    0.0000
    172 C76      -17.3182   -4.5522  -21.9609 C.3       2 RES2    0.0000
    173 H97      -17.0565   -4.1498  -21.0955 H         2 RES2    0.0000
    174 H98      -18.1339   -4.0854  -22.2742 H         2 RES2    0.0000
    175 C77      -17.6478   -5.9856  -21.7377 C.3       2 RES2    0.0000
    176 H99      -18.5663   -6.0370  -21.3422 H         2 RES2    0.0000
    177 C78      -16.6964   -6.6897  -20.8018 C.3       2 RES2    0.0000
    178 C79      -16.7573   -8.1890  -20.9310 C.3       2 RES2    0.0000
    179 H100     -16.5047   -8.4502  -21.8395 H         2 RES2    0.0000
    180 H101     -17.6697   -8.4958  -20.7469 H         2 RES2    0.0000
    181 H102     -16.1389   -8.5978  -20.2888 H         2 RES2    0.0000
    182 C80      -17.0729   -6.3677  -19.3098 C.3       2 RES2    0.0000
    183 H103     -17.1174   -5.3959  -19.1884 H         2 RES2    0.0000
    184 H104     -16.3913   -6.7411  -18.7145 H         2 RES2    0.0000
    185 H105     -17.9432   -6.7642  -19.1022 H         2 RES2    0.0000
    186 C81      -18.8323   -6.9466  -23.5704 C.2       2 RES2    0.0000
    187 C82      -18.6715   -7.7346  -24.9175 C.ar      2 RES2    0.0000
    188 C83      -17.4364   -8.3366  -25.2386 C.ar      2 RES2    0.0000
    189 H106     -16.7252   -8.2671  -24.6159 H         2 RES2    0.0000
    190 C84      -17.2068   -9.0175  -26.4095 C.ar      2 RES2    0.0000
    191 H107     -16.3923   -9.4350  -26.6601 H         2 RES2    0.0000
    192 C85      -18.3873   -8.9907  -27.1692 C.ar      2 RES2    0.0000
    193 C86      -19.5690   -8.4661  -26.8755 C.ar      2 RES2    0.0000
    194 H108     -20.2979   -8.5399  -27.4824 H         2 RES2    0.0000
    195 C87      -19.7080   -7.8438  -25.7320 C.ar      2 RES2    0.0000
    196 H109     -20.5466   -7.4697  -25.4892 H         2 RES2    0.0000
    197 C88      -14.1937   -3.8061  -21.4244 C.3       2 RES2    0.0000
    198 H110     -13.2675   -4.0348  -21.2012 H         2 RES2    0.0000
    199 H111     -14.7701   -3.9979  -20.6530 H         2 RES2    0.0000
    200 H112     -14.2524   -2.8532  -21.6437 H         2 RES2    0.0000
    201 N1        -1.1714    1.9465  -27.2710 N.pl3     1 RES1    0.0000
    202 N2        -9.1012   -3.0999  -41.3490 N.pl3     1 RES1    0.0000
    203 N3        -8.7431    0.8502  -20.9467 N.pl3     2 RES2    0.0000
    204 N4       -18.1357   -9.7194  -28.5554 N.pl3     2 RES2    0.0000
    205 O1        -0.7031    2.3430  -26.1471 O.2       1 RES1    0.0000
    206 O2        -2.2540    2.0449  -27.6626 O.2       1 RES1    0.0000
    207 O3         3.7257   -0.9855  -30.3372 O.2       1 RES1    0.0000
    208 O4         2.1139   -1.1491  -31.8096 O.3       1 RES1    0.0000
    209 O5        -9.1556   -4.2526  -41.0670 O.2       1 RES1    0.0000
    210 O6        -9.0800   -2.5717  -42.4533 O.2       1 RES1    0.0000
    211 O7        -9.3943    1.6614  -37.0257 O.2       1 RES1    0.0000
    212 O8        -8.9905   -0.1208  -35.6747 O.3       1 RES1    0.0000
    213 O9        -8.3824   -0.5550  -32.5419 O.3       1 RES1    0.0000
    214 O10       -3.3192   -2.3568  -35.1578 O.2       1 RES1    0.0000
    215 O11       -1.1018   -0.1158  -33.3173 O.2       1 RES1    0.0000
    216 O12        1.4987   -3.5399  -33.9595 O.3       1 RES1    0.0000
    217 O13       -8.0947    1.6397  -20.3984 O.2       2 RES2    0.0000
    218 O14       -9.8452    0.4378  -20.5668 O.2       2 RES2    0.0000
    219 O15       -5.8525   -0.5275  -26.5387 O.2       2 RES2    0.0000
    220 O16       -7.7752   -1.7077  -26.6992 O.3       2 RES2    0.0000
    221 O17       -8.4171   -4.3901  -28.3776 O.3       2 RES2    0.0000
    222 O18      -11.1751   -2.5116  -25.6877 O.2       2 RES2    0.0000
    223 O19      -12.9109   -5.7736  -26.2411 O.2       2 RES2    0.0000
    224 O20      -15.3383   -6.2114  -20.8605 O.3       2 RES2    0.0000
    225 O21      -17.6454   -6.7382  -22.9595 O.3       2 RES2    0.0000
    226 O22      -19.8594   -6.5717  -23.1514 O.2       2 RES2    0.0000
    227 O23      -17.0195  -10.2216  -28.7551 O.2       2 RES2    0.0000
    228 O24      -19.1289   -9.7802  -29.2681 O.2       2 RES2    0.0000
@<TRIPOS>BOND
     1    1    2 ar
     2    2    3 1
     3    4    2 ar
     4    5    4 1
     5    6    4 ar
     6    7    6 ar
     7    8    7 1
     8    9    1 ar
     9   10    9 1
    10   11    6 1
    11   12   13 1
    12   14   12 1
    13   15   14 1
    14   16   14 1
    15   17   14 1
    16   18   17 1
    17   19   17 1
    18   20   17 1
    19   21   20 1
    20   22   21 1
    21   23   12 1
    22   24   23 1
    23   25   24 1
    24   26   24 1
    25   27   24 1
    26   28   23 1
    27   29   28 1
    28   30   28 1
    29   31   28 1
    30   32   21 1
    31   33   32 1
    32   34   32 1
    33   35   32 1
    34   36   35 1
    35   37   35 1
    36   38   35 1
    37   39   38 1
    38   40   39 1
    39   41   40 1
    40   42   40 1
    41   43   42 1
    42   44   42 1
    43   45   42 1
    44   46   45 1
    45   47   45 1
    46   48   45 1
    47   49   20 1
    48   50   49 1
    49   51   49 1
    50   52   20 1
    51   53   52 1
    52   54   52 1
    53   55   52 1
    54   56   39 1
    55   57   56 1
    56   58   56 1
    57   59   56 1
    58   60   39 1
    59   61   60 1
    60   62   60 1
    61   63   60 1
    62   64   63 1
    63   65   63 1
    64   66   63 1
    65   67   66 1
    66   68   40 1
    67   69   68 1
    68   70   69 1
    69   71   69 1
    70   72   69 1
    71   73   68 1
    72   74   73 1
    73   75   73 1
    74   76   73 1
    75   77   76 1
    76   78   76 1
    77   79   76 1
    78   80   79 1
    79   81   79 1
    80   82   81 1
    81   83   82 1
    82   84   82 1
    83   85   82 1
    84   86   81 1
    85   87   86 1
    86   88   86 1
    87   89   86 1
    88   90   91 1
    89   91   92 ar
    90   92   93 1
    91   94   92 ar
    92   95   94 1
    93   96   94 ar
    94   97   96 ar
    95   98   97 1
    96   99   91 ar
    97  100   99 1
    98  101  102 ar
    99  102  103 1
   100  104  102 ar
   101  105  104 1
   102  106  104 ar
   103  107  106 ar
   104  108  107 1
   105  109  101 ar
   106  110  109 1
   107  111  106 1
   108  112  113 1
   109  114  112 1
   110  115  114 1
   111  116  114 1
   112  117  114 1
   113  118  117 1
   114  119  117 1
   115  120  117 1
   116  121  120 1
   117  122  121 1
   118  123  112 1
   119  124  123 1
   120  125  124 1
   121  126  124 1
   122  127  124 1
   123  128  123 1
   124  129  128 1
   125  130  128 1
   126  131  128 1
   127  132  120 1
   128  133  132 1
   129  134  132 1
   130  135  132 1
   131  136  121 1
   132  137  136 1
   133  138  136 1
   134  139  136 1
   135  140  139 1
   136  141  139 1
   137  142  139 1
   138  143  142 1
   139  144  143 1
   140  145  144 1
   141  146  144 1
   142  147  146 1
   143  148  146 1
   144  149  146 1
   145  150  149 1
   146  151  149 1
   147  152  149 1
   148  153  120 1
   149  154  153 1
   150  155  153 1
   151  156  143 1
   152  157  156 1
   153  158  156 1
   154  159  156 1
   155  160  143 1
   156  161  160 1
   157  162  160 1
   158  163  160 1
   159  164  163 1
   160  165  163 1
   161  166  163 1
   162  167  166 1
   163  168  144 1
   164  169  168 1
   165  170  169 1
   166  171  169 1
   167  172  169 1
   168  173  172 1
   169  174  172 1
   170  175  172 1
   171  176  175 1
   172  177  175 1
   173  178  177 1
   174  179  178 1
   175  180  178 1
   176  181  178 1
   177  182  177 1
   178  183  182 1
   179  184  182 1
   180  185  182 1
   181  186  187 1
   182  187  188 ar
   183  188  189 1
   184  190  188 ar
   185  191  190 1
   186  192  190 ar
   187  193  192 ar
   188  194  193 1
   189  195  187 ar
   190  196  195 1
   191  197  168 1
   192  198  197 1
   193  199  197 1
   194  200  197 1
   195  201    1 1
   196  202   96 1
   197  203  101 1
   198  204  192 1
   199  205  201 2
   200  206  201 2
   201  207   11 2
   202  208   11 1
   203  209  202 2
   204  210  202 2
   205  211   90 2
   206  212   79 1
   207  213   66 1
   208  214   38 2
   209  215   48 2
   210  216   21 1
   211  217  203 2
   212  218  203 2
   213  219  111 2
   214  220  111 1
   215  221  121 1
   216  222  152 2
   217  223  142 2
   218  224  166 1
   219  225  175 1
   220  226  186 2
   221  227  204 2
   222  228  204 2
   223    7    9 ar
   224   12  208 1
   225   23  216 1
   226   48   49 1
   227   66   68 1
   228   81  213 1
   229   90  212 1
   230   97   99 ar
   231  107  109 ar
   232  112  220 1
   233  123  221 1
   234  152  153 1
   235  166  168 1
   236  177  224 1
   237  186  225 1
   238  193  195 ar
@<TRIPOS>SUBSTRUCTURE
     1 RES1 1
     2 RES2 101

@<TRIPOS>CRYSIN
  16.9240    7.2360   39.6400  90.0000  98.9260  90.0000   4 1

