# MOL2 file generated by ConQuest
# Please check atom types

@<TRIPOS>MOLECULE
YUYSIU
    26    27     1
SMALL
NO_CHARGES
****
Generated from CSD

@<TRIPOS>ATOM
      1 O1         2.8551    2.7526    6.4646 O.2       1 RES1    0.0000
      2 O2         2.8924    0.9035    7.5838 O.2       1 RES1    0.0000
      3 O3        10.2296   -3.9838    5.2263 O.2       1 RES1    0.0000
      4 O4         9.2704   -3.5076    7.1220 O.2       1 RES1    0.0000
      5 N1         5.1971    0.1226    6.1395 N.pl3     1 RES1    0.0000
      6 N2         6.2134    1.3892    4.5979 N.2       1 RES1    0.0000
      7 N3         3.3413    1.6681    6.7483 N.pl3     1 RES1    0.0000
      8 N4         7.8837   -0.9294    3.8204 N.pl3     1 RES1    0.0000
      9 N5         7.6883   -1.6403    5.9242 N.2       1 RES1    0.0000
     10 N6         9.4329   -3.3438    5.9179 N.pl3     1 RES1    0.0000
     11 C1         4.9185   -1.0031    7.0371 C.3       1 RES1    0.0000
     12 C2         6.2124    0.2280    5.2522 C.2       1 RES1    0.0000
     13 C3         5.1518    2.0810    5.0824 C.2       1 RES1    0.0000
     14 C4         4.5278    1.3203    6.0246 C.2       1 RES1    0.0000
     15 C5         7.6950   -0.1907    2.5552 C.3       1 RES1    0.0000
     16 C6         7.2315   -0.7818    5.0245 C.2       1 RES1    0.0000
     17 C7         8.6444   -2.3244    5.2584 C.2       1 RES1    0.0000
     18 C8         8.7988   -1.9267    3.9767 C.2       1 RES1    0.0000
     19 H1         4.8710    3.1991    4.8930 H         1 RES1    0.0000
     20 H2         9.3863   -2.1327    3.1743 H         1 RES1    0.0000
     21 H3         5.4436   -1.8520    6.6116 H         1 RES1    0.0000
     22 H4         3.9814   -1.2034    7.0951 H         1 RES1    0.0000
     23 H5         5.2392   -0.8460    7.9306 H         1 RES1    0.0000
     24 H6         8.3967   -0.5423    1.7383 H         1 RES1    0.0000
     25 H7         6.6976   -0.2798    2.3046 H         1 RES1    0.0000
     26 H8         7.8789    0.7579    2.6277 H         1 RES1    0.0000
@<TRIPOS>BOND
     1    1    7 2
     2    2    7 2
     3    3   10 2
     4    4   10 2
     5    5   11 1
     6    6   12 2
     7    7   14 1
     8    8   15 1
     9    9   16 2
    10   10   17 1
    11   11   21 1
    12   12    5 1
    13   13    6 1
    14   14    5 1
    15   15   24 1
    16   16    8 1
    17   17    9 1
    18   18    8 1
    19   19   13 1
    20   20   18 1
    21   22   11 1
    22   23   11 1
    23   25   15 1
    24   26   15 1
    25   12   16 1
    26   13   14 2
    27   17   18 2
@<TRIPOS>SUBSTRUCTURE
     1 RES1 1

@<TRIPOS>CRYSIN
  10.8090    9.5810   10.9860  90.0000 109.5400  90.0000  14 1

