# MOL2 file generated by ConQuest
# Please check atom types

@<TRIPOS>MOLECULE
YUYYIA
    55    48     2
SMALL
NO_CHARGES
****
Generated from CSD

@<TRIPOS>ATOM
      1 C1        -0.0572   12.5472    7.3895 C.3       1 RES1    0.0000
      2 H1         0.7452   12.0426    7.1658 H         1 RES1    0.0000
      3 C2        -1.2753   11.7795    6.8747 C.3       1 RES1    0.0000
      4 H2        -2.0663   11.9349    7.4311 H         1 RES1    0.0000
      5 C3        -1.4429   12.3672    5.4580 C.3       1 RES1    0.0000
      6 H3        -2.3545   12.3380    5.1719 H         1 RES1    0.0000
      7 C4        -0.9313   13.7887    5.5501 C.3       1 RES1    0.0000
      8 H4        -0.4484   13.9902    4.7729 H         1 RES1    0.0000
      9 O1        -0.0198   13.7979    6.6926 O.3       1 RES1    0.0000
     10 C5        -1.9930   14.8302    5.7501 C.3       1 RES1    0.0000
     11 H5        -1.5762   15.6917    5.8916 H         1 RES1    0.0000
     12 H6        -2.5390   14.8902    4.9541 H         1 RES1    0.0000
     13 O2        -2.8181   14.5148    6.8668 O.3       1 RES1    0.0000
     14 H7        -3.5680   14.4317    6.6262 H         1 RES1    0.0000
     15 C6        -2.1905    9.5858    6.4926 C.3       1 RES1    0.0000
     16 H8        -1.9517    8.6781    6.3272 H         1 RES1    0.0000
     17 H9        -2.6530    9.9350    5.7362 H         1 RES1    0.0000
     18 H10       -2.7547    9.6304    7.2589 H         1 RES1    0.0000
     19 N1        -0.9822   10.3704    6.7302 N.3       1 RES1    0.0000
     20 O3        -0.1589   10.3411    5.5243 O.3       1 RES1    0.0000
     21 C7        -0.5720   11.4103    4.6511 C.3       1 RES1    0.0000
     22 H11        0.2722   11.9241    4.3620 H         1 RES1    0.0000
     23 C8        -1.2656   10.9088    3.3898 C.2       1 RES1    0.0000
     24 O4        -2.0602   11.5703    2.8136 O.2       1 RES1    0.0000
     25 O5        -0.8572    9.7242    3.0206 O.3       1 RES1    0.0000
     26 C9        -1.3593    9.2181    1.7118 C.3       1 RES1    0.0000
     27 H12       -2.2733    9.4842    1.6048 H         1 RES1    0.0000
     28 H13       -1.3276    8.2612    1.7157 H         1 RES1    0.0000
     29 C10       -0.5715    9.7273    0.5851 C.3       1 RES1    0.0000
     30 H14       -0.7157   10.6719    0.4940 H         1 RES1    0.0000
     31 H15       -0.8423    9.2827   -0.2208 H         1 RES1    0.0000
     32 H16        0.3603    9.5596    0.7455 H         1 RES1    0.0000
     33 O6        -2.3913   11.0103    3.0493 Du        2 SUP2    0.0000
     34 O7        -0.2886   10.3919    2.6582 Du        2 SUP2    0.0000
     35 C11       -0.5754   10.0704    1.2643 Du        2 SUP2    0.0000
     36 H17        0.2487    9.8227    0.8168 Du        2 SUP2    0.0000
     37 H18       -0.9318   10.8565    0.8217 Du        2 SUP2    0.0000
     38 C12       -1.5351    8.9689    1.1484 Du        2 SUP2    0.0000
     39 H19       -1.2154    8.2166    1.6434 Du        2 SUP2    0.0000
     40 H20       -1.6366    8.7381    0.2257 Du        2 SUP2    0.0000
     41 H21       -2.3845    9.2535    1.5048 Du        2 SUP2    0.0000
     42 N2        -0.0448   12.8318    8.8171 N.am      1 RES1    0.0000
     43 C13        0.9760   12.2826    9.5844 C.2       1 RES1    0.0000
     44 O8         1.8222   11.5380    9.1448 O.2       1 RES1    0.0000
     45 N3         0.9566   12.6764   10.8992 N.am      1 RES1    0.0000
     46 H22        1.5785   12.3334   11.4100 H         1 RES1    0.0000
     47 C14        0.0811   13.5472   11.5169 C.2       1 RES1    0.0000
     48 O9         0.2359   13.8179   12.6970 O.2       1 RES1    0.0000
     49 C15       -0.9745   14.0641   10.6586 C.2       1 RES1    0.0000
     50 C16       -1.9780   15.0056   11.2635 C.3       1 RES1    0.0000
     51 H23       -1.4966   15.8040   11.6585 H         1 RES1    0.0000
     52 H24       -2.4926   14.5271   11.9922 H         1 RES1    0.0000
     53 H25       -2.6206   15.3194   10.5477 H         1 RES1    0.0000
     54 C17       -0.9815   13.6795    9.3805 C.2       1 RES1    0.0000
     55 H26       -1.7184   14.0302    8.7865 H         1 RES1    0.0000
@<TRIPOS>BOND
     1    1    2 1
     2    3    1 1
     3    4    3 1
     4    5    3 1
     5    6    5 1
     6    7    5 1
     7    8    7 1
     8    9    1 1
     9   10    7 1
    10   11   10 1
    11   12   10 1
    12   13   10 1
    13   14   13 1
    14   15   16 1
    15   17   15 1
    16   18   15 1
    17   19    3 1
    18   20   19 1
    19   21    5 1
    20   22   21 1
    21   23   21 1
    22   24   23 2
    23   25   23 1
    24   26   25 1
    25   27   26 1
    26   28   26 1
    27   29   26 1
    28   30   29 1
    29   31   29 1
    30   32   29 1
    31   42    1 1
    32   43   42 1
    33   44   43 2
    34   45   43 1
    35   46   45 1
    36   47   45 1
    37   48   47 2
    38   49   47 1
    39   50   49 1
    40   51   50 1
    41   52   50 1
    42   53   50 1
    43   54   42 1
    44   55   54 1
    45    7    9 1
    46   15   19 1
    47   20   21 1
    48   49   54 2
@<TRIPOS>SUBSTRUCTURE
     1 RES1 1
     2 SUP2 33

@<TRIPOS>CRYSIN
   5.5020   15.3840    9.9180  90.0000  93.4300  90.0000   4 1

