# MOL2 file generated by ConQuest
# Please check atom types

@<TRIPOS>MOLECULE
ZABMIB
    56    58     2
SMALL
NO_CHARGES
****
Generated from CSD

@<TRIPOS>ATOM
      1 C1         1.9464    6.4197    1.5312 C.ar      1 RES1    0.0000
      2 C2         2.1830    6.2744    0.1782 C.ar      1 RES1    0.0000
      3 H1         1.6816    5.6568   -0.3419 H         1 RES1    0.0000
      4 C3         3.1718    7.0540   -0.3998 C.ar      1 RES1    0.0000
      5 H2         3.3578    6.9698   -1.3273 H         1 RES1    0.0000
      6 C4         3.8894    7.9546    0.3655 C.ar      1 RES1    0.0000
      7 C5         3.6400    8.0806    1.7334 C.ar      1 RES1    0.0000
      8 H3         4.1418    8.6947    2.2562 H         1 RES1    0.0000
      9 C6         2.6602    7.3071    2.3234 C.ar      1 RES1    0.0000
     10 H4         2.4783    7.3805    3.2526 H         1 RES1    0.0000
     11 N1         0.8865    5.6308    2.1557 N.pl3     1 RES1    0.0000
     12 N2         4.8732    8.7099   -0.3532 N.2       1 RES1    0.0000
     13 O1         0.3908    4.7216    1.5040 O.2       1 RES1    0.0000
     14 O2         0.5421    5.9242    3.2928 O.2       1 RES1    0.0000
     15 C7         4.4285    3.0223    4.5067 C.ar      2 RES2    0.0000
     16 C8         4.8510    2.0600    3.6005 C.ar      2 RES2    0.0000
     17 H5         4.4741    2.0082    2.7305 H         2 RES2    0.0000
     18 C9         5.8322    1.1858    4.0024 C.ar      2 RES2    0.0000
     19 H6         6.1420    0.5188    3.3997 H         2 RES2    0.0000
     20 C10        6.3746    1.2635    5.2735 C.ar      2 RES2    0.0000
     21 C11        4.9402    3.1260    5.7867 C.ar      2 RES2    0.0000
     22 H7         4.6273    3.7954    6.3839 H         2 RES2    0.0000
     23 C12        5.9234    2.2265    6.1763 C.ar      2 RES2    0.0000
     24 H8         6.2873    2.2668    7.0530 H         2 RES2    0.0000
     25 N3         3.3846    3.9626    4.0780 N.pl3     2 RES2    0.0000
     26 N4         7.3953    0.2869    5.5582 N.2       2 RES2    0.0000
     27 O3         2.7924    3.7239    3.0335 O.2       2 RES2    0.0000
     28 O4         3.1698    4.9420    4.7827 O.2       2 RES2    0.0000
     29 C1A        8.4067   11.8390   -1.5312 C.ar      1 RES1    0.0000
     30 C2A        8.1701   11.9843   -0.1782 C.ar      1 RES1    0.0000
     31 H1A        8.6715   12.6019    0.3419 H         1 RES1    0.0000
     32 C3A        7.1813   11.2047    0.3998 C.ar      1 RES1    0.0000
     33 H2A        6.9953   11.2890    1.3273 H         1 RES1    0.0000
     34 C4A        6.4637   10.3041   -0.3655 C.ar      1 RES1    0.0000
     35 C5A        6.7131   10.1782   -1.7334 C.ar      1 RES1    0.0000
     36 H3A        6.2113    9.5640   -2.2562 H         1 RES1    0.0000
     37 C6A        7.6929   10.9516   -2.3234 C.ar      1 RES1    0.0000
     38 H4A        7.8748   10.8782   -3.2526 H         1 RES1    0.0000
     39 N1A        9.4666   12.6279   -2.1557 N.pl3     1 RES1    0.0000
     40 N2A        5.4799    9.5488    0.3532 N.2       1 RES1    0.0000
     41 O1A        9.9623   13.5371   -1.5040 O.2       1 RES1    0.0000
     42 O2A        9.8110   12.3346   -3.2928 O.2       1 RES1    0.0000
     43 C7A       10.8489   -2.3433    7.7488 C.ar      2 RES2    0.0000
     44 C8A       10.4264   -1.3811    8.6549 C.ar      2 RES2    0.0000
     45 H5A       10.8033   -1.3292    9.5250 H         2 RES2    0.0000
     46 C9A        9.4452   -0.5068    8.2531 C.ar      2 RES2    0.0000
     47 H6A        9.1354    0.1601    8.8558 H         2 RES2    0.0000
     48 C10A       8.9028   -0.5846    6.9820 C.ar      2 RES2    0.0000
     49 C11A      10.3372   -2.4471    6.4688 C.ar      2 RES2    0.0000
     50 H7A       10.6501   -3.1165    5.8716 H         2 RES2    0.0000
     51 C12A       9.3541   -1.5475    6.0792 C.ar      2 RES2    0.0000
     52 H8A        8.9901   -1.5879    5.2025 H         2 RES2    0.0000
     53 N3A       11.8928   -3.2836    8.1775 N.pl3     2 RES2    0.0000
     54 N4A        7.8821    0.3920    6.6973 N.2       2 RES2    0.0000
     55 O3A       12.4850   -3.0450    9.2220 O.2       2 RES2    0.0000
     56 O4A       12.1076   -4.2631    7.4728 O.2       2 RES2    0.0000
@<TRIPOS>BOND
     1    1    2 ar
     2    2    3 1
     3    4    2 ar
     4    5    4 1
     5    6    4 ar
     6    7    6 ar
     7    8    7 1
     8    9    1 ar
     9   10    9 1
    10   11    1 1
    11   12    6 1
    12   13   11 2
    13   14   11 2
    14   15   16 ar
    15   16   17 1
    16   18   16 ar
    17   19   18 1
    18   20   18 ar
    19   21   15 ar
    20   22   21 1
    21   23   20 ar
    22   24   23 1
    23   25   15 1
    24   26   20 1
    25   27   25 2
    26   28   25 2
    27   29   30 ar
    28   30   31 1
    29   32   30 ar
    30   33   32 1
    31   34   32 ar
    32   35   34 ar
    33   36   35 1
    34   37   29 ar
    35   38   37 1
    36   39   29 1
    37   40   12 2
    38   41   39 2
    39   42   39 2
    40   43   44 ar
    41   44   45 1
    42   46   44 ar
    43   47   46 1
    44   48   46 ar
    45   49   43 ar
    46   50   49 1
    47   51   48 ar
    48   52   51 1
    49   53   43 1
    50   54   26 2
    51   55   53 2
    52   56   53 2
    53    7    9 ar
    54   21   23 ar
    55   34   40 1
    56   35   37 ar
    57   48   54 1
    58   49   51 ar
@<TRIPOS>SUBSTRUCTURE
     1 RES1 1
     2 RES2 15

@<TRIPOS>CRYSIN
   4.9571    9.1320   12.2810  86.7860  88.1050  88.6230   2 1

