# MOL2 file generated by ConQuest
# Please check atom types

@<TRIPOS>MOLECULE
ZACCOV
    48    50     1
SMALL
NO_CHARGES
****
Generated from CSD

@<TRIPOS>ATOM
      1 C1         7.6736    4.2177   -2.6996 C.ar      1 RES1    0.0000
      2 C2         7.2707    4.4998   -4.0056 C.ar      1 RES1    0.0000
      3 C3         7.1957    3.4194   -4.8876 C.ar      1 RES1    0.0000
      4 C4         7.5310    2.1288   -4.5312 C.ar      1 RES1    0.0000
      5 C5         7.9260    1.9425   -3.2202 C.ar      1 RES1    0.0000
      6 C6         8.0087    2.9510   -2.2669 C.ar      1 RES1    0.0000
      7 C7         7.6684    5.4151   -1.7412 C.2       1 RES1    0.0000
      8 C8         7.8250    5.9939    0.5295 C.3       1 RES1    0.0000
      9 C9         9.0470    6.7816    0.8515 C.2       1 RES1    0.0000
     10 C10        8.9879    7.5413    1.9347 C.2       1 RES1    0.0000
     11 C11        7.7030    7.5147    2.7671 C.3       1 RES1    0.0000
     12 C12        7.2207    6.0618    3.0318 C.3       1 RES1    0.0000
     13 C13        7.3053    5.2116    1.7374 C.3       1 RES1    0.0000
     14 C14        6.0162    4.5011    1.3008 C.2       1 RES1    0.0000
     15 C15        4.2937    3.1732    2.1880 C.3       1 RES1    0.0000
     16 C16        8.0723    5.2608    4.0374 C.3       1 RES1    0.0000
     17 C17        7.1888    4.5290    5.0874 C.3       1 RES1    0.0000
     18 C18        9.1863    6.0085    4.7871 C.3       1 RES1    0.0000
     19 O1         6.3974    4.7911   -6.5575 O.2       1 RES1    0.0000
     20 O2         6.7293    2.7089   -7.0170 O.2       1 RES1    0.0000
     21 O3         8.1394   -0.3153   -3.6759 O.2       1 RES1    0.0000
     22 O4         8.5004    0.3765   -1.6254 O.2       1 RES1    0.0000
     23 O5         7.2821    6.4995   -2.0620 O.2       1 RES1    0.0000
     24 O6         8.0927    5.0426   -0.5359 O.3       1 RES1    0.0000
     25 O7         5.4665    4.5623    0.2826 O.2       1 RES1    0.0000
     26 O8         5.5516    3.8132    2.3789 O.3       1 RES1    0.0000
     27 N1         6.7458    3.6722   -6.2623 N.pl3     1 RES1    0.0000
     28 N2         8.2247    0.5455   -2.7989 N.pl3     1 RES1    0.0000
     29 N3         8.3291    4.1232    2.0518 N.2       1 RES1    0.0000
     30 N4         8.7301    4.1764    3.2215 N.2       1 RES1    0.0000
     31 H1         7.0829    5.5338   -4.3487 H         1 RES1    0.0000
     32 H2         7.4322    1.2809   -5.2220 H         1 RES1    0.0000
     33 H3         8.2754    2.7676   -1.2399 H         1 RES1    0.0000
     34 H4         7.0811    6.7150    0.2091 H         1 RES1    0.0000
     35 H5         9.9447    6.7668    0.2155 H         1 RES1    0.0000
     36 H6         9.8580    8.1186    2.2814 H         1 RES1    0.0000
     37 H7         7.8883    8.0135    3.7043 H         1 RES1    0.0000
     38 H8         6.9608    8.0562    2.2048 H         1 RES1    0.0000
     39 H9         6.1968    6.2021    3.4296 H         1 RES1    0.0000
     40 H10        3.9129    2.6385    3.1189 H         1 RES1    0.0000
     41 H11        4.2243    2.4526    1.3931 H         1 RES1    0.0000
     42 H12        3.4483    3.9170    1.9964 H         1 RES1    0.0000
     43 H13        6.6910    5.2430    5.7065 H         1 RES1    0.0000
     44 H14        7.7794    3.8553    5.6993 H         1 RES1    0.0000
     45 H15        6.4375    3.9295    4.5573 H         1 RES1    0.0000
     46 H16        8.7390    6.8428    5.3555 H         1 RES1    0.0000
     47 H17        9.8621    6.5045    4.0384 H         1 RES1    0.0000
     48 H18        9.7688    5.4125    5.4200 H         1 RES1    0.0000
@<TRIPOS>BOND
     1    1    2 ar
     2    2    3 ar
     3    3    4 ar
     4    4    5 ar
     5    5    6 ar
     6    6    1 ar
     7    7    1 1
     8    8    9 1
     9    9   10 2
    10   10   11 1
    11   11   12 1
    12   12   13 1
    13   13    8 1
    14   14   13 1
    15   15   26 1
    16   16   12 1
    17   17   16 1
    18   18   16 1
    19   19   27 2
    20   20   27 2
    21   21   28 2
    22   22   28 2
    23   23    7 2
    24   24    7 1
    25   25   14 2
    26   26   14 1
    27   27    3 1
    28   28    5 1
    29   29   13 1
    30   30   16 1
    31   31    2 1
    32   32    4 1
    33   33    6 1
    34   34    8 1
    35   35    9 1
    36   36   10 1
    37   37   11 1
    38   38   11 1
    39   39   12 1
    40   40   15 1
    41   41   15 1
    42   42   15 1
    43   43   17 1
    44   44   17 1
    45   45   17 1
    46   46   18 1
    47   47   18 1
    48   48   18 1
    49    8   24 1
    50   29   30 2
@<TRIPOS>SUBSTRUCTURE
     1 RES1 1

@<TRIPOS>CRYSIN
  11.4210   13.3050   13.0130  90.0000 102.0100  90.0000 231 1

