# MOL2 file generated by ConQuest
# Please check atom types

@<TRIPOS>MOLECULE
ZACFIV
    62    57     2
SMALL
NO_CHARGES
****
Generated from CSD

@<TRIPOS>ATOM
      1 O1         1.9093    8.5545    3.3743 O.3       1 RES1    0.0000
      2 O2        -0.0780    7.7648    4.1710 O.3       1 RES1    0.0000
      3 O3         0.3396    4.9163    4.4863 O.3       1 RES1    0.0000
      4 H1        -0.3205    5.2083    4.0560 H         1 RES1    0.0000
      5 O4         3.4051    5.4104    2.8588 O.2       1 RES1    0.0000
      6 O5         4.6234    7.2818    9.0535 O.2       1 RES1    0.0000
      7 N1         2.3988    7.1734    8.6147 N.am      1 RES1    0.0000
      8 H2         1.5935    7.0779    8.9576 H         1 RES1    0.0000
      9 N2         1.5082    5.5793    4.0602 N.am      1 RES1    0.0000
     10 C1         2.5203    7.4415    7.1767 C.3       1 RES1    0.0000
     11 H3         3.4920    7.4709    6.9403 H         1 RES1    0.0000
     12 C2         1.9176    8.7473    6.8423 C.2       1 RES1    0.0000
     13 H4         1.9403    9.4342    7.4984 H         1 RES1    0.0000
     14 C3         1.3439    9.0136    5.6622 C.2       1 RES1    0.0000
     15 C4         1.2674    7.9851    4.5480 C.3       1 RES1    0.0000
     16 C5         1.9770    6.6665    4.8974 C.3       1 RES1    0.0000
     17 H5         2.9482    6.7951    4.6950 H         1 RES1    0.0000
     18 C6         1.8674    6.3341    6.3800 C.3       1 RES1    0.0000
     19 H6         0.9154    6.2496    6.6378 H         1 RES1    0.0000
     20 H7         2.3187    5.4728    6.5675 H         1 RES1    0.0000
     21 C7         0.7081   10.3212    5.3064 C.3       1 RES1    0.0000
     22 H8         1.0213   11.0154    5.9220 H         1 RES1    0.0000
     23 H9        -0.2657   10.2385    5.3724 H         1 RES1    0.0000
     24 H10        0.9536   10.5636    4.3883 H         1 RES1    0.0000
     25 C8         1.0219    8.4718    2.2687 C.3       1 RES1    0.0000
     26 H11        1.0032    9.3295    1.7745 H         1 RES1    0.0000
     27 H12        1.3072    7.7556    1.6488 H         1 RES1    0.0000
     28 C9        -0.2481    8.1835    2.8013 C.3       1 RES1    0.0000
     29 H13       -0.6786    7.4654    2.2772 H         1 RES1    0.0000
     30 H14       -0.8213    8.9897    2.7608 H         1 RES1    0.0000
     31 C10        3.4589    7.0706    9.4305 C.2       1 RES1    0.0000
     32 C11        3.1684    6.6353   10.8493 C.ar      1 RES1    0.0000
     33 C12        2.0944    5.8291   11.1518 C.ar      1 RES1    0.0000
     34 H15        1.4710    5.5848   10.4786 H         1 RES1    0.0000
     35 C13        1.9284    5.3663   12.4746 C.ar      1 RES1    0.0000
     36 H16        1.1971    4.8006   12.6919 H         1 RES1    0.0000
     37 C14        2.8242    5.7336   13.4460 C.ar      1 RES1    0.0000
     38 H17        2.7043    5.4269   14.3364 H         1 RES1    0.0000
     39 C15        3.8869    6.5398   13.1456 C.ar      1 RES1    0.0000
     40 H18        4.4973    6.7914   13.8295 H         1 RES1    0.0000
     41 C16        4.0905    6.9989   11.8249 C.ar      1 RES1    0.0000
     42 H19        4.8384    7.5444   11.6076 H         1 RES1    0.0000
     43 C17        2.2732    4.9586    3.1250 C.2       1 RES1    0.0000
     44 C18        1.7398    3.7942    2.3688 C.ar      1 RES1    0.0000
     45 C19        0.9924    1.5776    0.8862 C.ar      1 RES1    0.0000
     46 H20        0.8032    0.8172    0.3494 H         1 RES1    0.0000
     47 C20        1.6333    3.9063    1.0971 C.ar      1 RES1    0.0000
     48 H21        1.8003    4.7308    0.6540 H         1 RES1    0.0000
     49 C21        1.2612    2.7713    0.3941 C.ar      1 RES1    0.0000
     50 H22        1.1955    2.8631   -0.5496 H         1 RES1    0.0000
     51 C22        1.3697    2.6538    3.1485 C.ar      1 RES1    0.0000
     52 H23        1.3718    2.6648    4.0986 H         1 RES1    0.0000
     53 C23        1.0182    1.5445    2.4263 C.ar      1 RES1    0.0000
     54 H24        0.7846    0.7438    2.8801 H         1 RES1    0.0000
     55 C24        0.4755    3.5500    1.7937 Du        2 SUP2    0.0000
     56 H25       -0.1799    4.2240    1.9449 Du        2 SUP2    0.0000
     57 C25        0.0569    2.4793    1.0502 Du        2 SUP2    0.0000
     58 H26       -0.8198    2.3966    0.6923 Du        2 SUP2    0.0000
     59 C26        2.3673    1.6914    1.0779 Du        2 SUP2    0.0000
     60 H27        2.9885    1.0670    0.7243 Du        2 SUP2    0.0000
     61 C27        2.7446    2.7823    1.8235 Du        2 SUP2    0.0000
     62 H28        3.6687    2.9127    2.0067 Du        2 SUP2    0.0000
@<TRIPOS>BOND
     1    1   15 1
     2    2   15 1
     3    3    4 1
     4    5   43 2
     5    6   31 2
     6    7    8 1
     7    9    3 1
     8   10    7 1
     9   11   10 1
    10   12   10 1
    11   13   12 1
    12   14   12 2
    13   15   14 1
    14   16    9 1
    15   17   16 1
    16   18   10 1
    17   19   18 1
    18   20   18 1
    19   21   14 1
    20   22   21 1
    21   23   21 1
    22   24   21 1
    23   25    1 1
    24   26   25 1
    25   27   25 1
    26   28    2 1
    27   29   28 1
    28   30   28 1
    29   31    7 1
    30   32   31 1
    31   33   32 ar
    32   34   33 1
    33   35   33 ar
    34   36   35 1
    35   37   35 ar
    36   38   37 1
    37   39   37 ar
    38   40   39 1
    39   41   32 ar
    40   42   41 1
    41   43    9 1
    42   44   43 1
    43   45   46 1
    44   47   44 ar
    45   48   47 1
    46   49   45 ar
    47   50   49 1
    48   51   44 ar
    49   52   51 1
    50   53   45 ar
    51   54   53 1
    52   15   16 1
    53   16   18 1
    54   25   28 1
    55   39   41 ar
    56   47   49 ar
    57   51   53 ar
@<TRIPOS>SUBSTRUCTURE
     1 RES1 1
     2 SUP2 55

@<TRIPOS>CRYSIN
   5.1687   18.3651   21.3023  90.0000  90.0000  90.0000  19 1

