# MOL2 file generated by ConQuest
# Please check atom types

@<TRIPOS>MOLECULE
ZACHAP
    55    58     1
SMALL
NO_CHARGES
****
Generated from CSD

@<TRIPOS>ATOM
      1 O1         4.6339    5.1648   28.4258 O.2       1 RES1    0.0000
      2 O2         6.5007    4.9145   27.1204 O.3       1 RES1    0.0000
      3 O3         0.9435    1.8728   26.0452 O.2       1 RES1    0.0000
      4 O4         1.6509   -0.1471   30.2886 O.3       1 RES1    0.0000
      5 O5         3.1038    1.5285   30.8501 O.3       1 RES1    0.0000
      6 O6         2.8583   -0.4782   27.8701 O.3       1 RES1    0.0000
      7 N1         2.0610    0.6672   27.5327 N.am      1 RES1    0.0000
      8 N2         5.3401    3.1296   27.6139 N.am      1 RES1    0.0000
      9 H1         5.9577    2.7566   27.1109 H         1 RES1    0.0000
     10 C1         5.4034    4.4885   27.7791 C.2       1 RES1    0.0000
     11 C2         1.6611    0.8889   26.2733 C.2       1 RES1    0.0000
     12 C3         3.2949   -0.6038   24.9979 C.ar      1 RES1    0.0000
     13 H2         3.9904   -0.4036   25.6133 H         1 RES1    0.0000
     14 C4         4.3751    2.2795   28.1804 C.2       1 RES1    0.0000
     15 C5         2.0237   -0.0766   25.1777 C.ar      1 RES1    0.0000
     16 C6         2.5963    0.7551   29.7724 C.3       1 RES1    0.0000
     17 C7         3.6771    0.0102   28.9895 C.3       1 RES1    0.0000
     18 C8         2.0218    1.6348   28.6486 C.3       1 RES1    0.0000
     19 H3         1.0916    1.9423   28.8486 H         1 RES1    0.0000
     20 C9         1.0080   -0.3688   24.2826 C.ar      1 RES1    0.0000
     21 H4         0.1487    0.0204   24.3938 H         1 RES1    0.0000
     22 C10        3.5405   -1.4325   23.9047 C.ar      1 RES1    0.0000
     23 H5         4.4150   -1.7747   23.7619 H         1 RES1    0.0000
     24 C11        2.5242   -1.7604   23.0286 C.ar      1 RES1    0.0000
     25 H6         2.6976   -2.3438   22.2991 H         1 RES1    0.0000
     26 C12        6.9018    6.3439   27.1352 C.3       1 RES1    0.0000
     27 C13        1.2529   -1.2414   23.2112 C.ar      1 RES1    0.0000
     28 H7         0.5505   -1.4744   22.6151 H         1 RES1    0.0000
     29 C14        4.6985    0.9993   28.4581 C.2       1 RES1    0.0000
     30 H8         5.5920    0.7091   28.3178 H         1 RES1    0.0000
     31 C15        5.7970    7.1960   26.5318 C.3       1 RES1    0.0000
     32 H9         6.0666    8.1381   26.5454 H         1 RES1    0.0000
     33 H10        5.6356    6.9140   25.6070 H         1 RES1    0.0000
     34 H11        4.9756    7.0847   27.0540 H         1 RES1    0.0000
     35 C16        2.9716    2.8006   28.3835 C.3       1 RES1    0.0000
     36 H12        2.6780    3.2930   27.5753 H         1 RES1    0.0000
     37 H13        2.9551    3.4259   29.1519 H         1 RES1    0.0000
     38 C17        4.2713   -1.1862   29.6751 C.3       1 RES1    0.0000
     39 H14        4.8244   -0.8889   30.4283 H         1 RES1    0.0000
     40 H15        3.5519   -1.7635   30.0049 H         1 RES1    0.0000
     41 H16        4.8257   -1.6848   29.0381 H         1 RES1    0.0000
     42 C18        7.2625    6.7373   28.5557 C.3       1 RES1    0.0000
     43 H17        7.5289    7.6793   28.5769 H         1 RES1    0.0000
     44 H18        6.4861    6.6045   29.1392 H         1 RES1    0.0000
     45 H19        8.0054    6.1804   28.8707 H         1 RES1    0.0000
     46 C19        8.1244    6.3480   26.2528 C.3       1 RES1    0.0000
     47 H20        8.4794    7.2594   26.1915 H         1 RES1    0.0000
     48 H21        8.8059    5.7574   26.6370 H         1 RES1    0.0000
     49 H22        7.8827    6.0303   25.3574 H         1 RES1    0.0000
     50 C20        2.4502    1.0953   32.0516 C.3       1 RES1    0.0000
     51 H23        2.2040    1.8677   32.6209 H         1 RES1    0.0000
     52 H24        3.0317    0.4853   32.5704 H         1 RES1    0.0000
     53 C21        1.2188    0.3750   31.5556 C.3       1 RES1    0.0000
     54 H25        0.9555   -0.3525   32.1723 H         1 RES1    0.0000
     55 H26        0.4575    0.9993   31.4456 H         1 RES1    0.0000
@<TRIPOS>BOND
     1    1   10 2
     2    2   10 1
     3    3   11 2
     4    4   16 1
     5    5   16 1
     6    6    7 1
     7    7   11 1
     8    8    9 1
     9   10    8 1
    10   11   15 1
    11   12   13 1
    12   14    8 1
    13   15   12 ar
    14   16   17 1
    15   17    6 1
    16   18    7 1
    17   19   18 1
    18   20   15 ar
    19   21   20 1
    20   22   12 ar
    21   23   22 1
    22   24   22 ar
    23   25   24 1
    24   26    2 1
    25   27   20 ar
    26   28   27 1
    27   29   14 2
    28   30   29 1
    29   31   26 1
    30   32   31 1
    31   33   31 1
    32   34   31 1
    33   35   14 1
    34   36   35 1
    35   37   35 1
    36   38   17 1
    37   39   38 1
    38   40   38 1
    39   41   38 1
    40   42   26 1
    41   43   42 1
    42   44   42 1
    43   45   42 1
    44   46   26 1
    45   47   46 1
    46   48   46 1
    47   49   46 1
    48   50    5 1
    49   51   50 1
    50   52   50 1
    51   53    4 1
    52   54   53 1
    53   55   53 1
    54   16   18 1
    55   17   29 1
    56   18   35 1
    57   24   27 ar
    58   50   53 1
@<TRIPOS>SUBSTRUCTURE
     1 RES1 1

@<TRIPOS>CRYSIN
   6.3279   10.2173   31.5941  90.0000  90.0000  90.0000  19 1

