# MOL2 file generated by ConQuest
# Please check atom types

@<TRIPOS>MOLECULE
ZACNEZ
    30    30     1
SMALL
NO_CHARGES
****
Generated from CSD

@<TRIPOS>ATOM
      1 O1         5.1325    0.7033    1.8900 O.2       1 RES1    0.0000
      2 O2         1.1657    3.0517    3.4659 O.2       1 RES1    0.0000
      3 O3         0.6339    1.2309    4.4833 O.2       1 RES1    0.0000
      4 O4         0.8828    2.5990    6.8932 O.2       1 RES1    0.0000
      5 O5         1.5794    0.6916    7.6462 O.2       1 RES1    0.0000
      6 O6         3.1089    3.1351    8.8380 O.2       1 RES1    0.0000
      7 N1         3.7339    2.3456    2.5457 N.am      1 RES1    0.0000
      8 N2         1.4255    2.1186    4.2026 N.pl3     1 RES1    0.0000
      9 N3         1.6940    1.6969    6.9632 N.pl3     1 RES1    0.0000
     10 N4         4.3766    1.4327    8.0810 N.am      1 RES1    0.0000
     11 C1         3.8782    2.1274    3.9452 C.ar      1 RES1    0.0000
     12 C2         2.7730    2.0527    4.7712 C.ar      1 RES1    0.0000
     13 C3         2.9145    1.8148    6.1423 C.ar      1 RES1    0.0000
     14 C4         4.1640    1.6478    6.7027 C.ar      1 RES1    0.0000
     15 C5         5.2697    1.7115    5.8474 C.ar      1 RES1    0.0000
     16 C6         5.1209    1.9316    4.5077 C.ar      1 RES1    0.0000
     17 C7         4.4087    1.6418    1.6063 C.2       1 RES1    0.0000
     18 C8         4.2134    2.0813    0.1814 C.3       1 RES1    0.0000
     19 C9         3.8500    2.1892    9.0650 C.2       1 RES1    0.0000
     20 C10        4.2218    1.8059   10.4635 C.3       1 RES1    0.0000
     21 H1         3.1724    3.0332    2.3207 H         1 RES1    0.0000
     22 H2         6.1745    1.6450    6.3034 H         1 RES1    0.0000
     23 H3         4.5975    2.6081   10.9145 H         1 RES1    0.0000
     24 H4         5.0265    0.7864    8.2695 H         1 RES1    0.0000
     25 H5         4.8793    1.0326   10.4787 H         1 RES1    0.0000
     26 H6         5.8982    1.9696    3.9929 H         1 RES1    0.0000
     27 H7         3.9377    1.3447   -0.3040 H         1 RES1    0.0000
     28 H8         3.6396    2.8493    0.0507 H         1 RES1    0.0000
     29 H9         5.1775    2.2144   -0.1115 H         1 RES1    0.0000
     30 H10        3.5046    1.7004   10.9651 H         1 RES1    0.0000
@<TRIPOS>BOND
     1    1   17 2
     2    2    8 2
     3    3    8 2
     4    4    9 2
     5    5    9 2
     6    6   19 2
     7    7   11 1
     8    8   12 1
     9    9   13 1
    10   10   14 1
    11   11   12 ar
    12   12   13 ar
    13   13   14 ar
    14   14   15 ar
    15   15   16 ar
    16   16   11 ar
    17   17    7 1
    18   18   17 1
    19   19   10 1
    20   20   19 1
    21   21    7 1
    22   22   15 1
    23   23   20 1
    24   24   10 1
    25   25   20 1
    26   26   16 1
    27   27   18 1
    28   28   18 1
    29   29   18 1
    30   30   20 1
@<TRIPOS>SUBSTRUCTURE
     1 RES1 1

@<TRIPOS>CRYSIN
   7.7535    8.0847   10.7662  84.8780  70.2720  75.4930   2 1

