# MOL2 file generated by ConQuest
# Please check atom types

@<TRIPOS>MOLECULE
ZACNAV
    20    19     2
SMALL
NO_CHARGES
****
Generated from CSD

@<TRIPOS>ATOM
      1 N1         3.5220    2.6637    0.7261 N.2       1 RES1    0.0000
      2 O1         3.1497    0.1012    0.6185 O.2       1 RES1    0.0000
      3 O2         2.0878   -0.8618    2.2162 O.2       1 RES1    0.0000
      4 N2         2.4332    0.1564    1.6230 N.2       1 RES1    0.0000
      5 N3        -0.6777    2.6637    4.2556 N.2       1 RES1    0.0000
      6 N4        -1.5908    2.6637    4.8655 N.2       1 RES1    0.0000
      7 C1         2.5222    2.6637    1.5891 C.2       1 RES1    0.0000
      8 C2         1.9646    1.4335    2.0996 C.2       1 RES1    0.0000
      9 C3         0.9330    1.3978    3.0639 C.2       1 RES1    0.0000
     10 C4         0.4274    2.6637    3.4513 C.2       1 RES1    0.0000
     11 O3         0.4553    0.3623    3.7371 O.2       1 RES1    0.0000
     12 H1         3.8387    1.9392    0.4837 H         1 RES1    0.0000
     13 H2         0.5519    0.5114    3.2054 Du        2 SUP2    0.0000
     14 O1G        3.1497    5.2262    0.6185 O.2       1 RES1    0.0000
     15 O2G        2.0878    6.1892    2.2162 O.2       1 RES1    0.0000
     16 N2G        2.4332    5.1710    1.6230 N.2       1 RES1    0.0000
     17 C2G        1.9646    3.8939    2.0996 C.2       1 RES1    0.0000
     18 C3G        0.9330    3.9296    3.0639 C.2       1 RES1    0.0000
     19 O3G        0.4553    4.9651    3.7371 O.2       1 RES1    0.0000
     20 H1G        3.8387    3.3882    0.4837 H         1 RES1    0.0000
@<TRIPOS>BOND
     1    1    7 1
     2    2    4 1
     3    3    4 1
     4    4    8 1
     5    5    6 1
     6    7    8 1
     7    8    9 1
     8    9   10 1
     9   10    5 1
    10   11    9 1
    11   12    1 1
    12   14   16 1
    13   15   16 1
    14   16   17 1
    15   17    7 1
    16   18   10 1
    17   19   18 1
    18   20    1 1
    19   17   18 1
@<TRIPOS>SUBSTRUCTURE
     1 RES1 1
     2 SUP2 13

@<TRIPOS>CRYSIN
  16.2313   10.6548    4.5210  90.0000  90.0000  90.0000  62 1

