# MOL2 file generated by ConQuest
# Please check atom types

@<TRIPOS>MOLECULE
ZADVIM
    69    73     1
SMALL
NO_CHARGES
****
Generated from CSD

@<TRIPOS>ATOM
      1 C1         7.9161    5.8176    8.2234 C.3       1 RES1    0.0000
      2 H1         7.0239    6.1120    8.4175 H         1 RES1    0.0000
      3 H2         8.5278    6.2151    8.8472 H         1 RES1    0.0000
      4 H3         7.9614    4.8619    8.2964 H         1 RES1    0.0000
      5 C2         8.1286    7.7510    6.6590 C.3       1 RES1    0.0000
      6 H4         7.2357    8.0013    6.9065 H         1 RES1    0.0000
      7 H5         8.2927    8.0075    5.7472 H         1 RES1    0.0000
      8 H6         8.7559    8.1964    7.2352 H         1 RES1    0.0000
      9 C3         8.2927    6.2384    6.7998 C.3       1 RES1    0.0000
     10 C4         9.5879    5.6372    6.2784 C.3       1 RES1    0.0000
     11 C5        10.5894    5.2361    7.3506 C.3       1 RES1    0.0000
     12 H7        10.1730    4.6288    7.9677 H         1 RES1    0.0000
     13 H8        10.8855    6.0188    7.8206 H         1 RES1    0.0000
     14 H9        11.3433    4.8067    6.9382 H         1 RES1    0.0000
     15 C6        10.3144    6.4788    5.2512 C.3       1 RES1    0.0000
     16 H10       11.0535    5.9807    4.8936 H         1 RES1    0.0000
     17 H11       10.6394    7.2812    5.6665 H         1 RES1    0.0000
     18 H12        9.7113    6.7083    4.5418 H         1 RES1    0.0000
     19 C7         7.8895    4.4963    5.3224 C.2       1 RES1    0.0000
     20 C8         7.1224    3.4768    4.5467 C.ar      1 RES1    0.0000
     21 C9         7.8247    2.6867    3.6170 C.ar      1 RES1    0.0000
     22 H13        8.7215    2.8671    3.4518 H         1 RES1    0.0000
     23 C10        7.2177    1.6623    2.9558 C.ar      1 RES1    0.0000
     24 H14        7.7099    1.1569    2.3502 H         1 RES1    0.0000
     25 C11        5.8677    1.3544    3.1706 C.ar      1 RES1    0.0000
     26 C12        5.1326    2.1518    4.0946 C.ar      1 RES1    0.0000
     27 C13        5.8107    3.2229    4.7572 C.ar      1 RES1    0.0000
     28 H15        5.3365    3.7590    5.3493 H         1 RES1    0.0000
     29 C14        3.7842    1.8550    4.3429 C.ar      1 RES1    0.0000
     30 H16        3.3030    2.3751    4.9455 H         1 RES1    0.0000
     31 C15        3.1694    0.8122    3.7105 C.ar      1 RES1    0.0000
     32 H17        2.2749    0.6257    3.8843 H         1 RES1    0.0000
     33 C16        3.8858    0.0270    2.8027 C.ar      1 RES1    0.0000
     34 C17        5.1982    0.2674    2.5232 C.ar      1 RES1    0.0000
     35 C18        1.9898   -1.4440    2.4145 C.3       1 RES1    0.0000
     36 H18        1.6304   -1.9384    1.6610 H         1 RES1    0.0000
     37 H19        1.4101   -0.6833    2.5751 H         1 RES1    0.0000
     38 C19        1.9991   -2.3101    3.6066 C.3       1 RES1    0.0000
     39 H20        2.6226   -3.0278    3.4749 H         1 RES1    0.0000
     40 H21        1.1203   -2.6696    3.7459 H         1 RES1    0.0000
     41 H22        2.2609   -1.7961    4.3746 H         1 RES1    0.0000
     42 C20        6.5935    3.2940   -0.6806 C.3       1 RES1    0.0000
     43 H23        5.6537    3.4878   -0.7036 H         1 RES1    0.0000
     44 H24        7.0474    3.8228   -1.3380 H         1 RES1    0.0000
     45 H25        6.9396    3.5026    0.1903 H         1 RES1    0.0000
     46 C21        6.8146    1.8132   -0.9747 C.3       1 RES1    0.0000
     47 H26        6.4763    1.5728   -1.8513 H         1 RES1    0.0000
     48 H27        7.7536    1.5777   -0.9170 H         1 RES1    0.0000
     49 C22        6.3638   -0.1350    0.3463 C.ar      1 RES1    0.0000
     50 C23        5.9435   -0.6060    1.5581 C.ar      1 RES1    0.0000
     51 C24        6.2209   -1.9690    1.8828 C.ar      1 RES1    0.0000
     52 C25        5.8217   -2.5297    3.0982 C.ar      1 RES1    0.0000
     53 H28        5.3889   -1.9911    3.7200 H         1 RES1    0.0000
     54 C26        6.0490   -3.8608    3.4085 C.ar      1 RES1    0.0000
     55 H29        5.7576   -4.2178    4.2160 H         1 RES1    0.0000
     56 C27        6.7263   -4.6546    2.4800 C.ar      1 RES1    0.0000
     57 H30        6.8865   -5.5489    2.6761 H         1 RES1    0.0000
     58 C28        7.1529   -4.1516    1.3063 C.ar      1 RES1    0.0000
     59 H31        7.6185   -4.7012    0.7180 H         1 RES1    0.0000
     60 C29        6.9036   -2.7714    0.9401 C.ar      1 RES1    0.0000
     61 C30        7.3153   -2.2181   -0.2768 C.ar      1 RES1    0.0000
     62 H32        7.7731   -2.7505   -0.8853 H         1 RES1    0.0000
     63 C31        7.0630   -0.9275   -0.5845 C.ar      1 RES1    0.0000
     64 H33        7.3458   -0.5705   -1.3957 H         1 RES1    0.0000
     65 N1         7.2864    5.5980    5.8928 N.pl3     1 RES1    0.0000
     66 N2         9.1731    4.4092    5.5367 N.2       1 RES1    0.0000
     67 O1         6.0685    5.9354    5.8222 O.2       1 RES1    0.0000
     68 O2         6.0459    1.1827    0.0816 O.3       1 RES1    0.0000
     69 O3         3.3007   -0.9741    2.0866 O.3       1 RES1    0.0000
@<TRIPOS>BOND
     1    1    2 1
     2    3    1 1
     3    4    1 1
     4    5    6 1
     5    7    5 1
     6    8    5 1
     7    9    1 1
     8   10    9 1
     9   11   10 1
    10   12   11 1
    11   13   11 1
    12   14   11 1
    13   15   10 1
    14   16   15 1
    15   17   15 1
    16   18   15 1
    17   19   20 1
    18   20   21 ar
    19   21   22 1
    20   23   21 ar
    21   24   23 1
    22   25   23 ar
    23   26   25 ar
    24   27   20 ar
    25   28   27 1
    26   29   26 ar
    27   30   29 1
    28   31   29 ar
    29   32   31 1
    30   33   31 ar
    31   34   25 ar
    32   35   36 1
    33   37   35 1
    34   38   35 1
    35   39   38 1
    36   40   38 1
    37   41   38 1
    38   42   43 1
    39   44   42 1
    40   45   42 1
    41   46   42 1
    42   47   46 1
    43   48   46 1
    44   49   50 ar
    45   50   34 1
    46   51   50 ar
    47   52   51 ar
    48   53   52 1
    49   54   52 ar
    50   55   54 1
    51   56   54 ar
    52   57   56 1
    53   58   56 ar
    54   59   58 1
    55   60   51 ar
    56   61   60 ar
    57   62   61 1
    58   63   49 ar
    59   64   63 1
    60   65    9 1
    61   66   10 1
    62   67   65 1
    63   68   46 1
    64   69   33 1
    65    5    9 1
    66   19   65 1
    67   19   66 2
    68   26   27 ar
    69   33   34 ar
    70   35   69 1
    71   49   68 1
    72   58   60 ar
    73   61   63 ar
@<TRIPOS>SUBSTRUCTURE
     1 RES1 1

@<TRIPOS>CRYSIN
   7.8122   12.2682   28.8370  90.0000  90.0000  90.0000  19 1

