# MOL2 file generated by ConQuest
# Please check atom types

@<TRIPOS>MOLECULE
ZAGCOC
    32    33     1
SMALL
NO_CHARGES
****
Generated from CSD

@<TRIPOS>ATOM
      1 O1         7.9937    4.2527    5.5156 O.2       1 RES1    0.0000
      2 O2         7.7713    5.2805    7.4285 O.2       1 RES1    0.0000
      3 O3         8.1990    2.3398    8.9369 O.2       1 RES1    0.0000
      4 O4         6.9328    1.0637   10.1774 O.2       1 RES1    0.0000
      5 O5         5.6315    2.4867   12.1654 O.2       1 RES1    0.0000
      6 O6         3.7623    3.5884   12.0072 O.2       1 RES1    0.0000
      7 N1         5.9154    3.6839    8.1647 N.pl3     1 RES1    0.0000
      8 N2         4.3403    4.4035    9.5549 N.2       1 RES1    0.0000
      9 N3         6.5948    3.3780    6.9957 N.pl3     1 RES1    0.0000
     10 H1         6.0489    3.2494    6.2808 H         1 RES1    0.0000
     11 N4         7.5243    4.4179    6.6149 N.pl3     1 RES1    0.0000
     12 N5         7.1508    2.0564    9.5047 N.pl3     1 RES1    0.0000
     13 N6         4.8032    3.1560   11.5582 N.pl3     1 RES1    0.0000
     14 C1         4.8483    4.5183    8.3505 C.2       1 RES1    0.0000
     15 C2         6.0766    3.0029    9.3515 C.2       1 RES1    0.0000
     16 C3         5.0918    3.4700   10.1697 C.2       1 RES1    0.0000
     17 O1D        1.2272    5.6842   10.1706 O.2       1 RES1    0.0000
     18 O2D        1.4496    4.6564    8.2577 O.2       1 RES1    0.0000
     19 O3D        1.0219    7.5971    6.7493 O.2       1 RES1    0.0000
     20 O4D        2.2881    8.8732    5.5088 O.2       1 RES1    0.0000
     21 O5D        3.5894    7.4502    3.5208 O.2       1 RES1    0.0000
     22 O6D        5.4586    6.3485    3.6790 O.2       1 RES1    0.0000
     23 N1D        3.3055    6.2530    7.5215 N.pl3     1 RES1    0.0000
     24 N2D        4.8806    5.5334    6.1313 N.2       1 RES1    0.0000
     25 N3D        2.6261    6.5589    8.6905 N.pl3     1 RES1    0.0000
     26 H1D        3.1720    6.6875    9.4054 H         1 RES1    0.0000
     27 N4D        1.6966    5.5190    9.0713 N.pl3     1 RES1    0.0000
     28 N5D        2.0701    7.8805    6.1815 N.pl3     1 RES1    0.0000
     29 N6D        4.4177    6.7809    4.1280 N.pl3     1 RES1    0.0000
     30 C1D        4.3726    5.4186    7.3357 C.2       1 RES1    0.0000
     31 C2D        3.1443    6.9340    6.3347 C.2       1 RES1    0.0000
     32 C3D        4.1291    6.4669    5.5165 C.2       1 RES1    0.0000
@<TRIPOS>BOND
     1    1   11 2
     2    2   11 2
     3    3   12 2
     4    4   12 2
     5    5   13 2
     6    6   13 2
     7    7    9 1
     8    8   14 2
     9    9   10 1
    10   11    9 1
    11   12   15 1
    12   13   16 1
    13   14    7 1
    14   15    7 1
    15   16    8 1
    16   17   27 2
    17   18   27 2
    18   19   28 2
    19   20   28 2
    20   21   29 2
    21   22   29 2
    22   23   25 1
    23   24   30 2
    24   25   26 1
    25   27   25 1
    26   28   31 1
    27   29   32 1
    28   30   14 1
    29   31   23 1
    30   32   24 1
    31   15   16 2
    32   23   30 1
    33   31   32 2
@<TRIPOS>SUBSTRUCTURE
     1 RES1 1

@<TRIPOS>CRYSIN
   9.2209    9.9369   15.6862  90.0000  90.0000  90.0000  61 1

