# MOL2 file generated by ConQuest
# Please check atom types

@<TRIPOS>MOLECULE
ZAGKAW
    26    27     1
SMALL
NO_CHARGES
****
Generated from CSD

@<TRIPOS>ATOM
      1 O1         1.6654    5.2162    4.7352 O.2       1 RES1    0.0000
      2 O2        -0.4980    5.5116    4.8680 O.2       1 RES1    0.0000
      3 O3         5.6623    9.3196    5.1604 O.2       1 RES1    0.0000
      4 O4         3.8496   10.1136    4.2364 O.2       1 RES1    0.0000
      5 N1         2.0633    7.2125    6.2474 N.pl3     1 RES1    0.0000
      6 N2         2.3898    8.1917    5.3738 N.2       1 RES1    0.0000
      7 N3         4.1777    7.6013    6.6650 N.2       1 RES1    0.0000
      8 N4         0.8218    6.6481    6.2571 N.pl3     1 RES1    0.0000
      9 H1         0.1687    7.2248    6.2174 H         1 RES1    0.0000
     10 N5         0.6589    5.7266    5.1730 N.pl3     1 RES1    0.0000
     11 N6         4.4527    9.3493    4.9763 N.pl3     1 RES1    0.0000
     12 C1         3.1344    6.8665    7.0136 C.2       1 RES1    0.0000
     13 C2         3.6502    8.3691    5.6906 C.2       1 RES1    0.0000
     14 O1B        4.5596    7.4991   10.3354 O.2       1 RES1    0.0000
     15 O2B        6.7230    7.2037   10.2025 O.2       1 RES1    0.0000
     16 O3B        0.5627    3.3957    9.9102 O.2       1 RES1    0.0000
     17 O4B        2.3754    2.6017   10.8342 O.2       1 RES1    0.0000
     18 N1B        4.1617    5.5028    8.8231 N.pl3     1 RES1    0.0000
     19 N2B        3.8352    4.5236    9.6968 N.2       1 RES1    0.0000
     20 N3B        2.0474    5.1140    8.4055 N.2       1 RES1    0.0000
     21 N4B        5.4032    6.0672    8.8134 N.pl3     1 RES1    0.0000
     22 H1B        6.0563    5.4905    8.8532 H         1 RES1    0.0000
     23 N5B        5.5661    6.9887    9.8975 N.pl3     1 RES1    0.0000
     24 N6B        1.7724    3.3660   10.0943 N.pl3     1 RES1    0.0000
     25 C1B        3.0906    5.8488    8.0570 C.2       1 RES1    0.0000
     26 C2B        2.5748    4.3462    9.3800 C.2       1 RES1    0.0000
@<TRIPOS>BOND
     1    1   10 2
     2    2   10 2
     3    3   11 2
     4    4   11 2
     5    5    6 1
     6    6   13 2
     7    7   12 2
     8    8    5 1
     9    9    8 1
    10   10    8 1
    11   11   13 1
    12   12    5 1
    13   13    7 1
    14   14   23 2
    15   15   23 2
    16   16   24 2
    17   17   24 2
    18   18   19 1
    19   19   26 2
    20   20   25 2
    21   21   18 1
    22   22   21 1
    23   23   21 1
    24   24   26 1
    25   25   12 1
    26   26   20 1
    27   18   25 1
@<TRIPOS>SUBSTRUCTURE
     1 RES1 1

@<TRIPOS>CRYSIN
   6.2558   12.7153    7.5353  90.0000  90.1170  90.0000 231 1

