# MOL2 file generated by ConQuest
# Please check atom types

@<TRIPOS>MOLECULE
ZAGMID
    80    69     2
SMALL
NO_CHARGES
****
Generated from CSD

@<TRIPOS>ATOM
      1 N1         8.6607   16.7008    0.7243 N.2       1 RES1    0.0000
      2 C1         7.7652   16.3360    0.1000 C.2       1 RES1    0.0000
      3 C2         9.7567   17.1440    1.4968 C.ar      1 RES1    0.0000
      4 C3         9.7423   16.8468    2.8719 C.ar      1 RES1    0.0000
      5 C4        10.8118   17.3629    3.6000 C.ar      1 RES1    0.0000
      6 C5        11.8221   18.1088    3.0257 C.ar      1 RES1    0.0000
      7 C6        11.7733   18.3277    1.6637 C.ar      1 RES1    0.0000
      8 C7        10.7595   17.8818    0.8432 C.ar      1 RES1    0.0000
      9 C8         8.6193   16.0523    3.5727 C.3       1 RES1    0.0000
     10 C9         8.4583   14.6470    2.9464 C.3       1 RES1    0.0000
     11 C10        8.9303   15.8361    5.0591 C.3       1 RES1    0.0000
     12 C11        7.2943   16.8116    3.4878 C.3       1 RES1    0.0000
     13 C12       12.9448   18.6844    3.9084 C.3       1 RES1    0.0000
     14 C13       13.7480   17.5629    4.4932 C.3       1 RES1    0.0000
     15 C14       12.3353   19.5113    5.0016 C.3       1 RES1    0.0000
     16 C15       13.9306   19.5924    3.0983 C.3       1 RES1    0.0000
     17 C16       12.9820   18.1007    5.3590 Du        2 SUP2    0.0000
     18 C17       12.8488   20.1761    3.9132 Du        2 SUP2    0.0000
     19 C18       14.2367   18.2115    3.2237 Du        2 SUP2    0.0000
     20 C19       10.7433   18.1872   -0.6640 C.3       1 RES1    0.0000
     21 C20       10.7710   16.8954   -1.4883 C.3       1 RES1    0.0000
     22 C21        9.5121   19.0600   -1.0158 C.3       1 RES1    0.0000
     23 C22       11.9700   19.0060   -1.0846 C.3       1 RES1    0.0000
     24 C23        6.6364   16.0387   -0.5838 C.2       1 RES1    0.0000
     25 C24        6.2563   14.9091   -1.3666 C.2       1 RES1    0.0000
     26 N2         5.0411   15.0470   -1.8033 N.2       1 RES1    0.0000
     27 O1         4.5656   16.3144   -1.3195 O.3       1 RES1    0.0000
     28 C25        5.5209   16.9468   -0.5678 C.2       1 RES1    0.0000
     29 O2         5.3266   18.0088   -0.0396 O.2       1 RES1    0.0000
     30 C26        7.0347   13.6877   -1.7646 C.3       1 RES1    0.0000
     31 C27        7.9052   13.2174   -0.6300 C.3       1 RES1    0.0000
     32 C28        7.9300   14.0903   -2.9427 C.3       1 RES1    0.0000
     33 C29        6.0715   12.5878   -2.2306 C.3       1 RES1    0.0000
     34 H1        10.8464   17.2008    4.5149 H         1 RES1    0.0000
     35 H2        12.4688   18.8060    1.2751 H         1 RES1    0.0000
     36 H3         9.3099   14.2038    2.9332 H         1 RES1    0.0000
     37 H4         8.1280   14.7335    2.0495 H         1 RES1    0.0000
     38 H5         7.8380   14.1336    3.4689 H         1 RES1    0.0000
     39 H6         9.7757   15.3902    5.1478 H         1 RES1    0.0000
     40 H7         8.2417   15.2983    5.4552 H         1 RES1    0.0000
     41 H8         8.9682   16.6846    5.5052 H         1 RES1    0.0000
     42 H9         7.0842   16.9873    2.5673 H         1 RES1    0.0000
     43 H10        7.3710   17.6440    3.9613 H         1 RES1    0.0000
     44 H11        6.5957   16.2847    3.8811 H         1 RES1    0.0000
     45 H12       13.2014   17.0603    5.1034 H         1 RES1    0.0000
     46 H13       14.5044   17.9223    4.9629 H         1 RES1    0.0000
     47 H14       14.0526   16.9846    3.7896 H         1 RES1    0.0000
     48 H15       11.7993   18.9519    5.5656 H         1 RES1    0.0000
     49 H16       11.7860   20.1977    4.6149 H         1 RES1    0.0000
     50 H17       13.0336   19.9167    5.5222 H         1 RES1    0.0000
     51 H18       14.5180   20.0464    3.7057 H         1 RES1    0.0000
     52 H19       13.4300   20.2356    2.5927 H         1 RES1    0.0000
     53 H20       14.4487   19.0465    2.5003 H         1 RES1    0.0000
     54 H21       12.1785   18.3439    5.8231 Du        2 SUP2    0.0000
     55 H22       13.7423   18.4547    5.8268 Du        2 SUP2    0.0000
     56 H23       13.0493   17.1440    5.3175 Du        2 SUP2    0.0000
     57 H24       11.9580   20.4383    4.1556 Du        2 SUP2    0.0000
     58 H25       13.0549   20.5139    3.0379 Du        2 SUP2    0.0000
     59 H26       13.4730   20.5355    4.5479 Du        2 SUP2    0.0000
     60 H27       14.2585   18.5385    2.3211 Du        2 SUP2    0.0000
     61 H28       14.2634   17.2521    3.2181 Du        2 SUP2    0.0000
     62 H29       14.9958   18.5493    3.7038 Du        2 SUP2    0.0000
     63 H30       10.0685   16.3117   -1.1922 H         1 RES1    0.0000
     64 H31       11.6189   16.4603   -1.3723 H         1 RES1    0.0000
     65 H32       10.6430   17.1062   -2.4164 H         1 RES1    0.0000
     66 H33        8.7088   18.5979   -0.7677 H         1 RES1    0.0000
     67 H34        9.5021   19.2357   -1.9599 H         1 RES1    0.0000
     68 H35        9.5619   19.8924   -0.5385 H         1 RES1    0.0000
     69 H36       11.9648   19.8491   -0.6253 H         1 RES1    0.0000
     70 H37       11.9444   19.1573   -2.0325 H         1 RES1    0.0000
     71 H38       12.7681   18.5222   -0.8592 H         1 RES1    0.0000
     72 H39        8.3402   12.3986   -0.8771 H         1 RES1    0.0000
     73 H40        7.3643   13.0715    0.1490 H         1 RES1    0.0000
     74 H41        8.5682   13.8876   -0.4386 H         1 RES1    0.0000
     75 H42        7.3899   14.4605   -3.6444 H         1 RES1    0.0000
     76 H43        8.3946   13.3147   -3.2709 H         1 RES1    0.0000
     77 H44        8.5681   14.7443   -2.6503 H         1 RES1    0.0000
     78 H45        5.6816   12.8418   -3.0709 H         1 RES1    0.0000
     79 H46        5.3779   12.4716   -1.5770 H         1 RES1    0.0000
     80 H47        6.5528   11.7635   -2.3353 H         1 RES1    0.0000
@<TRIPOS>BOND
     1    1    2 2
     2    2   24 2
     3    3    1 1
     4    4    3 ar
     5    5    4 ar
     6    6    5 ar
     7    7    6 ar
     8    8    3 ar
     9    9    4 1
    10   10    9 1
    11   11    9 1
    12   12    9 1
    13   13    6 1
    14   14   13 1
    15   15   13 1
    16   16   13 1
    17   20    8 1
    18   21   20 1
    19   22   20 1
    20   23   20 1
    21   24   25 1
    22   25   26 2
    23   26   27 1
    24   27   28 1
    25   28   24 1
    26   29   28 2
    27   30   25 1
    28   31   30 1
    29   32   30 1
    30   33   30 1
    31   34    5 1
    32   35    7 1
    33   36   10 1
    34   37   10 1
    35   38   10 1
    36   39   11 1
    37   40   11 1
    38   41   11 1
    39   42   12 1
    40   43   12 1
    41   44   12 1
    42   45   14 1
    43   46   14 1
    44   47   14 1
    45   48   15 1
    46   49   15 1
    47   50   15 1
    48   51   16 1
    49   52   16 1
    50   53   16 1
    51   63   21 1
    52   64   21 1
    53   65   21 1
    54   66   22 1
    55   67   22 1
    56   68   22 1
    57   69   23 1
    58   70   23 1
    59   71   23 1
    60   72   31 1
    61   73   31 1
    62   74   31 1
    63   75   32 1
    64   76   32 1
    65   77   32 1
    66   78   33 1
    67   79   33 1
    68   80   33 1
    69    7    8 ar
@<TRIPOS>SUBSTRUCTURE
     1 RES1 1
     2 SUP2 17

@<TRIPOS>CRYSIN
  10.1060   27.0240   10.2560  90.0000 113.1300  90.0000  14 2

