# MOL2 file generated by ConQuest
# Please check atom types

@<TRIPOS>MOLECULE
ZAHPUW
    91    94     3
SMALL
NO_CHARGES
****
Generated from CSD

@<TRIPOS>ATOM
      1 O1         9.8842   14.0951    4.4704 O.2       1 RES1    0.0000
      2 C1         7.9320   11.2468    4.2143 C.3       1 RES1    0.0000
      3 H1         7.1838   11.8764    4.2783 H         1 RES1    0.0000
      4 C2         7.6209   10.3789    2.9794 C.3       1 RES1    0.0000
      5 H2         8.1025    9.5303    3.0724 H         1 RES1    0.0000
      6 C3         8.0880   11.0529    1.6994 C.2       1 RES1    0.0000
      7 C4        10.3906   10.6638    2.4898 C.3       1 RES1    0.0000
      8 H3        10.0998    9.8133    2.8816 H         1 RES1    0.0000
      9 C5        10.4917   11.7113    3.5995 C.3       1 RES1    0.0000
     10 H4        10.8697   12.5120    3.1798 H         1 RES1    0.0000
     11 C6        11.4567   11.3200    4.6947 C.ar      1 RES1    0.0000
     12 C7        11.3723   10.1183    5.3586 C.ar      1 RES1    0.0000
     13 H5        10.6541    9.5495    5.2003 H         1 RES1    0.0000
     14 C8        12.3576    9.7537    6.2635 C.ar      1 RES1    0.0000
     15 H6        12.2986    8.9379    6.7044 H         1 RES1    0.0000
     16 C9        13.4154   10.5821    6.5130 C.ar      1 RES1    0.0000
     17 H7        14.0747   10.3290    7.1182 H         1 RES1    0.0000
     18 C10       13.4992   11.7725    5.8765 C.ar      1 RES1    0.0000
     19 H8        14.2098   12.3447    6.0550 H         1 RES1    0.0000
     20 C11       12.5299   12.1395    4.9622 C.ar      1 RES1    0.0000
     21 H9        12.6041   12.9541    4.5204 H         1 RES1    0.0000
     22 C12        7.9492   10.5134    5.5505 C.ar      1 RES1    0.0000
     23 C13        7.9482   11.2662    6.7128 C.ar      1 RES1    0.0000
     24 H10        7.9254   12.1940    6.6563 H         1 RES1    0.0000
     25 C14        7.9799   10.6646    7.9539 C.ar      1 RES1    0.0000
     26 H11        7.9835   11.1874    8.7233 H         1 RES1    0.0000
     27 C15        8.0070    9.3246    8.0514 C.ar      1 RES1    0.0000
     28 H12        8.0422    8.9219    8.8885 H         1 RES1    0.0000
     29 C16        7.9834    8.5594    6.9353 C.ar      1 RES1    0.0000
     30 H13        7.9931    7.6327    7.0123 H         1 RES1    0.0000
     31 C17        7.9456    9.1503    5.6701 C.ar      1 RES1    0.0000
     32 H14        7.9165    8.6167    4.9085 H         1 RES1    0.0000
     33 C18        6.1230   10.0744    2.9249 C.3       1 RES1    0.0000
     34 H15        5.6352   10.8907    2.7966 H         1 RES1    0.0000
     35 H16        5.8493    9.6646    3.7491 H         1 RES1    0.0000
     36 H17        5.9446    9.4767    2.1953 H         1 RES1    0.0000
     37 C19       11.7270   10.4560    1.8046 C.3       1 RES1    0.0000
     38 H18       11.6241    9.8257    1.0872 H         1 RES1    0.0000
     39 H19       12.3626   10.1184    2.4390 H         1 RES1    0.0000
     40 H20       12.0393   11.2930    1.4528 H         1 RES1    0.0000
     41 N1         9.1424   12.0965    4.0741 N.3       1 RES1    0.0000
     42 N2         8.9382   13.3643    4.4279 N.2       1 RES1    0.0000
     43 N3         9.4085   11.0896    1.5046 N.am      1 RES1    0.0000
     44 H21        9.6964   11.3829    0.7489 H         1 RES1    0.0000
     45 O2         7.2974   11.5092    0.8706 O.2       1 RES1    0.0000
     46 O3         7.9492   13.7857    4.8331 Du        3 SUP3    0.0000
     47 C20        7.7199   17.9867    3.7425 C.3       2 RES2    0.0000
     48 H22        7.9734   18.9324    3.7186 H         2 RES2    0.0000
     49 C21        8.4983   17.3867    4.9182 C.3       2 RES2    0.0000
     50 H23        8.5306   16.4142    4.7978 H         2 RES2    0.0000
     51 C22        7.8165   17.6760    6.2392 C.2       2 RES2    0.0000
     52 C23        6.0015   16.1373    5.5529 C.3       2 RES2    0.0000
     53 H24        6.6438   15.4805    5.2115 H         2 RES2    0.0000
     54 C24        5.3846   16.8914    4.3852 C.3       2 RES2    0.0000
     55 H25        4.5893   17.3323    4.7513 H         2 RES2    0.0000
     56 C25        4.8703   15.9792    3.2858 C.ar      2 RES2    0.0000
     57 C26        5.5519   14.8835    2.8359 C.ar      2 RES2    0.0000
     58 H26        6.3774   14.6787    3.2135 H         2 RES2    0.0000
     59 C27        5.0513   14.0706    1.8385 C.ar      2 RES2    0.0000
     60 H27        5.5447   13.3364    1.5522 H         2 RES2    0.0000
     61 C28        3.8776   14.3270    1.2844 C.ar      2 RES2    0.0000
     62 H28        3.5519   13.7905    0.5981 H         2 RES2    0.0000
     63 C29        3.1764   15.3541    1.7206 C.ar      2 RES2    0.0000
     64 H29        2.3388   15.5203    1.3518 H         2 RES2    0.0000
     65 C30        3.6591   16.2007    2.7244 C.ar      2 RES2    0.0000
     66 H30        3.1443   16.9216    3.0067 H         2 RES2    0.0000
     67 C31        8.1022   17.4339    2.3808 C.ar      2 RES2    0.0000
     68 C32        7.9141   18.1970    1.3021 C.ar      2 RES2    0.0000
     69 H31        7.5964   19.0649    1.3983 H         2 RES2    0.0000
     70 C33        8.1958   17.6847    0.0144 C.ar      2 RES2    0.0000
     71 H32        8.0670   18.2254   -0.7312 H         2 RES2    0.0000
     72 C34        8.6444   16.4426   -0.1459 C.ar      2 RES2    0.0000
     73 H33        8.8219   16.1107   -0.9974 H         2 RES2    0.0000
     74 C35        8.8291   15.7050    0.8948 C.ar      2 RES2    0.0000
     75 H34        9.1465   14.8372    0.7922 H         2 RES2    0.0000
     76 C36        8.5620   16.1850    2.1568 C.ar      2 RES2    0.0000
     77 H35        8.7051   15.6251    2.8864 H         2 RES2    0.0000
     78 C37        9.9120   17.9071    4.9101 C.3       2 RES2    0.0000
     79 H36        9.9038   18.8554    5.0576 H         2 RES2    0.0000
     80 H37       10.3180   17.7173    4.0618 H         2 RES2    0.0000
     81 H38       10.4141   17.4800    5.6092 H         2 RES2    0.0000
     82 C38        4.9057   15.4207    6.3100 C.3       2 RES2    0.0000
     83 H39        5.2953   14.7582    6.8856 H         2 RES2    0.0000
     84 H40        4.3129   14.9934    5.6862 H         2 RES2    0.0000
     85 H41        4.4139   16.0546    6.8375 H         2 RES2    0.0000
     86 N4         6.2543   17.9797    3.9147 N.3       2 RES2    0.0000
     87 N5         5.7708   19.1960    3.5589 N.2       2 RES2    0.0000
     88 N6         6.6848   17.0542    6.4714 N.am      2 RES2    0.0000
     89 H42        6.3095   17.1976    7.2320 H         2 RES2    0.0000
     90 O4         8.3370   18.4623    7.0474 O.2       2 RES2    0.0000
     91 O5         4.5762   19.2475    3.6003 O.2       2 RES2    0.0000
@<TRIPOS>BOND
     1    1   42 2
     2    2    3 1
     3    4    2 1
     4    5    4 1
     5    6    4 1
     6    7    8 1
     7    9    7 1
     8   10    9 1
     9   11    9 1
    10   12   11 ar
    11   13   12 1
    12   14   12 ar
    13   15   14 1
    14   16   14 ar
    15   17   16 1
    16   18   16 ar
    17   19   18 1
    18   20   11 ar
    19   21   20 1
    20   22    2 1
    21   23   22 ar
    22   24   23 1
    23   25   23 ar
    24   26   25 1
    25   27   25 ar
    26   28   27 1
    27   29   27 ar
    28   30   29 1
    29   31   22 ar
    30   32   31 1
    31   33    4 1
    32   34   33 1
    33   35   33 1
    34   36   33 1
    35   37    7 1
    36   38   37 1
    37   39   37 1
    38   40   37 1
    39   41    2 1
    40   42   41 1
    41   43    6 1
    42   44   43 1
    43   45    6 2
    44   47   48 1
    45   49   47 1
    46   50   49 1
    47   51   49 1
    48   52   53 1
    49   54   52 1
    50   55   54 1
    51   56   54 1
    52   57   56 ar
    53   58   57 1
    54   59   57 ar
    55   60   59 1
    56   61   59 ar
    57   62   61 1
    58   63   61 ar
    59   64   63 1
    60   65   56 ar
    61   66   65 1
    62   67   47 1
    63   68   67 ar
    64   69   68 1
    65   70   68 ar
    66   71   70 1
    67   72   70 ar
    68   73   72 1
    69   74   72 ar
    70   75   74 1
    71   76   67 ar
    72   77   76 1
    73   78   49 1
    74   79   78 1
    75   80   78 1
    76   81   78 1
    77   82   52 1
    78   83   82 1
    79   84   82 1
    80   85   82 1
    81   86   47 1
    82   87   86 1
    83   88   51 1
    84   89   88 1
    85   90   51 2
    86   91   87 2
    87    7   43 1
    88    9   41 1
    89   18   20 ar
    90   29   31 ar
    91   52   88 1
    92   54   86 1
    93   63   65 ar
    94   74   76 ar
@<TRIPOS>SUBSTRUCTURE
     1 RES1 1
     2 RES2 47
     3 SUP3 46

@<TRIPOS>CRYSIN
   9.1789   12.7776   16.0615  89.2550  86.7580  70.5070   2 1

