# MOL2 file generated by ConQuest
# Please check atom types

@<TRIPOS>MOLECULE
ZAKDOH
   112   120     2
SMALL
NO_CHARGES
****
Generated from CSD

@<TRIPOS>ATOM
      1 C1         2.5532    2.7129   12.8677 C.2       1 RES1    0.0000
      2 C2         3.3523    3.8868   12.7031 C.2       1 RES1    0.0000
      3 C3         3.9304    4.5180   11.5372 C.2       1 RES1    0.0000
      4 C4         4.9352    5.6448   11.8837 C.3       1 RES1    0.0000
      5 C5         5.0129    6.5837   10.6900 C.2       1 RES1    0.0000
      6 C6         3.8425    7.5435   10.4874 C.3       1 RES1    0.0000
      7 H1         3.1834    7.1262    9.8613 H         1 RES1    0.0000
      8 C7         4.5188    9.6639   11.0674 C.3       1 RES1    0.0000
      9 C8         3.1263    7.9243   11.7854 C.3       1 RES1    0.0000
     10 H2         2.1747    8.1488   11.5769 H         1 RES1    0.0000
     11 C9         4.4484    6.4417   13.1109 C.3       1 RES1    0.0000
     12 H3         5.0777    7.1951   13.3000 H         1 RES1    0.0000
     13 C10        4.2677    5.5729   14.3820 C.3       1 RES1    0.0000
     14 H4         5.1749    5.2224   14.6169 H         1 RES1    0.0000
     15 C11        3.4487    4.3861   13.9645 C.2       1 RES1    0.0000
     16 C12        1.6332    0.6310   12.2020 C.3       1 RES1    0.0000
     17 H5         0.6542    0.7453   12.1065 H         1 RES1    0.0000
     18 H6         1.8284    0.3797   13.1393 H         1 RES1    0.0000
     19 C13        2.1201   -0.4406   11.2688 C.ar      1 RES1    0.0000
     20 C14        2.4181   -0.1800    9.9325 C.ar      1 RES1    0.0000
     21 H7         2.3340    0.7029    9.5935 H         1 RES1    0.0000
     22 C15        2.8399   -1.2045    9.0924 C.ar      1 RES1    0.0000
     23 H8         3.0404   -1.0155    8.1831 H         1 RES1    0.0000
     24 C16        2.9673   -2.4815    9.5644 C.ar      1 RES1    0.0000
     25 H9         3.2469   -3.1790    8.9830 H         1 RES1    0.0000
     26 C17        2.6897   -2.7503   10.8810 C.ar      1 RES1    0.0000
     27 H10        2.7787   -3.6364   11.2131 H         1 RES1    0.0000
     28 C18        2.2782   -1.7318   11.7278 C.ar      1 RES1    0.0000
     29 H11        2.1031   -1.9268   12.6409 H         1 RES1    0.0000
     30 C19        5.9918    9.6828   11.4016 C.3       1 RES1    0.0000
     31 H12        6.4857   10.1233   10.6786 H         1 RES1    0.0000
     32 H13        6.3157    8.7634   11.5047 H         1 RES1    0.0000
     33 H14        6.1306   10.1745   12.2385 H         1 RES1    0.0000
     34 C20        3.9678   11.0259   10.7398 C.3       1 RES1    0.0000
     35 H15        4.1946   11.6527   11.4586 H         1 RES1    0.0000
     36 H16        2.9936   10.9710   10.6500 H         1 RES1    0.0000
     37 H17        4.3560   11.3419    9.8975 H         1 RES1    0.0000
     38 C21        4.6384    7.3394   15.9857 C.3       1 RES1    0.0000
     39 H18        5.5635    7.0202   16.0161 H         1 RES1    0.0000
     40 H19        4.3728    7.6560   16.8745 H         1 RES1    0.0000
     41 H20        4.5671    8.0746   15.3421 H         1 RES1    0.0000
     42 C22        2.3700    6.7117   15.5439 C.3       1 RES1    0.0000
     43 H21        2.3110    7.5324   15.0107 H         1 RES1    0.0000
     44 H22        2.0644    6.8931   16.4572 H         1 RES1    0.0000
     45 H23        1.8051    6.0189   15.1415 H         1 RES1    0.0000
     46 N1         2.1588    2.5414   14.1019 N.2       1 RES1    0.0000
     47 N2         3.7606    6.2495   15.5772 N.3       1 RES1    0.0000
     48 O1         2.3139    1.8738   11.8671 O.3       1 RES1    0.0000
     49 O2         3.7034    4.2063   10.3832 O.2       1 RES1    0.0000
     50 O3         6.1746    5.0353   12.1560 O.3       1 RES1    0.0000
     51 O4         5.9469    6.5648    9.9343 O.2       1 RES1    0.0000
     52 O5         4.2468    8.7865    9.9655 O.3       1 RES1    0.0000
     53 O6         3.7988    9.1032   12.1896 O.3       1 RES1    0.0000
     54 O7         3.1543    6.9581   12.7896 O.3       1 RES1    0.0000
     55 O8         2.7572    3.6436   14.8248 O.3       1 RES1    0.0000
     56 H24        6.5881    4.8268   11.3876 H         1 RES1    0.0000
     57 C23        0.5216    7.4916    8.3697 C.2       2 RES2    0.0000
     58 C24        0.0500    6.2640    7.8265 C.2       2 RES2    0.0000
     59 C25        0.2722    5.5837    6.5533 C.2       2 RES2    0.0000
     60 C26       -0.7694    4.4746    6.2761 C.3       2 RES2    0.0000
     61 C27       -0.1855    3.5165    5.2418 C.2       2 RES2    0.0000
     62 C28        0.8457    2.5073    5.7178 C.3       2 RES2    0.0000
     63 H25        1.7600    2.9070    5.6601 H         2 RES2    0.0000
     64 C29       -0.1232    0.4200    5.6203 C.3       2 RES2    0.0000
     65 C30        0.5827    2.0303    7.1405 C.3       2 RES2    0.0000
     66 H26        1.4268    1.6584    7.5265 H         2 RES2    0.0000
     67 C31       -1.1102    3.6657    7.5542 C.3       2 RES2    0.0000
     68 H27       -1.8104    2.9865    7.3359 H         2 RES2    0.0000
     69 C32       -1.5991    4.5389    8.7359 C.3       2 RES2    0.0000
     70 H28       -2.5124    4.8621    8.4871 H         2 RES2    0.0000
     71 C33       -0.7294    5.7517    8.8036 C.2       2 RES2    0.0000
     72 C34        1.3899    9.6865    8.3103 C.3       2 RES2    0.0000
     73 H29        2.2398    9.7171    8.8185 H         2 RES2    0.0000
     74 H30        0.6456    9.8478    8.9419 H         2 RES2    0.0000
     75 C35        1.3937   10.7467    7.2471 C.ar      2 RES2    0.0000
     76 C36        1.4848   10.4557    5.8876 C.ar      2 RES2    0.0000
     77 H31        1.4989    9.5528    5.5941 H         2 RES2    0.0000
     78 C37        1.5556   11.4888    4.9612 C.ar      2 RES2    0.0000
     79 H32        1.6185   11.2854    4.0355 H         2 RES2    0.0000
     80 C38        1.5353   12.8012    5.3695 C.ar      2 RES2    0.0000
     81 H33        1.5961   13.5001    4.7295 H         2 RES2    0.0000
     82 C39        1.4249   13.1034    6.7209 C.ar      2 RES2    0.0000
     83 H34        1.3973   14.0087    7.0057 H         2 RES2    0.0000
     84 C40        1.3548   12.0838    7.6511 C.ar      2 RES2    0.0000
     85 H35        1.2793   12.2938    8.5743 H         2 RES2    0.0000
     86 C41       -1.4382    0.3518    4.8999 C.3       2 RES2    0.0000
     87 H36       -1.3087   -0.0618    4.0205 H         2 RES2    0.0000
     88 H37       -1.7957    1.2575    4.7855 H         2 RES2    0.0000
     89 H38       -2.0699   -0.1837    5.4234 H         2 RES2    0.0000
     90 C42        0.5589   -0.9272    5.7252 C.3       2 RES2    0.0000
     91 H39       -0.0601   -1.5771    6.1186 H         2 RES2    0.0000
     92 H40        1.3531   -0.8477    6.2931 H         2 RES2    0.0000
     93 H41        0.8250   -1.2292    4.8316 H         2 RES2    0.0000
     94 C43       -2.5949    2.6908    9.9507 C.3       2 RES2    0.0000
     95 H42       -3.4544    2.9388    9.5499 H         2 RES2    0.0000
     96 H43       -2.7458    2.3260   10.8468 H         2 RES2    0.0000
     97 H44       -2.1567    2.0151    9.3916 H         2 RES2    0.0000
     98 C44       -0.4873    3.5470   10.7571 C.3       2 RES2    0.0000
     99 H45       -0.1036    2.7286   10.3796 H         2 RES2    0.0000
    100 H46       -0.6798    3.4086   11.7078 H         2 RES2    0.0000
    101 H47        0.1511    4.2828   10.6562 H         2 RES2    0.0000
    102 N3         0.1135    7.6755    9.6063 N.2       2 RES2    0.0000
    103 N4        -1.7374    3.8789   10.0449 N.3       2 RES2    0.0000
    104 O9         1.2354    8.3787    7.6871 O.3       2 RES2    0.0000
    105 O10        1.1268    5.8792    5.7444 O.2       2 RES2    0.0000
    106 O11       -1.9302    5.1107    5.8007 O.3       2 RES2    0.0000
    107 O12       -0.5292    3.5741    4.0886 O.2       2 RES2    0.0000
    108 O13        0.8004    1.3186    4.9728 O.3       2 RES2    0.0000
    109 O14       -0.3489    0.9745    6.9364 O.3       2 RES2    0.0000
    110 O15        0.0649    2.9976    8.0068 O.3       2 RES2    0.0000
    111 O16       -0.7109    6.5346    9.8825 O.3       2 RES2    0.0000
    112 H48       -1.8560    5.1535    4.9338 H         2 RES2    0.0000
@<TRIPOS>BOND
     1    1    2 1
     2    2    3 1
     3    3    4 1
     4    4    5 1
     5    5    6 1
     6    6    7 1
     7    8   30 1
     8    9    6 1
     9   10    9 1
    10   11    4 1
    11   12   11 1
    12   13   11 1
    13   14   13 1
    14   15    2 2
    15   16   17 1
    16   18   16 1
    17   19   16 1
    18   20   19 ar
    19   21   20 1
    20   22   20 ar
    21   23   22 1
    22   24   22 ar
    23   25   24 1
    24   26   24 ar
    25   27   26 1
    26   28   19 ar
    27   29   28 1
    28   30   31 1
    29   32   30 1
    30   33   30 1
    31   34    8 1
    32   35   34 1
    33   36   34 1
    34   37   34 1
    35   38   39 1
    36   40   38 1
    37   41   38 1
    38   42   43 1
    39   44   42 1
    40   45   42 1
    41   46    1 2
    42   47   13 1
    43   48    1 1
    44   49    3 2
    45   50    4 1
    46   51    5 2
    47   52    6 1
    48   53    8 1
    49   54    9 1
    50   55   15 1
    51   56   50 1
    52   57   58 1
    53   58   59 1
    54   59   60 1
    55   60   61 1
    56   61   62 1
    57   62   63 1
    58   64   86 1
    59   65   62 1
    60   66   65 1
    61   67   60 1
    62   68   67 1
    63   69   67 1
    64   70   69 1
    65   71   58 2
    66   72   73 1
    67   74   72 1
    68   75   72 1
    69   76   75 ar
    70   77   76 1
    71   78   76 ar
    72   79   78 1
    73   80   78 ar
    74   81   80 1
    75   82   80 ar
    76   83   82 1
    77   84   75 ar
    78   85   84 1
    79   86   87 1
    80   88   86 1
    81   89   86 1
    82   90   64 1
    83   91   90 1
    84   92   90 1
    85   93   90 1
    86   94   95 1
    87   96   94 1
    88   97   94 1
    89   98   99 1
    90  100   98 1
    91  101   98 1
    92  102   57 2
    93  103   69 1
    94  104   57 1
    95  105   59 2
    96  106   60 1
    97  107   61 2
    98  108   62 1
    99  109   64 1
   100  110   65 1
   101  111   71 1
   102  112  106 1
   103    8   52 1
   104    9   53 1
   105   11   54 1
   106   13   15 1
   107   16   48 1
   108   26   28 ar
   109   38   47 1
   110   42   47 1
   111   46   55 1
   112   64  108 1
   113   65  109 1
   114   67  110 1
   115   69   71 1
   116   72  104 1
   117   82   84 ar
   118   94  103 1
   119   98  103 1
   120  102  111 1
@<TRIPOS>SUBSTRUCTURE
     1 RES1 1
     2 RES2 57

@<TRIPOS>CRYSIN
   9.5161   17.6610   13.0462  90.0000 107.2550  90.0000   4 1

