# MOL2 file generated by ConQuest
# Please check atom types

@<TRIPOS>MOLECULE
ZAKMUW
    52    56     1
SMALL
NO_CHARGES
****
Generated from CSD

@<TRIPOS>ATOM
      1 C1         1.3377    5.7867    3.8291 C.ar      1 RES1    0.0000
      2 H1         2.0548    5.4919    4.3773 H         1 RES1    0.0000
      3 C2         0.0967    5.1828    3.9359 C.ar      1 RES1    0.0000
      4 H2        -0.0368    4.4813    4.5633 H         1 RES1    0.0000
      5 C3        -0.9513    5.5975    3.1325 C.ar      1 RES1    0.0000
      6 H3        -1.8008    5.1818    3.2091 H         1 RES1    0.0000
      7 C4        -0.7612    6.6242    2.2114 C.ar      1 RES1    0.0000
      8 H4        -1.4785    6.9042    1.6546 H         1 RES1    0.0000
      9 C5         0.4834    7.2389    2.1080 C.ar      1 RES1    0.0000
     10 H5         0.6120    7.9422    1.4815 H         1 RES1    0.0000
     11 C6         1.5416    6.8303    2.9164 C.ar      1 RES1    0.0000
     12 C7         2.8528    7.5338    2.8619 C.2       1 RES1    0.0000
     13 C8         3.2568    8.2544    1.6355 C.2       1 RES1    0.0000
     14 C9         3.3653    7.8307    0.3032 C.2       1 RES1    0.0000
     15 C10        2.9369    6.7052   -0.4336 C.2       1 RES1    0.0000
     16 H6         2.4314    6.0141   -0.0224 H         1 RES1    0.0000
     17 C11        3.2751    6.6417   -1.7652 C.2       1 RES1    0.0000
     18 H7         2.9920    5.8952   -2.2799 H         1 RES1    0.0000
     19 C12        4.0387    7.6670   -2.3920 C.2       1 RES1    0.0000
     20 H8         4.2743    7.5727   -3.3080 H         1 RES1    0.0000
     21 C13        4.4420    8.7809   -1.7131 C.2       1 RES1    0.0000
     22 H9         4.9405    9.4670   -2.1433 H         1 RES1    0.0000
     23 C14        4.0898    8.8765   -0.3403 C.2       1 RES1    0.0000
     24 C15        3.8774   10.3967    2.7820 C.ar      1 RES1    0.0000
     25 C16        5.0532   11.0783    3.0564 C.ar      1 RES1    0.0000
     26 H10        5.8380   10.9083    2.5496 H         1 RES1    0.0000
     27 C17        5.0659   12.0113    4.0816 C.ar      1 RES1    0.0000
     28 H11        5.8657   12.4845    4.2783 H         1 RES1    0.0000
     29 C18        3.9168   12.2599    4.8249 C.ar      1 RES1    0.0000
     30 H12        3.9328   12.9007    5.5266 H         1 RES1    0.0000
     31 C19        2.7434   11.5680    4.5390 C.ar      1 RES1    0.0000
     32 H13        1.9584   11.7374    5.0462 H         1 RES1    0.0000
     33 C20        2.7150   10.6324    3.5166 C.ar      1 RES1    0.0000
     34 H14        1.9164   10.1579    3.3186 H         1 RES1    0.0000
     35 C21        3.6862    7.5664    3.8863 C.2       1 RES1    0.0000
     36 C22        4.5171    7.7788    4.8779 C.2       1 RES1    0.0000
     37 H15        4.3706    8.5576    5.4018 H         1 RES1    0.0000
     38 C23        5.6527    6.9282    5.2574 C.ar      1 RES1    0.0000
     39 C24        6.5773    7.4078    6.1903 C.ar      1 RES1    0.0000
     40 H16        6.4434    8.2587    6.5924 H         1 RES1    0.0000
     41 C25        7.6875    6.6510    6.5342 C.ar      1 RES1    0.0000
     42 H17        8.3217    6.9749    7.1624 H         1 RES1    0.0000
     43 C26        7.8488    5.4137    5.9407 C.ar      1 RES1    0.0000
     44 C27        6.9406    4.8992    5.0281 C.ar      1 RES1    0.0000
     45 H18        7.0712    4.0394    4.6458 H         1 RES1    0.0000
     46 C28        5.8419    5.6638    4.6880 C.ar      1 RES1    0.0000
     47 H19        5.2102    5.3296    4.0628 H         1 RES1    0.0000
     48 N1         4.3711    9.8931    0.5036 N.2       1 RES1    0.0000
     49 N2         3.8490    9.4783    1.6860 N.pl3     1 RES1    0.0000
     50 N3         9.0334    4.6178    6.2735 N.pl3     1 RES1    0.0000
     51 O1         9.2094    3.5556    5.6929 O.2       1 RES1    0.0000
     52 O2         9.8157    5.0663    7.1029 O.2       1 RES1    0.0000
@<TRIPOS>BOND
     1    1    2 1
     2    3    1 ar
     3    4    3 1
     4    5    3 ar
     5    6    5 1
     6    7    5 ar
     7    8    7 1
     8    9    7 ar
     9   10    9 1
    10   11    1 ar
    11   12   11 1
    12   13   12 1
    13   14   13 2
    14   15   14 1
    15   16   15 1
    16   17   15 2
    17   18   17 1
    18   19   17 1
    19   20   19 1
    20   21   19 2
    21   22   21 1
    22   23   14 1
    23   24   25 ar
    24   25   26 1
    25   27   25 ar
    26   28   27 1
    27   29   27 ar
    28   30   29 1
    29   31   29 ar
    30   32   31 1
    31   33   24 ar
    32   34   33 1
    33   35   12 2
    34   36   35 2
    35   37   36 1
    36   38   36 1
    37   39   38 ar
    38   40   39 1
    39   41   39 ar
    40   42   41 1
    41   43   41 ar
    42   44   43 ar
    43   45   44 1
    44   46   38 ar
    45   47   46 1
    46   48   23 2
    47   49   13 1
    48   50   43 1
    49   51   50 2
    50   52   50 2
    51    9   11 ar
    52   21   23 1
    53   24   49 1
    54   31   33 ar
    55   44   46 ar
    56   48   49 1
@<TRIPOS>SUBSTRUCTURE
     1 RES1 1

@<TRIPOS>CRYSIN
  11.5198   16.0676   12.8839  90.0000 113.9310  90.0000  14 1

