# MOL2 file generated by ConQuest
# Please check atom types

@<TRIPOS>MOLECULE
ZAKNEE
    88    94     2
SMALL
NO_CHARGES
****
Generated from CSD

@<TRIPOS>ATOM
      1 C1         3.8737    7.7811    6.4907 C.ar      1 RES1    0.0000
      2 C2         4.7513    8.8316    6.4057 C.ar      1 RES1    0.0000
      3 H1         4.5836    9.6066    6.9288 H         1 RES1    0.0000
      4 C3         5.8793    8.8101    5.5850 C.ar      1 RES1    0.0000
      5 H2         6.4547    9.5649    5.5425 H         1 RES1    0.0000
      6 C4         6.1476    7.7051    4.8508 C.ar      1 RES1    0.0000
      7 H3         6.9160    7.6907    4.2924 H         1 RES1    0.0000
      8 C5         5.3023    6.5713    4.9035 C.ar      1 RES1    0.0000
      9 C6         5.6317    5.4462    4.1136 C.ar      1 RES1    0.0000
     10 H4         6.4128    5.4591    3.5743 H         1 RES1    0.0000
     11 C7         4.8331    4.3469    4.1239 C.ar      1 RES1    0.0000
     12 H5         5.0424    3.6021    3.5729 H         1 RES1    0.0000
     13 C8         3.7000    4.3139    4.9490 C.ar      1 RES1    0.0000
     14 H6         3.1577    3.5332    4.9490 H         1 RES1    0.0000
     15 C9         3.3426    5.3687    5.7594 C.ar      1 RES1    0.0000
     16 C10        4.1328    6.5756    5.7418 C.ar      1 RES1    0.0000
     17 C11        2.6779    8.0079    7.3568 C.ar      1 RES1    0.0000
     18 C12        2.8548    8.2734    8.7226 C.ar      1 RES1    0.0000
     19 H7         3.7324    8.2934    9.0860 H         1 RES1    0.0000
     20 C13        1.7656    8.5087    9.5506 C.ar      1 RES1    0.0000
     21 H8         1.8909    8.6895   10.4753 H         1 RES1    0.0000
     22 C14        0.5072    8.4771    9.0098 C.ar      1 RES1    0.0000
     23 C15        0.2887    8.2561    7.6630 C.ar      1 RES1    0.0000
     24 H9        -0.5915    8.2561    7.3055 H         1 RES1    0.0000
     25 C16        1.3854    8.0380    6.8512 C.ar      1 RES1    0.0000
     26 H10        1.2509    7.9045    5.9191 H         1 RES1    0.0000
     27 N1        -0.6650    8.6881    9.8628 N.pl3     1 RES1    0.0000
     28 O1        -0.4948    9.1114   10.9912 O.2       1 RES1    0.0000
     29 O2        -1.7842    8.4901    9.4128 O.2       1 RES1    0.0000
     30 C17        2.1282    5.1721    6.6006 C.ar      1 RES1    0.0000
     31 C18        2.1798    5.1764    7.9972 C.ar      1 RES1    0.0000
     32 H11        3.0174    5.2883    8.4324 H         1 RES1    0.0000
     33 C19        1.0410    5.0214    8.7548 C.ar      1 RES1    0.0000
     34 H12        1.0976    5.0214    9.7030 H         1 RES1    0.0000
     35 C20       -0.1859    4.8664    8.1364 C.ar      1 RES1    0.0000
     36 C21       -0.2621    4.7961    6.7530 C.ar      1 RES1    0.0000
     37 H13       -1.0972    4.6540    6.3221 H         1 RES1    0.0000
     38 C22        0.8944    4.9382    6.0070 C.ar      1 RES1    0.0000
     39 H14        0.8437    4.8736    5.0618 H         1 RES1    0.0000
     40 O3        -1.2734    4.7731    8.9864 O.3       1 RES1    0.0000
     41 C23       -2.5460    4.7243    8.3548 C.3       1 RES1    0.0000
     42 H15       -2.7152    5.5739    7.8961 H         1 RES1    0.0000
     43 H16       -3.2404    4.5737    9.0289 H         1 RES1    0.0000
     44 H17       -2.5597    3.9924    7.7026 H         1 RES1    0.0000
     45 C24        8.0684    6.2757   15.4741 C.ar      2 RES2    0.0000
     46 C25        8.9487    5.2309   15.5532 C.ar      2 RES2    0.0000
     47 H18        8.7857    4.4560   15.0286 H         2 RES2    0.0000
     48 C26       10.0886    5.2596   16.3813 C.ar      2 RES2    0.0000
     49 H19       10.6738    4.5134   16.4194 H         2 RES2    0.0000
     50 C27       10.3405    6.3647   17.1213 C.ar      2 RES2    0.0000
     51 H20       11.1024    6.3805   17.6885 H         2 RES2    0.0000
     52 C28        9.4973    7.4898   17.0671 C.ar      2 RES2    0.0000
     53 C29        9.8067    8.6206   17.8511 C.ar      2 RES2    0.0000
     54 H21       10.5914    8.6149   18.3875 H         2 RES2    0.0000
     55 C30        9.0081    9.7142   17.8570 C.ar      2 RES2    0.0000
     56 H22        9.2082   10.4561   18.4168 H         2 RES2    0.0000
     57 C31        7.8750    9.7357   17.0187 C.ar      2 RES2    0.0000
     58 H23        7.3243   10.5107   17.0187 H         2 RES2    0.0000
     59 C32        7.5328    8.6852   16.2025 C.ar      2 RES2    0.0000
     60 C33        8.3220    7.4812   16.2244 C.ar      2 RES2    0.0000
     61 C34        6.8737    6.0432   14.5992 C.ar      2 RES2    0.0000
     62 C35        5.5843    6.0131   15.1224 C.ar      2 RES2    0.0000
     63 H24        5.4507    6.1465   16.0530 H         2 RES2    0.0000
     64 C36        4.4901    5.7906   14.2959 C.ar      2 RES2    0.0000
     65 H25        3.6066    5.7978   14.6461 H         2 RES2    0.0000
     66 C37        4.7175    5.5581   12.9549 C.ar      2 RES2    0.0000
     67 C38        5.9782    5.5323   12.4098 C.ar      2 RES2    0.0000
     68 H26        6.1059    5.3529   11.4865 H         2 RES2    0.0000
     69 C39        7.0563    5.7748   13.2407 C.ar      2 RES2    0.0000
     70 H27        7.9357    5.7576   12.8817 H         2 RES2    0.0000
     71 N2         3.5388    5.3443   12.0991 N.pl3     2 RES2    0.0000
     72 O4         3.7247    4.9238   10.9765 O.2       2 RES2    0.0000
     73 O5         2.4273    5.5553   12.5475 O.2       2 RES2    0.0000
     74 C40        6.3245    8.8861   15.3613 C.ar      2 RES2    0.0000
     75 C41        5.0848    9.1100   15.9577 C.ar      2 RES2    0.0000
     76 H28        5.0272    9.1602   16.9044 H         2 RES2    0.0000
     77 C42        3.9353    9.2607   15.2001 C.ar      2 RES2    0.0000
     78 H29        3.0997    9.4085   15.6265 H         2 RES2    0.0000
     79 C43        4.0097    9.1933   13.8152 C.ar      2 RES2    0.0000
     80 C44        5.2411    9.0253   13.1997 C.ar      2 RES2    0.0000
     81 H30        5.2986    9.0110   12.2515 H         2 RES2    0.0000
     82 C45        6.3795    8.8818   13.9588 C.ar      2 RES2    0.0000
     83 H31        7.2185    8.7756   13.5250 H         2 RES2    0.0000
     84 O6         2.9316    9.2751   12.9769 O.3       2 RES2    0.0000
     85 C46        1.6521    9.3195   13.5895 C.3       2 RES2    0.0000
     86 H32        1.4837    8.4728   14.0555 H         2 RES2    0.0000
     87 H33        0.9660    9.4559   12.9036 H         2 RES2    0.0000
     88 H34        1.6227   10.0572   14.2328 H         2 RES2    0.0000
@<TRIPOS>BOND
     1    1    2 ar
     2    2    3 1
     3    4    2 ar
     4    5    4 1
     5    6    4 ar
     6    7    6 1
     7    8    6 ar
     8    9    8 ar
     9   10    9 1
    10   11    9 ar
    11   12   11 1
    12   13   11 ar
    13   14   13 1
    14   15   13 ar
    15   16    1 ar
    16   17    1 1
    17   18   17 ar
    18   19   18 1
    19   20   18 ar
    20   21   20 1
    21   22   20 ar
    22   23   22 ar
    23   24   23 1
    24   25   17 ar
    25   26   25 1
    26   27   22 1
    27   28   27 2
    28   29   27 2
    29   30   15 1
    30   31   30 ar
    31   32   31 1
    32   33   31 ar
    33   34   33 1
    34   35   33 ar
    35   36   35 ar
    36   37   36 1
    37   38   30 ar
    38   39   38 1
    39   40   35 1
    40   41   40 1
    41   42   41 1
    42   43   41 1
    43   44   41 1
    44   45   46 ar
    45   46   47 1
    46   48   46 ar
    47   49   48 1
    48   50   48 ar
    49   51   50 1
    50   52   50 ar
    51   53   52 ar
    52   54   53 1
    53   55   53 ar
    54   56   55 1
    55   57   55 ar
    56   58   57 1
    57   59   57 ar
    58   60   45 ar
    59   61   45 1
    60   62   61 ar
    61   63   62 1
    62   64   62 ar
    63   65   64 1
    64   66   64 ar
    65   67   66 ar
    66   68   67 1
    67   69   61 ar
    68   70   69 1
    69   71   66 1
    70   72   71 2
    71   73   71 2
    72   74   59 1
    73   75   74 ar
    74   76   75 1
    75   77   75 ar
    76   78   77 1
    77   79   77 ar
    78   80   79 ar
    79   81   80 1
    80   82   74 ar
    81   83   82 1
    82   84   79 1
    83   85   84 1
    84   86   85 1
    85   87   85 1
    86   88   85 1
    87    8   16 ar
    88   15   16 ar
    89   23   25 ar
    90   36   38 ar
    91   52   60 ar
    92   59   60 ar
    93   67   69 ar
    94   80   82 ar
@<TRIPOS>SUBSTRUCTURE
     1 RES1 1
     2 RES2 45

@<TRIPOS>CRYSIN
   8.4593   14.3510   14.6550  90.0000  90.2070  90.0000   4 1

