# MOL2 file generated by ConQuest
# Please check atom types

@<TRIPOS>MOLECULE
ZAKQIL10
    92    94     2
SMALL
NO_CHARGES
****
Generated from CSD

@<TRIPOS>ATOM
      1 O1        -2.1459   10.7043   14.8004 O.3       1 RES1    0.0000
      2 N1        -1.1288   11.1425   15.6507 N.am      1 RES1    0.0000
      3 O2        -1.2305    9.1518   16.6839 O.2       1 RES1    0.0000
      4 C1        -0.7397   10.2434   16.6683 C.2       1 RES1    0.0000
      5 C2         0.3143   10.7974   17.5826 C.3       1 RES1    0.0000
      6 C3         0.2573   12.3196   17.6952 C.3       1 RES1    0.0000
      7 C4         0.4118   12.9190   16.3041 C.3       1 RES1    0.0000
      8 O3        -1.0449   13.0780   14.4050 O.2       1 RES1    0.0000
      9 C5        -0.6231   12.4494   15.3553 C.2       1 RES1    0.0000
     10 C6        -1.6040   10.0303   13.6141 C.3       1 RES1    0.0000
     11 C7        -2.6191   10.2315   12.5575 C.ar      1 RES1    0.0000
     12 C8        -3.3892    9.1842   12.0964 C.ar      1 RES1    0.0000
     13 C9        -4.3804    9.2513   11.1210 C.ar      1 RES1    0.0000
     14 C10       -4.5774   10.5593   10.6224 C.ar      1 RES1    0.0000
     15 C11       -3.7826   11.6694   11.0226 C.ar      1 RES1    0.0000
     16 C12       -2.7997   11.4238   11.9698 C.ar      1 RES1    0.0000
     17 N2         0.2500   10.0898   18.8565 N.am      1 RES1    0.0000
     18 O4        -1.9230   10.6794   19.3442 O.2       1 RES1    0.0000
     19 C13       -0.8517   10.2478   19.6677 C.2       1 RES1    0.0000
     20 O5        -0.5322    9.7187   20.8525 O.3       1 RES1    0.0000
     21 C14       -1.4794    9.7328   21.9216 C.3       1 RES1    0.0000
     22 C15       -2.7488    8.8554   21.5950 C.3       1 RES1    0.0000
     23 C16       -1.8834   11.0538   22.3624 C.3       1 RES1    0.0000
     24 C17       -0.7189    9.0696   23.0892 C.3       1 RES1    0.0000
     25 O6         2.9698   10.1753   14.6472 O.3       2 RES2    0.0000
     26 N3         4.0095    9.7966   15.4757 N.am      2 RES2    0.0000
     27 O7         3.4247   11.5201   16.9074 O.2       2 RES2    0.0000
     28 C18        3.9737   10.4750   16.6792 C.2       2 RES2    0.0000
     29 C19        4.8086    9.6982   17.7843 C.3       2 RES2    0.0000
     30 C20        6.0555    9.0977   17.2669 C.3       2 RES2    0.0000
     31 O8         3.0248    9.9827   19.8772 O.2       2 RES2    0.0000
     32 C21        5.7620    8.1792   16.1024 C.3       2 RES2    0.0000
     33 O9         4.3935    8.0785   14.1142 O.2       2 RES2    0.0000
     34 C22        4.6550    8.5881   15.1584 C.2       2 RES2    0.0000
     35 C23        3.3729   11.0700   13.5719 C.3       2 RES2    0.0000
     36 C24        2.3357   10.9510   12.4355 C.ar      2 RES2    0.0000
     37 C25        1.5622   12.0123   12.1182 C.ar      2 RES2    0.0000
     38 C26        0.6119   11.7927   11.1538 C.ar      2 RES2    0.0000
     39 C27        0.5456   10.6015   10.4223 C.ar      2 RES2    0.0000
     40 C28        1.3478    9.6267   10.7647 C.ar      2 RES2    0.0000
     41 C29        2.2234    9.7263   11.7712 C.ar      2 RES2    0.0000
     42 N4         5.0376   10.5128   18.9769 N.am      2 RES2    0.0000
     43 C30        4.0840   10.5734   19.8865 C.2       2 RES2    0.0000
     44 O10        4.5146   11.3859   20.9135 O.3       2 RES2    0.0000
     45 C31        3.7057   11.6164   22.1045 C.3       2 RES2    0.0000
     46 C32        2.4688   12.2709   21.7716 C.3       2 RES2    0.0000
     47 C33        3.3488   10.2456   22.7985 C.3       2 RES2    0.0000
     48 C34        4.6141   12.3402   22.9970 C.3       2 RES2    0.0000
     49 H1         1.1397   10.4771   17.0324 H         1 RES1    0.0000
     50 H2         0.7375   12.4743   18.5533 H         1 RES1    0.0000
     51 H3        -0.6413   12.6961   18.0078 H         1 RES1    0.0000
     52 H4         1.2669   12.7513   15.7289 H         1 RES1    0.0000
     53 H5         0.2722   13.9414   16.5463 H         1 RES1    0.0000
     54 H6        -0.7819   10.6600   13.5453 H         1 RES1    0.0000
     55 H7        -1.4829    9.1009   14.0877 H         1 RES1    0.0000
     56 H8        -3.7159    8.2949   12.5434 H         1 RES1    0.0000
     57 H9        -4.8758    8.3079   10.9850 H         1 RES1    0.0000
     58 H10       -5.3530   10.3213    9.9597 H         1 RES1    0.0000
     59 H11       -3.8379   12.6290   10.6162 H         1 RES1    0.0000
     60 H12       -2.2037   12.1995   12.3621 H         1 RES1    0.0000
     61 H13        1.0027    9.4937   19.1394 H         1 RES1    0.0000
     62 H14       -3.0070    8.7785   20.5821 H         1 RES1    0.0000
     63 H15       -3.0892    8.6768   22.5734 H         1 RES1    0.0000
     64 H16       -2.8723    7.9530   21.0620 H         1 RES1    0.0000
     65 H17       -2.6378   11.2961   23.0329 H         1 RES1    0.0000
     66 H18       -2.0155   11.4151   21.3964 H         1 RES1    0.0000
     67 H19       -1.1963   11.8544   22.3671 H         1 RES1    0.0000
     68 H20       -0.2947    8.2278   22.7563 H         1 RES1    0.0000
     69 H21       -0.0086    9.6560   23.4690 H         1 RES1    0.0000
     70 H22       -1.3737    8.8499   23.8129 H         1 RES1    0.0000
     71 H23        4.0910    9.0382   18.1062 H         2 RES2    0.0000
     72 H24        1.7720   12.8162   12.7575 H         2 RES2    0.0000
     73 H25        0.0700   12.1497   10.3708 H         2 RES2    0.0000
     74 H26       -0.0242   10.0314    9.7502 H         2 RES2    0.0000
     75 H27        1.3114    8.8694   10.0503 H         2 RES2    0.0000
     76 H28        2.8710    8.9073   11.7525 H         2 RES2    0.0000
     77 H29        6.0194   10.4371   19.0910 H         2 RES2    0.0000
     78 H30        6.5844    9.8594   16.8980 H         2 RES2    0.0000
     79 H31        6.6931    8.7883   17.9953 H         2 RES2    0.0000
     80 H32        6.4803    8.0580   15.3897 H         2 RES2    0.0000
     81 H33        5.1625    7.5527   16.6057 H         2 RES2    0.0000
     82 H34        3.2393   11.8901   14.2174 H         2 RES2    0.0000
     83 H35        4.2983   10.8947   13.1874 H         2 RES2    0.0000
     84 H36        1.5906   12.4061   22.3093 H         2 RES2    0.0000
     85 H37        1.7476   11.8327   21.1589 H         2 RES2    0.0000
     86 H38        2.7144   13.2306   21.4605 H         2 RES2    0.0000
     87 H39        3.2693   10.2002   23.8473 H         2 RES2    0.0000
     88 H40        4.2904    9.7652   22.8704 H         2 RES2    0.0000
     89 H41        2.8967    9.5153   22.1811 H         2 RES2    0.0000
     90 H42        5.4010   11.7624   23.2143 H         2 RES2    0.0000
     91 H43        4.9417   13.2187   22.5187 H         2 RES2    0.0000
     92 H44        4.1329   12.5782   23.8410 H         2 RES2    0.0000
@<TRIPOS>BOND
     1    1    2 1
     2    2    4 1
     3    3    4 2
     4    4    5 1
     5    5    6 1
     6    6    7 1
     7    7    9 1
     8    8    9 2
     9    9    2 1
    10   10    1 1
    11   11   10 1
    12   12   11 ar
    13   13   12 ar
    14   14   13 ar
    15   15   14 ar
    16   16   11 ar
    17   17    5 1
    18   18   19 2
    19   19   17 1
    20   20   19 1
    21   21   20 1
    22   22   21 1
    23   23   21 1
    24   24   21 1
    25   25   26 1
    26   26   28 1
    27   27   28 2
    28   28   29 1
    29   29   30 1
    30   30   32 1
    31   31   43 2
    32   32   34 1
    33   33   34 2
    34   34   26 1
    35   35   25 1
    36   36   35 1
    37   37   36 ar
    38   38   37 ar
    39   39   38 ar
    40   40   39 ar
    41   41   36 ar
    42   42   29 1
    43   43   42 1
    44   44   43 1
    45   45   44 1
    46   46   45 1
    47   47   45 1
    48   48   45 1
    49   49    5 1
    50   50    6 1
    51   51    6 1
    52   52    7 1
    53   53    7 1
    54   54   10 1
    55   55   10 1
    56   56   12 1
    57   57   13 1
    58   58   14 1
    59   59   15 1
    60   60   16 1
    61   61   17 1
    62   62   22 1
    63   63   22 1
    64   64   22 1
    65   65   23 1
    66   66   23 1
    67   67   23 1
    68   68   24 1
    69   69   24 1
    70   70   24 1
    71   71   29 1
    72   72   37 1
    73   73   38 1
    74   74   39 1
    75   75   40 1
    76   76   41 1
    77   77   42 1
    78   78   30 1
    79   79   30 1
    80   80   32 1
    81   81   32 1
    82   82   35 1
    83   83   35 1
    84   84   46 1
    85   85   46 1
    86   86   46 1
    87   87   47 1
    88   88   47 1
    89   89   47 1
    90   90   48 1
    91   91   48 1
    92   92   48 1
    93   15   16 ar
    94   40   41 ar
@<TRIPOS>SUBSTRUCTURE
     1 RES1 1
     2 RES2 25

@<TRIPOS>CRYSIN
  10.2600   10.8190   16.2660  90.0000 106.0700  90.0000   4 1

