# MOL2 file generated by ConQuest
# Please check atom types

@<TRIPOS>MOLECULE
ZAMKAZ
    68    66     2
SMALL
NO_CHARGES
****
Generated from CSD

@<TRIPOS>ATOM
      1 C1         6.6830   -2.6856    7.3745 C.3       1 RES1    0.0000
      2 C2         4.2346   -2.9442    6.9634 C.3       1 RES1    0.0000
      3 C3         5.5996   -1.1088    5.8368 C.3       1 RES1    0.0000
      4 C4         5.3809   -1.9346    7.1105 C.3       1 RES1    0.0000
      5 C5         5.1474   -1.0804    8.4298 C.2       1 RES1    0.0000
      6 O1         5.7392   -1.2095    9.4082 O.2       1 RES1    0.0000
      7 N1         4.1037   -0.1585    8.3273 N.am      1 RES1    0.0000
      8 O2         3.3448    0.1056    7.1729 O.3       1 RES1    0.0000
      9 C6         3.7799    0.6829    9.4650 C.3       1 RES1    0.0000
     10 C7         4.4349    2.0453    9.4349 C.2       1 RES1    0.0000
     11 O3         5.6493    2.1692    9.2733 O.2       1 RES1    0.0000
     12 N2         3.6478    3.0667    9.6957 N.am      1 RES1    0.0000
     13 C8         4.1425    4.4129    9.9876 C.3       1 RES1    0.0000
     14 C9         3.0764    5.1381   10.7866 C.3       1 RES1    0.0000
     15 C10        4.5482    5.1462    8.7296 C.3       1 RES1    0.0000
     16 H1         2.4885   -0.3867    7.4659 H         1 RES1    0.0000
     17 H2         2.6491    2.8505    9.8283 H         1 RES1    0.0000
     18 C11       -1.4803    4.0660    7.1907 C.3       2 RES2    0.0000
     19 C12        0.0227    2.4287    5.9839 C.3       2 RES2    0.0000
     20 C13        0.9887    4.2477    7.3511 C.3       2 RES2    0.0000
     21 C14       -0.1585    3.2622    7.2486 C.3       2 RES2    0.0000
     22 C15       -0.1135    2.3460    8.4632 C.2       2 RES2    0.0000
     23 O4         0.7924    2.4182    9.3190 O.2       2 RES2    0.0000
     24 N3        -1.0495    1.4026    8.6504 N.am      2 RES2    0.0000
     25 O5        -2.0491    1.1744    7.7088 O.3       2 RES2    0.0000
     26 C16       -0.8512    0.3087    9.5865 C.3       2 RES2    0.0000
     27 C17        0.2948   -0.5972    9.1675 C.2       2 RES2    0.0000
     28 O6         0.7580   -0.5846    8.0275 O.2       2 RES2    0.0000
     29 N4         0.7199   -1.4136   10.1291 N.am      2 RES2    0.0000
     30 C18        1.7226   -2.4761    9.9063 C.3       2 RES2    0.0000
     31 C19        1.0738   -3.6805    9.3034 C.3       2 RES2    0.0000
     32 C20        2.3944   -2.7789   11.2178 C.3       2 RES2    0.0000
     33 H3        -2.8741    1.3964    8.2905 H         2 RES2    0.0000
     34 H4         0.3461   -1.2256   11.0652 H         2 RES2    0.0000
     35 H5         6.6321   -3.1497    8.2459 H         1 RES1    0.0000
     36 H6         7.3784   -1.8696    7.4993 H         1 RES1    0.0000
     37 H7         6.7309   -3.2514    6.7082 H         1 RES1    0.0000
     38 H8         3.4518   -2.3316    6.7973 H         1 RES1    0.0000
     39 H9         4.1161   -3.5376    7.8448 H         1 RES1    0.0000
     40 H10        4.3053   -3.4873    6.2513 H         1 RES1    0.0000
     41 H11        4.9282   -0.7376    5.6830 H         1 RES1    0.0000
     42 H12        6.0128   -1.7166    5.1816 H         1 RES1    0.0000
     43 H13        6.4627   -0.2572    6.1622 H         1 RES1    0.0000
     44 H14        2.8367    0.7947    9.4605 H         1 RES1    0.0000
     45 H15        4.2237    0.1800   10.3743 H         1 RES1    0.0000
     46 H16        5.0014    4.1844   10.5191 H         1 RES1    0.0000
     47 H17        3.4745    6.1262   10.9092 H         1 RES1    0.0000
     48 H18        3.0293    4.4662   11.8340 H         1 RES1    0.0000
     49 H19        2.4238    5.2034   10.2294 H         1 RES1    0.0000
     50 H20        4.9299    6.0082    9.0705 H         1 RES1    0.0000
     51 H21        3.6547    5.3844    8.2125 H         1 RES1    0.0000
     52 H22        5.5254    4.4645    8.5134 H         1 RES1    0.0000
     53 H23       -2.4051    3.4991    7.0982 H         2 RES2    0.0000
     54 H24       -1.5179    4.8304    6.4185 H         2 RES2    0.0000
     55 H25       -1.6299    4.7553    8.0677 H         2 RES2    0.0000
     56 H26        0.0800    3.1284    5.2039 H         2 RES2    0.0000
     57 H27       -0.8269    1.7559    5.8724 H         2 RES2    0.0000
     58 H28        0.8759    2.0084    6.0842 H         2 RES2    0.0000
     59 H29        1.0949    4.8121    6.6413 H         2 RES2    0.0000
     60 H30        1.8629    3.7714    7.4213 H         2 RES2    0.0000
     61 H31        0.9961    4.7932    8.1902 H         2 RES2    0.0000
     62 H32       -0.7413    0.6077   10.4523 H         2 RES2    0.0000
     63 H33       -1.6640   -0.2886    9.5831 H         2 RES2    0.0000
     64 H34        2.4400   -2.0191    9.3157 H         2 RES2    0.0000
     65 H35        1.7962   -4.3886    9.0817 H         2 RES2    0.0000
     66 H36        0.5672   -3.6238    8.5579 H         2 RES2    0.0000
     67 H37        0.4841   -4.0919   10.0511 H         2 RES2    0.0000
     68 H38        2.9466   -3.5458   11.1877 H         2 RES2    0.0000
@<TRIPOS>BOND
     1    1    4 1
     2    2    4 1
     3    3    4 1
     4    4    5 1
     5    5    6 2
     6    7    5 1
     7    8    7 1
     8    9    7 1
     9   10    9 1
    10   11   10 2
    11   12   10 1
    12   13   12 1
    13   14   13 1
    14   15   13 1
    15   16    8 1
    16   17   12 1
    17   18   21 1
    18   19   21 1
    19   20   21 1
    20   21   22 1
    21   22   23 2
    22   24   22 1
    23   25   24 1
    24   26   24 1
    25   27   26 1
    26   28   27 2
    27   29   27 1
    28   30   29 1
    29   31   30 1
    30   32   30 1
    31   33   25 1
    32   34   29 1
    33   35    1 1
    34   36    1 1
    35   37    1 1
    36   38    2 1
    37   39    2 1
    38   40    2 1
    39   41    3 1
    40   42    3 1
    41   43    3 1
    42   44    9 1
    43   45    9 1
    44   46   13 1
    45   47   14 1
    46   48   14 1
    47   49   14 1
    48   50   15 1
    49   51   15 1
    50   52   15 1
    51   53   18 1
    52   54   18 1
    53   55   18 1
    54   56   19 1
    55   57   19 1
    56   58   19 1
    57   59   20 1
    58   60   20 1
    59   61   20 1
    60   62   26 1
    61   63   26 1
    62   64   30 1
    63   65   31 1
    64   66   31 1
    65   67   31 1
    66   68   32 1
@<TRIPOS>SUBSTRUCTURE
     1 RES1 1
     2 RES2 18

@<TRIPOS>CRYSIN
   9.5980   11.6360   12.7590 110.6400 107.0700  96.5800   2 1

