# MOL2 file generated by ConQuest
# Please check atom types

@<TRIPOS>MOLECULE
ZAMLEE
    26    27     1
SMALL
USER_CHARGES
****
Generated from CSD

@<TRIPOS>ATOM
      1 N1         7.7225    0.9862    6.2057 N.pl3     1 RES1    1.0000
      2 O1         6.4462    1.1328    5.9624 O.2       1 RES1   -1.0000
      3 C1         8.1613   -0.0737    6.9447 C.ar      1 RES1    0.0000
      4 C2         9.5298   -0.2419    7.1171 C.ar      1 RES1    0.0000
      5 H1         9.7885   -1.0197    7.6143 H         1 RES1    0.0000
      6 C3        10.4348    0.6557    6.5945 C.ar      1 RES1    0.0000
      7 H2        11.4973    0.4912    6.7335 H         1 RES1    0.0000
      8 C4         9.9594    1.7320    5.8918 C.ar      1 RES1    0.0000
      9 H3        10.5761    2.4041    5.5394 H         1 RES1    0.0000
     10 C5         8.6079    1.8905    5.6978 C.ar      1 RES1    0.0000
     11 H4         8.2978    2.6274    5.1675 H         1 RES1    0.0000
     12 C6         7.1579   -1.0175    7.4853 C.ar      1 RES1    0.0000
     13 C7         6.2831   -0.6431    8.4939 C.ar      1 RES1    0.0000
     14 O2         6.4012    0.6408    8.9535 O.3       1 RES1    0.0000
     15 C8         5.4899    1.0800    9.9475 C.3       1 RES1    0.0000
     16 H5         5.7100    1.9798   10.0806 H         1 RES1    0.0000
     17 H6         5.6186    0.4987   10.7070 H         1 RES1    0.0000
     18 H7         4.4513    0.9676    9.5913 H         1 RES1    0.0000
     19 C9         5.3556   -1.5511    9.0040 C.ar      1 RES1    0.0000
     20 H8         4.7044   -1.2802    9.7674 H         1 RES1    0.0000
     21 C10        5.3324   -2.8417    8.4951 C.ar      1 RES1    0.0000
     22 H9         4.7255   -3.5131    8.8474 H         1 RES1    0.0000
     23 C11        6.1917   -3.2444    7.5105 C.ar      1 RES1    0.0000
     24 H10        6.2093   -4.1383    7.1054 H         1 RES1    0.0000
     25 C12        7.1241   -2.3222    7.0210 C.ar      1 RES1    0.0000
     26 H11        7.7352   -2.6423    6.3224 H         1 RES1    0.0000
@<TRIPOS>BOND
     1    1    2 1
     2    3    1 ar
     3    4    3 ar
     4    5    4 1
     5    6    4 ar
     6    7    6 1
     7    8    6 ar
     8    9    8 1
     9   10    1 ar
    10   11   10 1
    11   12    3 1
    12   13   12 ar
    13   14   13 1
    14   15   14 1
    15   16   15 1
    16   17   15 1
    17   18   15 1
    18   19   13 ar
    19   20   19 1
    20   21   19 ar
    21   22   21 1
    22   23   21 ar
    23   24   23 1
    24   25   12 ar
    25   26   25 1
    26    8   10 ar
    27   23   25 ar
@<TRIPOS>SUBSTRUCTURE
     1 RES1 1

@<TRIPOS>CRYSIN
   7.0320    7.4430   19.5740  90.0000  90.0000  90.0000  19 1

