# MOL2 file generated by ConQuest
# Please check atom types

@<TRIPOS>MOLECULE
ZAMVEO
    29    30     1
SMALL
NO_CHARGES
****
Generated from CSD

@<TRIPOS>ATOM
      1 O1         4.6259    1.3294    5.6321 O.2       1 RES1    0.0000
      2 O2         5.7636    2.0573    7.3175 O.2       1 RES1    0.0000
      3 O3        -2.4267    3.3582   11.4955 O.2       1 RES1    0.0000
      4 N1         4.7286    1.9558    6.6866 N.pl3     1 RES1    0.0000
      5 N2         2.2164    3.5194   10.4881 N.3       1 RES1    0.0000
      6 C1         2.5501    3.0168    6.3221 C.ar      1 RES1    0.0000
      7 C2         3.5231    2.6093    7.2074 C.ar      1 RES1    0.0000
      8 C3         3.4357    2.7726    8.5773 C.ar      1 RES1    0.0000
      9 C4         2.2753    3.3631    9.0981 C.ar      1 RES1    0.0000
     10 C5         1.2909    3.8165    8.2208 C.ar      1 RES1    0.0000
     11 C6         1.4325    3.6419    6.8569 C.ar      1 RES1    0.0000
     12 C7        -1.2467    3.5463   11.8380 C.2       1 RES1    0.0000
     13 C8        -0.9398    4.0193   13.2300 C.3       1 RES1    0.0000
     14 C9         0.4128    3.5556   13.6977 C.3       1 RES1    0.0000
     15 C10        1.4729    3.9781   12.7153 C.3       1 RES1    0.0000
     16 C11        1.1282    3.5895   11.3093 C.2       1 RES1    0.0000
     17 C12       -0.1632    3.3437   10.9377 C.2       1 RES1    0.0000
     18 H1         3.0248    3.4872   10.8456 H         1 RES1    0.0000
     19 H2         0.7505    3.9516    6.2750 H         1 RES1    0.0000
     20 H3         2.6262    2.8745    5.3707 H         1 RES1    0.0000
     21 H4         4.1501    2.5024    9.1592 H         1 RES1    0.0000
     22 H5         0.5027    4.2531    8.5583 H         1 RES1    0.0000
     23 H6        -0.3533    3.0168   10.0465 H         1 RES1    0.0000
     24 H7         2.3080    3.5906   12.9466 H         1 RES1    0.0000
     25 H8         1.5560    4.9327   12.7493 H         1 RES1    0.0000
     26 H9         0.4203    2.5970   13.7788 H         1 RES1    0.0000
     27 H10        0.6175    3.9185   14.5680 H         1 RES1    0.0000
     28 H11       -0.9566    4.9927   13.2290 H         1 RES1    0.0000
     29 H12       -1.6242    3.7219   13.8179 H         1 RES1    0.0000
@<TRIPOS>BOND
     1    1    4 2
     2    2    4 2
     3    3   12 2
     4    4    7 1
     5    5    9 1
     6    6    7 ar
     7    7    8 ar
     8    8    9 ar
     9    9   10 ar
    10   10   11 ar
    11   11    6 ar
    12   12   13 1
    13   13   14 1
    14   14   15 1
    15   15   16 1
    16   16    5 1
    17   17   12 1
    18   18    5 1
    19   19   11 1
    20   20    6 1
    21   21    8 1
    22   22   10 1
    23   23   17 1
    24   24   15 1
    25   25   15 1
    26   26   14 1
    27   27   14 1
    28   28   13 1
    29   29   13 1
    30   16   17 2
@<TRIPOS>SUBSTRUCTURE
     1 RES1 1

@<TRIPOS>CRYSIN
   7.3120    8.3490   10.3580  98.8200  96.9800 114.7000   2 1

