# MOL2 file generated by ConQuest
# Please check atom types

@<TRIPOS>MOLECULE
ZAMWIT01
    27    28     1
SMALL
NO_CHARGES
****
Generated from CSD

@<TRIPOS>ATOM
      1 N1         3.6988    1.3785   10.2609 N.pl3     1 RES1    0.0000
      2 C1         4.1222    1.3351   11.6460 C.ar      1 RES1    0.0000
      3 C2         3.2070    0.9916   12.6328 C.ar      1 RES1    0.0000
      4 H1         2.2237    0.8382   12.4239 H         1 RES1    0.0000
      5 C3         3.6605    0.9130   13.9459 C.ar      1 RES1    0.0000
      6 H2         2.9871    0.6511   14.6314 H         1 RES1    0.0000
      7 C4         4.9889    1.1375   14.2771 C.ar      1 RES1    0.0000
      8 C5         5.4733    0.9766   15.7063 C.3       1 RES1    0.0000
      9 H3         5.5163    0.0239   15.9308 H         1 RES1    0.0000
     10 H4         4.8522    1.4286   16.3141 H         1 RES1    0.0000
     11 H5         6.3643    1.3740   15.7960 H         1 RES1    0.0000
     12 C6         5.8675    1.4877   13.2681 C.ar      1 RES1    0.0000
     13 H6         6.8049    1.6539   13.4487 H         1 RES1    0.0000
     14 C7         5.4509    1.5843   11.9439 C.ar      1 RES1    0.0000
     15 H7         6.1224    1.7586   11.2495 H         1 RES1    0.0000
     16 C8         2.6026    2.0296    9.7306 C.2       1 RES1    0.0000
     17 C9         1.6812    2.9006   10.5147 C.3       1 RES1    0.0000
     18 H8         0.8607    2.4172   10.7724 H         1 RES1    0.0000
     19 H9         2.0303    3.1730   11.3959 H         1 RES1    0.0000
     20 H10        1.4428    3.6819    9.9928 H         1 RES1    0.0000
     21 N2         2.4985    1.8080    8.4290 N.2       1 RES1    0.0000
     22 C10        3.5562    0.9886    8.1503 C.2       1 RES1    0.0000
     23 N3         3.7588    0.4782    6.8221 N.pl3     1 RES1    0.0000
     24 O1         2.9435    0.7536    5.9381 O.2       1 RES1    0.0000
     25 O2         4.7514   -0.2500    6.6383 O.2       1 RES1    0.0000
     26 C11        4.3252    0.7109    9.2374 C.2       1 RES1    0.0000
     27 H11        5.1481    0.1721    9.3463 H         1 RES1    0.0000
@<TRIPOS>BOND
     1    1    2 1
     2    2    3 ar
     3    3    4 1
     4    5    3 ar
     5    6    5 1
     6    7    5 ar
     7    8    7 1
     8    9    8 1
     9   10    8 1
    10   11    8 1
    11   12    7 ar
    12   13   12 1
    13   14    2 ar
    14   15   14 1
    15   16    1 1
    16   17   16 1
    17   18   17 1
    18   19   17 1
    19   20   17 1
    20   21   16 2
    21   22   21 1
    22   23   22 1
    23   24   23 2
    24   25   23 2
    25   26    1 1
    26   27   26 1
    27   12   14 ar
    28   22   26 2
@<TRIPOS>SUBSTRUCTURE
     1 RES1 1

@<TRIPOS>CRYSIN
   8.3087    7.4836   16.9810  90.0000 104.3800  90.0000  14 1

