# MOL2 file generated by ConQuest
# Please check atom types

@<TRIPOS>MOLECULE
ZAMWIT
    27    28     1
SMALL
NO_CHARGES
****
Generated from CSD

@<TRIPOS>ATOM
      1 O1        -0.4704    4.1148    9.7465 O.2       1 RES1    0.0000
      2 O2         1.3075    3.1158   10.4108 O.2       1 RES1    0.0000
      3 N1         0.4848    2.4586    6.1442 N.pl3     1 RES1    0.0000
      4 N2         1.6883    2.0238    7.9489 N.2       1 RES1    0.0000
      5 N3         0.4973    3.3936    9.5491 N.pl3     1 RES1    0.0000
      6 C1         1.5691    1.7834    6.6609 C.2       1 RES1    0.0000
      7 C2         0.6618    2.8621    8.2460 C.2       1 RES1    0.0000
      8 C3        -0.0953    3.1392    7.1610 C.2       1 RES1    0.0000
      9 C4         0.0416    2.4984    4.7785 C.ar      1 RES1    0.0000
     10 C5        -1.2681    2.2026    4.4871 C.ar      1 RES1    0.0000
     11 C6        -1.7050    2.2947    3.1779 C.ar      1 RES1    0.0000
     12 C7        -0.8555    2.6670    2.1637 C.ar      1 RES1    0.0000
     13 C8         0.4656    2.9347    2.4865 C.ar      1 RES1    0.0000
     14 C9         0.9111    2.8582    3.7844 C.ar      1 RES1    0.0000
     15 C10        2.4380    0.8921    5.8812 C.3       1 RES1    0.0000
     16 C11       -1.3485    2.8090    0.7549 C.3       1 RES1    0.0000
     17 H1        -0.8562    3.6949    7.0731 H         1 RES1    0.0000
     18 H2        -1.9066    2.0324    5.1508 H         1 RES1    0.0000
     19 H3        -2.5873    2.0824    2.9806 H         1 RES1    0.0000
     20 H4         1.1452    3.1126    1.7691 H         1 RES1    0.0000
     21 H5         1.8341    3.0845    4.0013 H         1 RES1    0.0000
     22 H6         2.7333    0.1179    6.4535 H         1 RES1    0.0000
     23 H7         1.9356    0.5823    5.0138 H         1 RES1    0.0000
     24 H8         3.1408    1.3487    5.5975 H         1 RES1    0.0000
     25 H9        -0.7256    2.5054    0.1696 H         1 RES1    0.0000
     26 H10       -1.4760    3.7714    0.5511 H         1 RES1    0.0000
     27 H11       -2.1879    2.4703    0.7288 H         1 RES1    0.0000
@<TRIPOS>BOND
     1    1    5 2
     2    2    5 2
     3    3    6 1
     4    4    6 2
     5    5    7 1
     6    6   15 1
     7    7    4 1
     8    8    3 1
     9    9    3 1
    10   10    9 ar
    11   11   10 ar
    12   12   11 ar
    13   13   12 ar
    14   14    9 ar
    15   15   22 1
    16   16   12 1
    17   17    8 1
    18   18   10 1
    19   19   11 1
    20   20   13 1
    21   21   14 1
    22   23   15 1
    23   24   15 1
    24   25   16 1
    25   26   16 1
    26   27   16 1
    27    7    8 2
    28   13   14 ar
@<TRIPOS>SUBSTRUCTURE
     1 RES1 1

@<TRIPOS>CRYSIN
   8.2590    7.8050   16.7740  90.0000 103.5800  90.0000  14 1

