# MOL2 file generated by ConQuest
# Please check atom types

@<TRIPOS>MOLECULE
ZANBEY
    82    88     2
SMALL
NO_CHARGES
****
Generated from CSD

@<TRIPOS>ATOM
      1 O1         8.4894    3.5079    5.1186 O.2       1 RES1    0.0000
      2 C1        -2.1156   -0.6505    6.9651 C.2       1 RES1    0.0000
      3 H1        -2.9945   -1.0104    6.9755 H         1 RES1    0.0000
      4 O2         8.2486    4.4031    7.0842 O.2       1 RES1    0.0000
      5 C2        -0.9298    1.5528    7.0704 C.2       1 RES1    0.0000
      6 H2        -1.0893    2.4798    7.2102 H         1 RES1    0.0000
      7 N1         7.8474    3.7011    6.1523 N.pl3     1 RES1    0.0000
      8 C3         6.5333    3.0524    6.2783 C.ar      1 RES1    0.0000
      9 C4         6.0955    2.2299    5.2497 C.ar      1 RES1    0.0000
     10 H3         6.6384    2.0668    4.4887 H         1 RES1    0.0000
     11 C5         4.8384    1.6556    5.3706 C.ar      1 RES1    0.0000
     12 H4         4.5182    1.0777    4.6872 H         1 RES1    0.0000
     13 C6         4.0353    1.9215    6.4923 C.ar      1 RES1    0.0000
     14 C7         2.6947    1.3277    6.6062 C.2       1 RES1    0.0000
     15 C8         2.3564   -0.0284    6.4353 C.2       1 RES1    0.0000
     16 C9         0.9543   -0.1595    6.6390 C.2       1 RES1    0.0000
     17 C10        0.2701   -1.3720    6.6838 C.2       1 RES1    0.0000
     18 H5         0.8025   -2.1519    6.5838 H         1 RES1    0.0000
     19 C11       -1.1014   -1.5865    6.8564 C.2       1 RES1    0.0000
     20 H6        -1.3721   -2.4958    6.9065 H         1 RES1    0.0000
     21 C12        5.7806    3.3147    7.4121 C.ar      1 RES1    0.0000
     22 H7         6.1151    3.8713    8.1059 H         1 RES1    0.0000
     23 C13        4.5185    2.7351    7.5036 C.ar      1 RES1    0.0000
     24 H8         3.9821    2.8999    8.2698 H         1 RES1    0.0000
     25 C14        3.3085   -1.1203    6.1644 C.ar      1 RES1    0.0000
     26 C15        4.4532   -1.2745    6.9617 C.ar      1 RES1    0.0000
     27 H9         4.6035   -0.6842    7.6917 H         1 RES1    0.0000
     28 C16        5.3617   -2.2813    6.6925 C.ar      1 RES1    0.0000
     29 H10        6.1283   -2.3877    7.2430 H         1 RES1    0.0000
     30 C17        5.1548   -3.1410    5.6139 C.ar      1 RES1    0.0000
     31 H11        5.7835   -3.8270    5.4258 H         1 RES1    0.0000
     32 C18        4.0428   -2.9957    4.8269 C.ar      1 RES1    0.0000
     33 H12        3.9097   -3.5824    4.0918 H         1 RES1    0.0000
     34 C19        3.1001   -1.9942    5.0875 C.ar      1 RES1    0.0000
     35 H13        2.3276   -1.9073    4.5422 H         1 RES1    0.0000
     36 C20        0.4023    1.1805    6.8961 C.2       1 RES1    0.0000
     37 C21       -2.0498    0.7356    7.0635 C.2       1 RES1    0.0000
     38 H14       -2.8856    1.1823    7.1325 H         1 RES1    0.0000
     39 C22        1.5096    2.0668    6.8771 C.2       1 RES1    0.0000
     40 C23        1.4067    3.4813    6.9462 C.1       1 RES1    0.0000
     41 N2         1.3227    4.6247    6.9772 N.1       1 RES1    0.0000
     42 O3        14.0184    3.2172    3.7017 O.2       2 RES2    0.0000
     43 C24       10.6584   -2.3398    2.3574 C.ar      2 RES2    0.0000
     44 H15       11.4757   -2.4781    1.8932 H         2 RES2    0.0000
     45 O4        13.8372    4.2241    1.7913 O.2       2 RES2    0.0000
     46 C25        3.2986   -0.4077    1.3444 C.2       2 RES2    0.0000
     47 H16        2.4145   -0.7338    1.2236 H         2 RES2    0.0000
     48 N3        13.3924    3.4955    2.6801 N.pl3     2 RES2    0.0000
     49 C26       12.0638    2.9177    2.4972 C.ar      2 RES2    0.0000
     50 C27       11.5636    2.0987    3.4964 C.ar      2 RES2    0.0000
     51 H17       12.0870    1.8949    4.2609 H         2 RES2    0.0000
     52 C28       10.2888    1.5829    3.3566 C.ar      2 RES2    0.0000
     53 H18        9.9327    1.0157    4.0314 H         2 RES2    0.0000
     54 C29        9.5130    1.8949    2.2228 C.ar      2 RES2    0.0000
     55 C30        8.1520    1.3684    2.0692 C.2       2 RES2    0.0000
     56 C31        7.7291    0.0425    2.2970 C.2       2 RES2    0.0000
     57 C32        8.6070   -1.0848    2.6559 C.ar      2 RES2    0.0000
     58 C33        9.8195   -1.3028    1.9881 C.ar      2 RES2    0.0000
     59 H19       10.0680   -0.7303    1.2719 H         2 RES2    0.0000
     60 C34       10.3016   -3.1836    3.4135 C.ar      2 RES2    0.0000
     61 H20       10.8824   -3.8855    3.6810 H         2 RES2    0.0000
     62 C35       11.3426    3.2332    1.3633 C.ar      2 RES2    0.0000
     63 H21       11.7160    3.7898    0.6920 H         2 RES2    0.0000
     64 C36       10.0530    2.7156    1.2236 C.ar      2 RES2    0.0000
     65 H22        9.5410    2.9194    0.4504 H         2 RES2    0.0000
     66 C37        8.2654   -1.9498    3.7104 C.ar      2 RES2    0.0000
     67 H23        7.4523   -1.8204    4.1850 H         2 RES2    0.0000
     68 C38        9.1126   -2.9921    4.0607 C.ar      2 RES2    0.0000
     69 H24        8.8624   -3.5824    4.7614 H         2 RES2    0.0000
     70 C39        6.3408   -0.0425    2.0053 C.2       2 RES2    0.0000
     71 C40        5.8817    1.3028    1.6170 C.2       2 RES2    0.0000
     72 C41        7.0246    2.1324    1.6723 C.2       2 RES2    0.0000
     73 C42        6.9735    3.5363    1.4048 C.1       2 RES2    0.0000
     74 N4         6.8814    4.6654    1.1908 N.1       2 RES2    0.0000
     75 C43        4.6080    1.7283    1.2460 C.2       2 RES2    0.0000
     76 H25        4.5212    2.6518    1.0424 H         2 RES2    0.0000
     77 C44        3.4473    0.9678    1.1355 C.2       2 RES2    0.0000
     78 H26        2.6606    1.4411    0.8870 H         2 RES2    0.0000
     79 C45        4.2245   -1.3684    1.6981 C.2       2 RES2    0.0000
     80 H27        3.8953   -2.2600    1.7499 H         2 RES2    0.0000
     81 C46        5.5903   -1.2036    1.9932 C.2       2 RES2    0.0000
     82 H28        6.0620   -1.9977    2.2159 H         2 RES2    0.0000
@<TRIPOS>BOND
     1    1    7 2
     2    2    3 1
     3    4    7 2
     4    5    6 1
     5    7    8 1
     6    8    9 ar
     7    9   10 1
     8   11    9 ar
     9   12   11 1
    10   13   11 ar
    11   14   13 1
    12   15   14 2
    13   16   15 1
    14   17   16 2
    15   18   17 1
    16   19    2 2
    17   20   19 1
    18   21    8 ar
    19   22   21 1
    20   23   13 ar
    21   24   23 1
    22   25   15 1
    23   26   25 ar
    24   27   26 1
    25   28   26 ar
    26   29   28 1
    27   30   28 ar
    28   31   30 1
    29   32   30 ar
    30   33   32 1
    31   34   25 ar
    32   35   34 1
    33   36    5 1
    34   37    2 1
    35   38   37 1
    36   39   14 1
    37   40   39 1
    38   41   40 3
    39   42   48 2
    40   43   44 1
    41   45   48 2
    42   46   47 1
    43   48   49 1
    44   49   50 ar
    45   50   51 1
    46   52   50 ar
    47   53   52 1
    48   54   52 ar
    49   55   54 1
    50   56   55 2
    51   57   56 1
    52   58   43 ar
    53   59   58 1
    54   60   43 ar
    55   61   60 1
    56   62   49 ar
    57   63   62 1
    58   64   54 ar
    59   65   64 1
    60   66   57 ar
    61   67   66 1
    62   68   60 ar
    63   69   68 1
    64   70   56 1
    65   71   70 1
    66   72   55 1
    67   73   72 1
    68   74   73 3
    69   75   71 1
    70   76   75 1
    71   77   46 1
    72   78   77 1
    73   79   46 2
    74   80   79 1
    75   81   70 2
    76   82   81 1
    77    5   37 2
    78   16   36 1
    79   17   19 1
    80   21   23 ar
    81   32   34 ar
    82   36   39 2
    83   57   58 ar
    84   62   64 ar
    85   66   68 ar
    86   71   72 2
    87   75   77 2
    88   79   81 1
@<TRIPOS>SUBSTRUCTURE
     1 RES1 1
     2 RES2 42

@<TRIPOS>CRYSIN
  11.3651   17.7258   17.8096  90.0000 104.3030  90.0000 231 1

