# MOL2 file generated by ConQuest
# Please check atom types

@<TRIPOS>MOLECULE
ZANZOF
    64    66     2
SMALL
NO_CHARGES
****
Generated from CSD

@<TRIPOS>ATOM
      1 O1         3.5105    4.8293    4.8127 O.3       1 RES1    0.0000
      2 O2         4.2254    2.8578    6.3041 O.3       1 RES1    0.0000
      3 C1         7.2957    4.9147    6.5443 C.ar      1 RES1    0.0000
      4 N1         8.8704    2.8091   -1.5764 N.pl3     2 RES2    0.0000
      5 C2        10.1246    2.8609   -0.8283 C.ar      2 RES2    0.0000
      6 O3        17.0987    3.3871    3.8078 O.3       2 RES2    0.0000
      7 C3         6.3953    3.8591    6.7641 C.ar      1 RES1    0.0000
      8 H1         6.6441    3.1515    7.3133 H         1 RES1    0.0000
      9 C4         5.1493    3.8572    6.1778 C.ar      1 RES1    0.0000
     10 C5        11.2819    2.6050    1.2144 C.ar      2 RES2    0.0000
     11 H2        11.2752    2.4107    2.1248 H         2 RES2    0.0000
     12 C6        13.7369    2.9632    1.3959 C.ar      2 RES2    0.0000
     13 C7        12.4939    2.9065    0.5933 C.ar      2 RES2    0.0000
     14 C8         8.8637    4.3729    8.4222 C.ar      1 RES1    0.0000
     15 H3         8.1430    4.0315    8.9018 H         1 RES1    0.0000
     16 C9        14.6344    4.0262    1.2388 C.ar      2 RES2    0.0000
     17 H4        14.4790    4.6637    0.5808 H         2 RES2    0.0000
     18 C10        6.8856    5.9693    5.7545 C.ar      1 RES1    0.0000
     19 H5         7.4625    6.6833    5.6074 H         1 RES1    0.0000
     20 O4        16.6491    5.1661    1.9930 O.3       2 RES2    0.0000
     21 C11        8.6471    4.8897    7.1530 C.ar      1 RES1    0.0000
     22 N2        12.5202    4.8068    8.8686 N.pl3     1 RES1    0.0000
     23 C12        4.7529    4.9323    5.3666 C.ar      1 RES1    0.0000
     24 C13       14.0078    2.0051    2.3573 C.ar      2 RES2    0.0000
     25 H6        13.4259    1.2880    2.4668 H         2 RES2    0.0000
     26 O5         7.8514    2.4483   -0.9901 O.2       2 RES2    0.0000
     27 C14       15.7446    4.1410    2.0477 C.ar      2 RES2    0.0000
     28 C15       11.1807    4.8420    8.2672 C.ar      1 RES1    0.0000
     29 C16       10.1225    4.3530    8.9917 C.ar      1 RES1    0.0000
     30 H7        10.2499    4.0147    9.8489 H         1 RES1    0.0000
     31 C17       11.0147    5.3632    7.0033 C.ar      1 RES1    0.0000
     32 H8        11.7424    5.6907    6.5261 H         1 RES1    0.0000
     33 C18       11.2949    3.1584   -1.4875 C.ar      2 RES2    0.0000
     34 H9        11.2916    3.3359   -2.4000 H         2 RES2    0.0000
     35 C19       15.9967    3.1683    3.0316 C.ar      2 RES2    0.0000
     36 C20       10.1035    2.5874    0.5191 C.ar      2 RES2    0.0000
     37 H10        9.3020    2.3938    0.9491 H         2 RES2    0.0000
     38 C21        5.6232    5.9807    5.1752 C.ar      1 RES1    0.0000
     39 H11        5.3640    6.7039    4.6523 H         1 RES1    0.0000
     40 C22        9.7519    5.3907    6.4603 C.ar      1 RES1    0.0000
     41 H12        9.6297    5.7519    5.6114 H         1 RES1    0.0000
     42 C23       12.4751    3.1874   -0.7714 C.ar      2 RES2    0.0000
     43 H13       13.2691    3.3979   -1.2061 H         2 RES2    0.0000
     44 O6         8.8847    3.1017   -2.7574 O.2       2 RES2    0.0000
     45 O7        12.6295    4.4609   10.0281 O.2       1 RES1    0.0000
     46 C24       15.1345    2.1015    3.1592 C.ar      2 RES2    0.0000
     47 H14       15.3102    1.4395    3.7882 H         2 RES2    0.0000
     48 C25        2.9947    5.9769    4.1348 C.3       1 RES1    0.0000
     49 H15        2.9465    6.7154    4.7474 H         1 RES1    0.0000
     50 H16        2.1170    5.7825    3.7983 H         1 RES1    0.0000
     51 H17        3.5752    6.2050    3.4037 H         1 RES1    0.0000
     52 C26        4.5202    1.7831    7.1917 C.3       1 RES1    0.0000
     53 H18        5.3236    1.3423    6.9045 H         1 RES1    0.0000
     54 H19        3.7922    1.1564    7.1878 H         1 RES1    0.0000
     55 H20        4.6429    2.1260    8.0802 H         1 RES1    0.0000
     56 O8        13.4668    5.1397    8.1877 O.2       1 RES1    0.0000
     57 C27       16.3781    6.2310    1.0808 C.3       2 RES2    0.0000
     58 H21       16.3408    5.8835    0.1862 H         2 RES2    0.0000
     59 H22       17.0757    6.8876    1.1393 H         2 RES2    0.0000
     60 H23       15.5365    6.6358    1.3032 H         2 RES2    0.0000
     61 C28       17.3815    2.4352    4.8303 C.3       2 RES2    0.0000
     62 H24       16.6396    2.3892    5.4394 H         2 RES2    0.0000
     63 H25       18.1714    2.7030    5.3079 H         2 RES2    0.0000
     64 H26       17.5236    1.5727    4.4337 H         2 RES2    0.0000
@<TRIPOS>BOND
     1    1   23 1
     2    2    9 1
     3    3    7 ar
     4    4    5 1
     5    5   33 ar
     6    6   35 1
     7    7    8 1
     8    9    7 ar
     9   10   11 1
    10   12   13 1
    11   13   10 ar
    12   14   15 1
    13   16   12 ar
    14   17   16 1
    15   18    3 ar
    16   19   18 1
    17   20   27 1
    18   21    3 1
    19   22   28 1
    20   23    9 ar
    21   24   12 ar
    22   25   24 1
    23   26    4 2
    24   27   16 ar
    25   28   29 ar
    26   29   14 ar
    27   30   29 1
    28   31   28 ar
    29   32   31 1
    30   33   34 1
    31   35   27 ar
    32   36    5 ar
    33   37   36 1
    34   38   18 ar
    35   39   38 1
    36   40   21 ar
    37   41   40 1
    38   42   13 ar
    39   43   42 1
    40   44    4 2
    41   45   22 2
    42   46   24 ar
    43   47   46 1
    44   48    1 1
    45   49   48 1
    46   50   48 1
    47   51   48 1
    48   52    2 1
    49   53   52 1
    50   54   52 1
    51   55   52 1
    52   56   22 2
    53   57   20 1
    54   58   57 1
    55   59   57 1
    56   60   57 1
    57   61    6 1
    58   62   61 1
    59   63   61 1
    60   64   61 1
    61   10   36 ar
    62   14   21 ar
    63   23   38 ar
    64   31   40 ar
    65   33   42 ar
    66   35   46 ar
@<TRIPOS>SUBSTRUCTURE
     1 RES1 1
     2 RES2 4

@<TRIPOS>CRYSIN
  16.2714    7.6529   20.2448  90.0000  91.6910  90.0000  14 1

