# MOL2 file generated by ConQuest
# Please check atom types

@<TRIPOS>MOLECULE
ZAPKOS
    32    33     1
SMALL
NO_CHARGES
****
Generated from CSD

@<TRIPOS>ATOM
      1 N1         1.2753    0.4901    6.4031 N.2       1 RES1    0.0000
      2 N2         1.4757   -0.3946    7.4331 N.am      1 RES1    0.0000
      3 N3         0.0973    3.3829    2.2981 N.pl3     1 RES1    0.0000
      4 O1        -0.1094    4.3649    1.5891 O.2       1 RES1    0.0000
      5 O2        -0.2052    2.2487    1.9699 O.2       1 RES1    0.0000
      6 O3         0.9552   -2.2168    6.1998 O.2       1 RES1    0.0000
      7 O4         3.0934   -4.9003   11.5789 O.3       1 RES1    0.0000
      8 H1         3.6204   -4.4981   12.0608 H         1 RES1    0.0000
      9 C1         1.3257    2.7768    5.7339 C.ar      1 RES1    0.0000
     10 C2         0.7771    2.5489    4.4753 C.ar      1 RES1    0.0000
     11 H2         0.4566    1.7091    4.2370 H         1 RES1    0.0000
     12 C3         0.7248    3.6020    3.5980 C.ar      1 RES1    0.0000
     13 C4         1.2017    4.8640    3.8924 C.ar      1 RES1    0.0000
     14 H3         1.1626    5.5490    3.2647 H         1 RES1    0.0000
     15 C5         1.7362    5.0787    5.1439 C.ar      1 RES1    0.0000
     16 H4         2.0627    5.9194    5.3717 H         1 RES1    0.0000
     17 C6         1.7873    4.0458    6.0590 C.ar      1 RES1    0.0000
     18 H5         2.1355    4.2025    6.9063 H         1 RES1    0.0000
     19 C7         1.4321    1.7093    6.7219 C.2       1 RES1    0.0000
     20 H6         1.6191    1.9266    7.6067 H         1 RES1    0.0000
     21 C8         1.3976   -1.7275    7.2395 C.2       1 RES1    0.0000
     22 C9         1.8820   -2.5440    8.3897 C.ar      1 RES1    0.0000
     23 C10        1.5745   -3.8940    8.4516 C.ar      1 RES1    0.0000
     24 H7         1.0818   -4.2828    7.7649 H         1 RES1    0.0000
     25 C11        1.9851   -4.6708    9.5125 C.ar      1 RES1    0.0000
     26 H8         1.7685   -5.5747    9.5397 H         1 RES1    0.0000
     27 C12        2.7245   -4.0998   10.5412 C.ar      1 RES1    0.0000
     28 C13        3.0541   -2.7661   10.4896 C.ar      1 RES1    0.0000
     29 H9         3.5524   -2.3818   11.1749 H         1 RES1    0.0000
     30 C14        2.6438   -2.0013    9.4197 C.ar      1 RES1    0.0000
     31 H10        2.8814   -1.1033    9.3858 H         1 RES1    0.0000
     32 H11        1.5967   -0.0502    8.2539 H         1 RES1    0.0000
@<TRIPOS>BOND
     1    1    2 1
     2    2   21 1
     3    3    4 2
     4    5    3 2
     5    6   21 2
     6    7    8 1
     7    9   10 ar
     8   10   11 1
     9   12    3 1
    10   13   12 ar
    11   14   13 1
    12   15   13 ar
    13   16   15 1
    14   17    9 ar
    15   18   17 1
    16   19    1 2
    17   20   19 1
    18   21   22 1
    19   22   23 ar
    20   23   24 1
    21   25   23 ar
    22   26   25 1
    23   27    7 1
    24   28   27 ar
    25   29   28 1
    26   30   22 ar
    27   31   30 1
    28   32    2 1
    29    9   19 1
    30   10   12 ar
    31   15   17 ar
    32   25   27 ar
    33   28   30 ar
@<TRIPOS>SUBSTRUCTURE
     1 RES1 1

@<TRIPOS>CRYSIN
   8.0180   11.1560   14.3890  90.0000  91.7730  90.0000 231 1

