# MOL2 file generated by ConQuest
# Please check atom types

@<TRIPOS>MOLECULE
ZAPSOA
    44    44     2
SMALL
NO_CHARGES
****
Generated from CSD

@<TRIPOS>ATOM
      1 O1         1.3477   13.4863    9.1479 O.2       1 RES1    0.0000
      2 O2         1.1987   11.4014    9.6742 O.2       1 RES1    0.0000
      3 O3        -0.0884    6.5920    7.1903 O.2       2 RES2    0.0000
      4 O4         0.1274    6.9214    9.3048 O.2       2 RES2    0.0000
      5 N1         0.7418    9.5756    7.8468 N.3       1 RES1    0.0000
      6 N2         1.1987   12.3059    8.8156 N.pl3     1 RES1    0.0000
      7 N3        -0.1086    4.9343   11.0136 N.3       2 RES2    0.0000
      8 N4        -0.0787    6.1630    8.3417 N.pl3     2 RES2    0.0000
      9 C1         0.8134   10.6361    7.0169 C.ar      1 RES1    0.0000
     10 C2         0.6887   10.4227    5.6129 C.ar      1 RES1    0.0000
     11 C3         0.7526   11.4905    4.7579 C.ar      1 RES1    0.0000
     12 H1         0.6693   11.3250    3.8264 H         1 RES1    0.0000
     13 C4         0.9350   12.8223    5.1843 C.ar      1 RES1    0.0000
     14 C5         1.0818   13.0376    6.5219 C.ar      1 RES1    0.0000
     15 H2         1.2239   13.9209    6.8414 H         1 RES1    0.0000
     16 C6         1.0254   11.9756    7.4339 C.ar      1 RES1    0.0000
     17 C7         0.5149    9.0163    5.1036 C.3       1 RES1    0.0000
     18 H3         0.5621    9.0156    4.1245 H         1 RES1    0.0000
     19 H4        -0.3558    8.6709    5.3885 H         1 RES1    0.0000
     20 H5         1.2265    8.4471    5.4650 H         1 RES1    0.0000
     21 C8         0.9707   13.9530    4.1883 C.3       1 RES1    0.0000
     22 H6         0.0678   14.3148    4.0730 H         1 RES1    0.0000
     23 H7         1.3015   13.6196    3.3286 H         1 RES1    0.0000
     24 H8         1.5665   14.6594    4.5162 H         1 RES1    0.0000
     25 C9        -0.2663    4.2172    9.8740 C.ar      2 RES2    0.0000
     26 C10       -0.4598    2.8052    9.9760 C.ar      2 RES2    0.0000
     27 C11       -0.6293    2.0627    8.8370 C.ar      2 RES2    0.0000
     28 H9        -0.7437    1.1234    8.9278 H         2 RES2    0.0000
     29 C12       -0.6438    2.6093    7.5433 C.ar      2 RES2    0.0000
     30 C13       -0.4775    3.9638    7.4330 C.ar      2 RES2    0.0000
     31 H10       -0.4866    4.3713    6.5745 H         2 RES2    0.0000
     32 C14       -0.2939    4.7559    8.5750 C.ar      2 RES2    0.0000
     33 C15       -0.4791    2.1689   11.3317 C.3       2 RES2    0.0000
     34 H11       -0.6577    1.2099   11.2405 H         2 RES2    0.0000
     35 H12       -1.1820    2.5810   11.8757 H         2 RES2    0.0000
     36 H13        0.3894    2.2990   11.7664 H         2 RES2    0.0000
     37 C16       -0.8329    1.7364    6.3406 C.3       2 RES2    0.0000
     38 H14       -1.7846    1.5322    6.2312 H         2 RES2    0.0000
     39 H15       -0.3311    0.9026    6.4606 H         2 RES2    0.0000
     40 H16       -0.5053    2.2035    5.5430 H         2 RES2    0.0000
     41 H17        0.5001    8.7560    7.5265 H         1 RES1    0.0000
     42 H18        0.1235    5.8289   10.8847 H         2 RES2    0.0000
     43 H19        0.1199    4.5697   11.7883 H         2 RES2    0.0000
     44 H20        0.7669    9.7481    8.6906 H         1 RES1    0.0000
@<TRIPOS>BOND
     1    1    6 2
     2    2    6 2
     3    3    8 2
     4    4    8 2
     5    5    9 1
     6    6   16 1
     7    7   25 1
     8    8   32 1
     9    9   10 ar
    10   10   11 ar
    11   11   12 1
    12   13   11 ar
    13   14   13 ar
    14   15   14 1
    15   16    9 ar
    16   17   10 1
    17   18   17 1
    18   19   17 1
    19   20   17 1
    20   21   13 1
    21   22   21 1
    22   23   21 1
    23   24   21 1
    24   25   26 ar
    25   26   27 ar
    26   27   28 1
    27   29   27 ar
    28   30   29 ar
    29   31   30 1
    30   32   25 ar
    31   33   26 1
    32   34   33 1
    33   35   33 1
    34   36   33 1
    35   37   29 1
    36   38   37 1
    37   39   37 1
    38   40   37 1
    39   41    5 1
    40   42    7 1
    41   43    7 1
    42   44    5 1
    43   14   16 ar
    44   30   32 ar
@<TRIPOS>SUBSTRUCTURE
     1 RES1 1
     2 RES2 3

@<TRIPOS>CRYSIN
   6.9970   14.9190   15.9070  90.0000 101.1760  90.0000  14 1

