# MOL2 file generated by ConQuest
# Please check atom types

@<TRIPOS>MOLECULE
ZAPTAN
    38    38     1
SMALL
NO_CHARGES
****
Generated from CSD

@<TRIPOS>ATOM
      1 N1        -3.3241    3.1811   12.0422 N.pl3     1 RES1    0.0000
      2 C1         0.3133    2.6761   11.4579 C.ar      1 RES1    0.0000
      3 H1         0.9895    3.0260   10.9245 H         1 RES1    0.0000
      4 O1        -3.4840    4.2004   11.3977 O.2       1 RES1    0.0000
      5 C2        -0.9452    3.1998   11.3671 C.ar      1 RES1    0.0000
      6 H2        -1.1329    3.9091   10.7961 H         1 RES1    0.0000
      7 O2        -4.2079    2.5683   12.5769 O.2       1 RES1    0.0000
      8 C3        -1.9472    2.6274   12.1691 C.ar      1 RES1    0.0000
      9 O3        -1.0141   -0.4115   14.8530 O.2       1 RES1    0.0000
     10 O4         1.8073    1.0317   12.4577 O.3       1 RES1    0.0000
     11 C4        -1.7115    1.5908   13.0425 C.ar      1 RES1    0.0000
     12 H3        -2.3990    1.2285   13.5542 H         1 RES1    0.0000
     13 C5        -0.4192    1.1040   13.1356 C.ar      1 RES1    0.0000
     14 O5         2.0815    0.2545    9.9432 O.3       1 RES1    0.0000
     15 C6         0.6059    1.6390   12.3247 C.ar      1 RES1    0.0000
     16 O6         3.4058    1.9245    9.4321 O.2       1 RES1    0.0000
     17 C7        -0.1668    0.0310   14.1219 C.2       1 RES1    0.0000
     18 H4         0.6924   -0.3204   14.1796 H         1 RES1    0.0000
     19 C8         2.9010    1.5809   11.6883 C.3       1 RES1    0.0000
     20 H5         2.9414    2.5511   11.8207 H         1 RES1    0.0000
     21 C9         2.8008    1.2841   10.2461 C.2       1 RES1    0.0000
     22 C10        1.9545   -0.0802    8.5200 C.3       1 RES1    0.0000
     23 H6         1.3985   -0.8569    8.4230 H         1 RES1    0.0000
     24 H7         2.8224   -0.2604    8.1541 H         1 RES1    0.0000
     25 H8         1.5560    0.6581    8.0523 H         1 RES1    0.0000
     26 C11        4.1402    0.9352   12.2791 C.3       1 RES1    0.0000
     27 H9         4.0880   -0.0167   12.1018 H         1 RES1    0.0000
     28 H10        4.9079    1.2738   11.7943 H         1 RES1    0.0000
     29 C12        4.4058    1.1040   13.6907 C.3       1 RES1    0.0000
     30 H11        3.6179    0.8382   14.1918 H         1 RES1    0.0000
     31 H12        5.1305    0.5119   13.9453 H         1 RES1    0.0000
     32 C13        4.7525    2.4403   14.0553 C.3       1 RES1    0.0000
     33 H13        3.9458    2.9699   14.1551 H         1 RES1    0.0000
     34 H14        5.2910    2.8390   13.3526 H         1 RES1    0.0000
     35 C14        5.5666    2.4492   15.4181 C.3       1 RES1    0.0000
     36 H15        5.8136    3.3504   15.6360 H         1 RES1    0.0000
     37 H16        6.3594    1.9152   15.3203 H         1 RES1    0.0000
     38 H17        5.0211    2.0874   16.1188 H         1 RES1    0.0000
@<TRIPOS>BOND
     1    1    4 2
     2    2    3 1
     3    5    2 ar
     4    6    5 1
     5    7    1 2
     6    8    1 1
     7    9   17 2
     8   10   15 1
     9   11    8 ar
    10   12   11 1
    11   13   11 ar
    12   14   21 1
    13   15    2 ar
    14   16   21 2
    15   17   13 1
    16   18   17 1
    17   19   10 1
    18   20   19 1
    19   21   19 1
    20   22   14 1
    21   23   22 1
    22   24   22 1
    23   25   22 1
    24   26   19 1
    25   27   26 1
    26   28   26 1
    27   29   26 1
    28   30   29 1
    29   31   29 1
    30   32   29 1
    31   33   32 1
    32   34   32 1
    33   35   32 1
    34   36   35 1
    35   37   35 1
    36   38   35 1
    37    5    8 ar
    38   13   15 ar
@<TRIPOS>SUBSTRUCTURE
     1 RES1 1

@<TRIPOS>CRYSIN
  14.9180    4.9220   20.9280  90.0000 103.2600  90.0000 231 1

