# MOL2 file generated by ConQuest
# Please check atom types

@<TRIPOS>MOLECULE
ZAQMUZ
    74    67     2
SMALL
NO_CHARGES
****
Generated from CSD

@<TRIPOS>ATOM
      1 O1         5.3887   10.1065   13.9852 O.3       1 RES1    0.0000
      2 N1         4.2209    9.3691   13.6788 N.3       1 RES1    0.0000
      3 C1         4.4434    8.0534   13.9810 C.2       1 RES1    0.0000
      4 C2         5.7530    7.8888   14.3482 C.2       1 RES1    0.0000
      5 C3         6.3554    9.1786   14.3230 C.2       1 RES1    0.0000
      6 O2         7.5068    9.5650   14.4972 O.2       1 RES1    0.0000
      7 C4         3.3100    7.0697   13.7523 C.3       1 RES1    0.0000
      8 C5         1.9824    7.7459   13.5550 C.3       1 RES1    0.0000
      9 C6         3.6477    6.2234   12.5478 C.3       1 RES1    0.0000
     10 C7         3.1511    6.1200   14.9945 C.3       1 RES1    0.0000
     11 C8         2.1792    7.8425   12.9297 Du        2 SUP2    0.0000
     12 C9         3.7680    6.0016   12.7765 Du        2 SUP2    0.0000
     13 C10        2.8219    6.6601   14.9504 Du        2 SUP2    0.0000
     14 C11        6.5298    6.6697   14.7322 C.3       1 RES1    0.0000
     15 C12        6.4877    6.3758   16.2387 C.3       1 RES1    0.0000
     16 C13        7.1511    5.0315   16.5052 C.2       1 RES1    0.0000
     17 O3         6.5513    4.0056   16.6101 O.2       1 RES1    0.0000
     18 O4         8.4710    5.1023   16.5493 O.3       1 RES1    0.0000
     19 N2         7.0351    7.5051   16.9564 N.3       1 RES1    0.0000
     20 C14        6.5573    7.7391   18.3203 C.3       1 RES1    0.0000
     21 C15        6.6312    6.5445   19.2771 C.ar      1 RES1    0.0000
     22 C16        7.7363    5.8356   19.7030 C.ar      1 RES1    0.0000
     23 C17        7.5730    4.8192   20.6263 C.ar      1 RES1    0.0000
     24 C18        6.3210    4.5131   21.1215 C.ar      1 RES1    0.0000
     25 C19        5.2056    5.2016   20.6997 C.ar      1 RES1    0.0000
     26 C20        5.3629    6.2220   19.7681 C.ar      1 RES1    0.0000
     27 C21        4.3841    7.1255   19.1596 C.ar      1 RES1    0.0000
     28 C22        2.9955    7.2139   19.3044 C.ar      1 RES1    0.0000
     29 C23        2.3210    8.1758   18.5972 C.ar      1 RES1    0.0000
     30 C24        2.9715    9.0385   17.7453 C.ar      1 RES1    0.0000
     31 C25        4.3575    8.9568   17.5942 C.ar      1 RES1    0.0000
     32 C26        5.0415    8.0030   18.3056 C.ar      1 RES1    0.0000
     33 C27        7.2937    8.9691   18.8637 C.ar      1 RES1    0.0000
     34 C28        7.5283    9.1378   20.2150 C.ar      1 RES1    0.0000
     35 C29        8.1857   10.2644   20.6787 C.ar      1 RES1    0.0000
     36 C30        8.6196   11.2331   19.8080 C.ar      1 RES1    0.0000
     37 C31        8.3816   11.0780   18.4755 C.ar      1 RES1    0.0000
     38 C32        7.7182    9.9582   17.9908 C.ar      1 RES1    0.0000
     39 H1         3.5145    9.8371   14.0376 H         1 RES1    0.0000
     40 H2         1.2804    7.1023   13.3872 H         1 RES1    0.0000
     41 H3         1.7788    8.2588   14.3943 H         1 RES1    0.0000
     42 H4         2.0279    8.3949   12.7786 H         1 RES1    0.0000
     43 H5         3.0247    5.6465   12.2541 H         1 RES1    0.0000
     44 H6         3.6091    6.9663   11.6665 H         1 RES1    0.0000
     45 H7         4.5715    5.7962   12.6108 H         1 RES1    0.0000
     46 H8         2.4146    5.4696   14.7930 H         1 RES1    0.0000
     47 H9         3.9786    5.4424   14.9819 H         1 RES1    0.0000
     48 H10        3.0333    6.5581   15.8422 H         1 RES1    0.0000
     49 H11        1.5038    7.0615   12.5478 Du        2 SUP2    0.0000
     50 H12        1.7616    8.6534   13.5970 Du        2 SUP2    0.0000
     51 H13        2.4662    8.2997   12.0442 Du        2 SUP2    0.0000
     52 H14        3.0591    5.3472   12.6318 Du        2 SUP2    0.0000
     53 H15        4.2535    5.3063   13.3452 Du        2 SUP2    0.0000
     54 H16        2.0451    5.9458   14.9609 Du        2 SUP2    0.0000
     55 H17        3.4286    5.9458   15.4855 Du        2 SUP2    0.0000
     56 H18        2.7154    7.3472   15.5694 Du        2 SUP2    0.0000
     57 H19        6.2643    5.8914   14.2894 H         1 RES1    0.0000
     58 H20        7.4587    6.8574   14.4993 H         1 RES1    0.0000
     59 H21        5.5769    6.2996   16.5136 H         1 RES1    0.0000
     60 H22        8.8336    4.2451   16.7235 H         1 RES1    0.0000
     61 H23        7.7595    7.5377   16.9123 H         1 RES1    0.0000
     62 H24        8.5758    6.0683   19.3463 H         1 RES1    0.0000
     63 H25        8.2922    4.2995   20.8781 H         1 RES1    0.0000
     64 H26        6.2299    3.8097   21.7594 H         1 RES1    0.0000
     65 H27        4.3996    4.9798   21.0879 H         1 RES1    0.0000
     66 H28        2.5607    6.5853   19.9548 H         1 RES1    0.0000
     67 H29        1.3921    8.2180   18.6959 H         1 RES1    0.0000
     68 H30        2.4920    9.7419   17.2061 H         1 RES1    0.0000
     69 H31        4.7863    9.4970   16.9962 H         1 RES1    0.0000
     70 H32        7.2611    8.4493   20.8571 H         1 RES1    0.0000
     71 H33        8.2922   10.3270   21.5705 H         1 RES1    0.0000
     72 H34        9.0141   12.0549   20.1437 H         1 RES1    0.0000
     73 H35        8.6102   11.7828   17.7936 H         1 RES1    0.0000
     74 H36        7.6392    9.8644   17.0382 H         1 RES1    0.0000
@<TRIPOS>BOND
     1    1    2 1
     2    2    3 1
     3    3    4 2
     4    4    5 1
     5    5    1 1
     6    6    5 2
     7    7    3 1
     8    8    7 1
     9    9    7 1
    10   10    7 1
    11   14    4 1
    12   15   14 1
    13   16   15 1
    14   17   16 2
    15   18   16 1
    16   19   15 1
    17   20   19 1
    18   21   20 1
    19   22   21 ar
    20   23   22 ar
    21   24   23 ar
    22   25   24 ar
    23   26   21 ar
    24   27   26 1
    25   28   27 ar
    26   29   28 ar
    27   30   29 ar
    28   31   30 ar
    29   32   20 1
    30   33   20 1
    31   34   33 ar
    32   35   34 ar
    33   36   35 ar
    34   37   36 ar
    35   38   33 ar
    36   39    2 1
    37   40    8 1
    38   41    8 1
    39   42    8 1
    40   43    9 1
    41   44    9 1
    42   45    9 1
    43   46   10 1
    44   47   10 1
    45   48   10 1
    46   57   14 1
    47   58   14 1
    48   59   15 1
    49   60   18 1
    50   61   19 1
    51   62   22 1
    52   63   23 1
    53   64   24 1
    54   65   25 1
    55   66   28 1
    56   67   29 1
    57   68   30 1
    58   69   31 1
    59   70   34 1
    60   71   35 1
    61   72   36 1
    62   73   37 1
    63   74   38 1
    64   25   26 ar
    65   27   32 ar
    66   31   32 ar
    67   37   38 ar
@<TRIPOS>SUBSTRUCTURE
     1 RES1 1
     2 SUP2 11

@<TRIPOS>CRYSIN
   8.5930   13.6060   20.9830  90.0000  90.0000  90.0000  19 1

