# MOL2 file generated by ConQuest
# Please check atom types

@<TRIPOS>MOLECULE
ZAQNAG
    69    73     1
SMALL
NO_CHARGES
****
Generated from CSD

@<TRIPOS>ATOM
      1 O1         7.0002    3.4616   22.4191 O.3       1 RES1    0.0000
      2 N1         8.0105    4.1048   21.5917 N.2       1 RES1    0.0000
      3 C1         7.4958    5.1467   21.0585 C.2       1 RES1    0.0000
      4 C2         6.0608    5.3563   21.4571 C.3       1 RES1    0.0000
      5 C3         5.0878    5.2042   20.2531 C.3       1 RES1    0.0000
      6 C4         5.8465    4.1716   22.3669 C.2       1 RES1    0.0000
      7 O2         4.8572    3.7976   22.9304 O.2       1 RES1    0.0000
      8 C5         8.3626    5.9163   20.0772 C.3       1 RES1    0.0000
      9 C6         9.8445    5.9615   20.6049 C.3       1 RES1    0.0000
     10 C7         7.9598    7.3784   19.9535 C.3       1 RES1    0.0000
     11 C8         8.3473    5.2063   18.7495 C.3       1 RES1    0.0000
     12 C9         5.7250    6.6705   22.1772 C.3       1 RES1    0.0000
     13 C10        6.6319    7.0866   23.3455 C.3       1 RES1    0.0000
     14 C11        6.1134    8.4675   23.7633 C.2       1 RES1    0.0000
     15 O3         5.0390    8.6289   24.2636 O.2       1 RES1    0.0000
     16 O4         6.9696    9.4262   23.4527 O.3       1 RES1    0.0000
     17 C12        6.5936   10.7794   23.8540 C.3       1 RES1    0.0000
     18 N2         6.6070    6.0838   24.3955 N.3       1 RES1    0.0000
     19 C13        7.6432    6.2060   25.4483 C.3       1 RES1    0.0000
     20 C14        7.7417    7.6024   26.0640 C.ar      1 RES1    0.0000
     21 C15        6.8022    8.2703   26.8144 C.ar      1 RES1    0.0000
     22 C16        7.0959    9.5433   27.2927 C.ar      1 RES1    0.0000
     23 C17        8.3148   10.1208   27.0206 C.ar      1 RES1    0.0000
     24 C18        9.2600    9.4622   26.2729 C.ar      1 RES1    0.0000
     25 C19        8.9768    8.1881   25.7946 C.ar      1 RES1    0.0000
     26 C20        9.7871    7.2253   25.0607 C.ar      1 RES1    0.0000
     27 C21       11.1227    7.2911   24.6621 C.ar      1 RES1    0.0000
     28 C22       11.6872    6.1752   24.0931 C.ar      1 RES1    0.0000
     29 C23       10.9706    5.0111   23.9255 C.ar      1 RES1    0.0000
     30 C24        9.6283    4.9289   24.2993 C.ar      1 RES1    0.0000
     31 C25        9.0514    6.0653   24.8656 C.ar      1 RES1    0.0000
     32 C26        7.4135    5.1303   26.5066 C.ar      1 RES1    0.0000
     33 C27        6.6290    4.0154   26.2592 C.ar      1 RES1    0.0000
     34 C28        6.4607    3.0424   27.2433 C.ar      1 RES1    0.0000
     35 C29        7.0959    3.1626   28.4555 C.ar      1 RES1    0.0000
     36 C30        7.8948    4.2487   28.7056 C.ar      1 RES1    0.0000
     37 C31        8.0488    5.2361   27.7408 C.ar      1 RES1    0.0000
     38 H1         4.2478    5.1375   20.6434 H         1 RES1    0.0000
     39 H2         5.4628    4.3668   19.6264 H         1 RES1    0.0000
     40 H3         5.1949    5.9800   19.5714 H         1 RES1    0.0000
     41 H4        10.3707    6.5451   19.9287 H         1 RES1    0.0000
     42 H5        10.1316    4.8395   20.6159 H         1 RES1    0.0000
     43 H6         9.6915    6.4732   21.5230 H         1 RES1    0.0000
     44 H7         8.6487    7.8192   19.2140 H         1 RES1    0.0000
     45 H8         7.9598    7.8603   20.8083 H         1 RES1    0.0000
     46 H9         7.0605    7.1411   19.2415 H         1 RES1    0.0000
     47 H10        8.9644    5.5895   18.1695 H         1 RES1    0.0000
     48 H11        7.2901    5.3429   18.5818 H         1 RES1    0.0000
     49 H12        8.6008    4.3977   19.0491 H         1 RES1    0.0000
     50 H13        4.8123    6.6170   22.5676 H         1 RES1    0.0000
     51 H14        5.6446    7.3979   21.5230 H         1 RES1    0.0000
     52 H15        7.5293    7.1924   23.0349 H         1 RES1    0.0000
     53 H16        7.2423   11.3640   23.6121 H         1 RES1    0.0000
     54 H17        6.5535   10.8503   24.7666 H         1 RES1    0.0000
     55 H18        5.7690   11.0558   23.4197 H         1 RES1    0.0000
     56 H19        5.8168    5.9389   24.7391 H         1 RES1    0.0000
     57 H20        5.9986    7.9014   27.0206 H         1 RES1    0.0000
     58 H21        6.4004    9.9769   27.8727 H         1 RES1    0.0000
     59 H22        8.5052   10.9633   27.3505 H         1 RES1    0.0000
     60 H23       10.1029    9.8536   26.0036 H         1 RES1    0.0000
     61 H24       11.6240    8.1069   24.7941 H         1 RES1    0.0000
     62 H25       12.6764    6.1238   23.8045 H         1 RES1    0.0000
     63 H26       11.3753    4.2127   23.5296 H         1 RES1    0.0000
     64 H27        9.0792    4.0175   24.2443 H         1 RES1    0.0000
     65 H28        6.1421    3.9147   25.3713 H         1 RES1    0.0000
     66 H29        5.8646    2.3119   27.0481 H         1 RES1    0.0000
     67 H30        6.9840    2.5276   29.2196 H         1 RES1    0.0000
     68 H31        8.2660    4.4285   29.6594 H         1 RES1    0.0000
     69 H32        8.6200    6.0725   27.9277 H         1 RES1    0.0000
@<TRIPOS>BOND
     1    1    2 1
     2    2    3 2
     3    3    4 1
     4    4    5 1
     5    5   38 1
     6    6    1 1
     7    7    6 2
     8    8    3 1
     9    9    8 1
    10   10    8 1
    11   11    8 1
    12   12    4 1
    13   13   12 1
    14   14   13 1
    15   15   14 2
    16   16   14 1
    17   17   16 1
    18   18   13 1
    19   19   18 1
    20   20   19 1
    21   21   20 ar
    22   22   21 ar
    23   23   22 ar
    24   24   23 ar
    25   25   20 ar
    26   26   25 1
    27   27   26 ar
    28   28   27 ar
    29   29   28 ar
    30   30   29 ar
    31   31   19 1
    32   32   19 1
    33   33   32 ar
    34   34   33 ar
    35   35   34 ar
    36   36   35 ar
    37   37   32 ar
    38   39    5 1
    39   40    5 1
    40   41    9 1
    41   42    9 1
    42   43    9 1
    43   44   10 1
    44   45   10 1
    45   46   10 1
    46   47   11 1
    47   48   11 1
    48   49   11 1
    49   50   12 1
    50   51   12 1
    51   52   13 1
    52   53   17 1
    53   54   17 1
    54   55   17 1
    55   56   18 1
    56   57   21 1
    57   58   22 1
    58   59   23 1
    59   60   24 1
    60   61   27 1
    61   62   28 1
    62   63   29 1
    63   64   30 1
    64   65   33 1
    65   66   34 1
    66   67   35 1
    67   68   36 1
    68   69   37 1
    69    4    6 1
    70   24   25 ar
    71   26   31 ar
    72   30   31 ar
    73   36   37 ar
@<TRIPOS>SUBSTRUCTURE
     1 RES1 1

@<TRIPOS>CRYSIN
   9.5671   10.2749   27.4879  90.0000  90.0000  90.0000  19 1

