# MOL2 file generated by ConQuest
# Please check atom types

@<TRIPOS>MOLECULE
ZAQNEK
   276   292     4
SMALL
NO_CHARGES
****
Generated from CSD

@<TRIPOS>ATOM
      1 O1         8.4229    8.5444    1.9291 O.3       1 RES1    0.0000
      2 N1         8.8841    7.2636    2.3483 N.pl3     1 RES1    0.0000
      3 C1        10.0618    7.2259    2.5317 C.3       1 RES1    0.0000
      4 C2         7.7653    6.5526    2.7270 C.2       1 RES1    0.0000
      5 C3         6.6517    7.2763    2.5738 C.2       1 RES1    0.0000
      6 C4         7.0611    8.5487    2.0688 C.2       1 RES1    0.0000
      7 O2         6.4202    9.5276    1.7305 O.2       1 RES1    0.0000
      8 C5         8.0140    5.1182    3.1697 C.3       1 RES1    0.0000
      9 C6         8.7037    4.3078    2.2287 C.3       1 RES1    0.0000
     10 C7         8.6379    5.0324    4.4827 C.3       1 RES1    0.0000
     11 C8         6.7371    4.4800    3.4273 C.3       1 RES1    0.0000
     12 C9         5.1941    6.9842    2.7640 C.3       1 RES1    0.0000
     13 C10        4.5044    6.3740    1.5706 C.3       1 RES1    0.0000
     14 C11        3.1224    5.9470    2.0570 C.2       1 RES1    0.0000
     15 O3         2.1757    6.6541    2.2321 O.2       1 RES1    0.0000
     16 O4         3.1470    4.6514    2.3129 O.3       1 RES1    0.0000
     17 C12        1.8899    4.1615    2.7708 C.3       1 RES1    0.0000
     18 N2         4.4324    7.3607    0.5269 N.3       1 RES1    0.0000
     19 C13        4.4598    6.8427   -0.8585 C.3       1 RES1    0.0000
     20 C14        3.1917    5.9833   -1.1329 C.ar      1 RES1    0.0000
     21 C15        1.8754    6.3166   -1.0235 C.ar      1 RES1    0.0000
     22 C16        0.9456    5.3200   -1.3467 C.ar      1 RES1    0.0000
     23 C17        1.3083    4.1036   -1.6800 C.ar      1 RES1    0.0000
     24 C18        2.6064    3.6895   -1.7944 C.ar      1 RES1    0.0000
     25 C19        3.5002    4.7121   -1.4847 C.ar      1 RES1    0.0000
     26 C20        4.9625    4.6477   -1.5133 C.ar      1 RES1    0.0000
     27 C21        5.8730    3.5975   -1.8348 C.ar      1 RES1    0.0000
     28 C22        7.1877    3.8733   -1.7877 C.ar      1 RES1    0.0000
     29 C23        7.7962    5.0224   -1.3854 C.ar      1 RES1    0.0000
     30 C24        6.8999    6.0838   -1.0521 C.ar      1 RES1    0.0000
     31 C25        5.5754    5.8574   -1.1447 C.ar      1 RES1    0.0000
     32 C26        4.4529    8.0936   -1.8012 C.ar      1 RES1    0.0000
     33 C27        5.0254    8.0037   -3.0654 C.ar      1 RES1    0.0000
     34 C28        4.9948    9.1380   -3.8936 C.ar      1 RES1    0.0000
     35 C29        4.4155   10.2707   -3.5165 C.ar      1 RES1    0.0000
     36 C30        3.8641   10.3472   -2.2776 C.ar      1 RES1    0.0000
     37 C31        3.8348    9.2148   -1.4409 C.ar      1 RES1    0.0000
     38 O5         8.2768    8.2713    6.2368 O.3       2 RES2    0.0000
     39 N3         8.7973    9.5245    5.8042 N.pl3     2 RES2    0.0000
     40 C32        9.9025    9.7622    6.3361 C.3       2 RES2    0.0000
     41 C33        7.6891   10.2413    5.3985 C.2       2 RES2    0.0000
     42 C34        6.5695    9.5190    5.5028 C.2       2 RES2    0.0000
     43 C35        6.9432    8.2346    6.0314 C.2       2 RES2    0.0000
     44 O6         6.3023    7.2216    6.2536 O.2       2 RES2    0.0000
     45 C36        7.9363   11.6730    4.9372 C.3       2 RES2    0.0000
     46 C37        9.0037   11.7313    3.8734 C.3       2 RES2    0.0000
     47 C38        8.2730   12.5801    6.0163 C.3       2 RES2    0.0000
     48 C39        6.7008   12.1944    4.1040 C.3       2 RES2    0.0000
     49 C40        5.1046    9.8000    5.2554 C.3       2 RES2    0.0000
     50 C41        4.4034   10.4463    6.4304 C.3       2 RES2    0.0000
     51 C42        3.0194   10.8201    5.9506 C.2       2 RES2    0.0000
     52 O7         2.0830   10.1109    5.9085 O.2       2 RES2    0.0000
     53 O8         2.9871   12.0938    5.5129 O.3       2 RES2    0.0000
     54 C43        1.6935   12.5237    5.0012 C.3       2 RES2    0.0000
     55 N4         4.3529    9.5555    7.5532 N.3       2 RES2    0.0000
     56 C44        4.3215   10.1442    8.8779 C.3       2 RES2    0.0000
     57 C45        3.2512   11.2106    9.0547 C.ar      2 RES2    0.0000
     58 C46        1.8669   11.0839    8.9369 C.ar      2 RES2    0.0000
     59 C47        1.1239   12.2921    9.1153 C.ar      2 RES2    0.0000
     60 C48        1.7540   13.4587    9.5109 C.ar      2 RES2    0.0000
     61 C49        3.1271   13.5236    9.7129 C.ar      2 RES2    0.0000
     62 C50        3.8738   12.4232    9.4233 C.ar      2 RES2    0.0000
     63 C51        5.3211   12.2308    9.5631 C.ar      2 RES2    0.0000
     64 C52        6.3915   13.0909    9.9435 C.ar      2 RES2    0.0000
     65 C53        7.6468   12.5270    9.8880 C.ar      2 RES2    0.0000
     66 C54        7.9045   11.2347    9.5328 C.ar      2 RES2    0.0000
     67 C55        6.8597   10.4358    9.2011 C.ar      2 RES2    0.0000
     68 C56        5.5757   10.9218    9.1793 C.ar      2 RES2    0.0000
     69 C57        4.1396    8.9922    9.8762 C.ar      2 RES2    0.0000
     70 C58        4.5408    7.6921    9.5631 C.ar      2 RES2    0.0000
     71 C59        4.4443    6.6857   10.5057 C.ar      2 RES2    0.0000
     72 C60        4.0180    6.9634   11.7464 C.ar      2 RES2    0.0000
     73 C61        3.6387    8.2095   12.0780 C.ar      2 RES2    0.0000
     74 C62        3.6812    9.2226   11.1454 C.ar      2 RES2    0.0000
     75 O9         8.0811    3.7930    9.8021 O.3       3 RES3    0.0000
     76 N5         8.3471    5.1357   10.0832 N.3       3 RES3    0.0000
     77 C63        7.9646    5.9159    8.9554 C.3       3 RES3    0.0000
     78 C64        9.7058    5.1764   10.5394 C.2       3 RES3    0.0000
     79 C65       10.1957    3.9370   10.7178 C.2       3 RES3    0.0000
     80 C66        9.1455    3.0524   10.2566 C.2       3 RES3    0.0000
     81 O10        9.1365    1.8457   10.2196 O.2       3 RES3    0.0000
     82 C67       10.2115    6.5398   10.9350 C.3       3 RES3    0.0000
     83 C68       10.9261    7.2457    9.8358 C.3       3 RES3    0.0000
     84 C69       11.2599    6.3730   12.0275 C.3       3 RES3    0.0000
     85 C70        9.1505    7.3889   11.6622 C.3       3 RES3    0.0000
     86 C71       11.4596    3.3704   11.1639 C.3       3 RES3    0.0000
     87 C72       12.5662    3.2192   10.0647 C.3       3 RES3    0.0000
     88 C73       13.7178    2.4809   10.6960 C.2       3 RES3    0.0000
     89 O11       13.7389    1.3110   10.9367 O.2       3 RES3    0.0000
     90 O12       14.7069    3.2978   11.0057 O.3       3 RES3    0.0000
     91 C74       15.8654    2.7128   11.6100 C.3       3 RES3    0.0000
     92 N6        11.9725    2.5025    8.9789 N.3       3 RES3    0.0000
     93 C75       12.6095    2.6250    7.6558 C.3       3 RES3    0.0000
     94 C76       14.1244    2.3575    7.5969 C.ar      3 RES3    0.0000
     95 C77       14.7597    1.1696    7.9302 C.ar      3 RES3    0.0000
     96 C78       16.1892    1.1882    7.8225 C.ar      3 RES3    0.0000
     97 C79       16.8780    2.2860    7.5750 C.ar      3 RES3    0.0000
     98 C80       16.2270    3.4668    7.2232 C.ar      3 RES3    0.0000
     99 C81       14.7808    3.5585    7.2603 C.ar      3 RES3    0.0000
    100 C82       13.8426    4.5904    6.9354 C.ar      3 RES3    0.0000
    101 C83       14.0236    5.8984    6.4506 C.ar      3 RES3    0.0000
    102 C84       12.9043    6.6013    6.2031 C.ar      3 RES3    0.0000
    103 C85       11.7033    6.1381    6.4455 C.ar      3 RES3    0.0000
    104 C86       11.5121    4.8623    6.9455 C.ar      3 RES3    0.0000
    105 C87       12.5974    4.0962    7.2064 C.ar      3 RES3    0.0000
    106 C88       11.8737    1.7525    6.6761 C.ar      3 RES3    0.0000
    107 C89       10.6629    1.2147    6.9404 C.ar      3 RES3    0.0000
    108 C90       10.0060    0.4384    5.9977 C.ar      3 RES3    0.0000
    109 C91       10.4816    0.2717    4.7218 C.ar      3 RES3    0.0000
    110 C92       11.6599    0.8552    4.4491 C.ar      3 RES3    0.0000
    111 C93       12.3362    1.5598    5.4136 C.ar      3 RES3    0.0000
    112 O13        4.3317   -0.5813   15.2831 O.3       4 RES4    0.0000
    113 N7         4.6203   -1.9262   14.8976 N.3       4 RES4    0.0000
    114 C94        3.9985   -2.7301   15.7662 C.3       4 RES4    0.0000
    115 C95        5.9026   -1.9124   14.4532 C.2       4 RES4    0.0000
    116 C96        6.3912   -0.6536   14.3707 C.2       4 RES4    0.0000
    117 C97        5.3932    0.1925   14.8841 C.2       4 RES4    0.0000
    118 O14        5.2684    1.4314   14.9817 O.2       4 RES4    0.0000
    119 C98        6.5333   -3.2200   14.0206 C.3       4 RES4    0.0000
    120 C99        6.7259   -4.2205   15.0104 C.3       4 RES4    0.0000
    121 C100       7.7823   -3.0619   13.3590 C.3       4 RES4    0.0000
    122 C101       5.6639   -3.7326   12.9096 C.3       4 RES4    0.0000
    123 C102       7.6686   -0.0301   13.9044 C.3       4 RES4    0.0000
    124 C103       8.7173    0.0015   14.9750 C.3       4 RES4    0.0000
    125 C104       9.9968    0.7180   14.3993 C.2       4 RES4    0.0000
    126 O15       10.0451    1.8618   14.0997 O.2       4 RES4    0.0000
    127 O16       10.9542   -0.1508   14.2596 O.3       4 RES4    0.0000
    128 C105      12.2090    0.3799   13.7159 C.3       4 RES4    0.0000
    129 N8         8.2315    0.7364   16.1601 N.3       4 RES4    0.0000
    130 C106       8.9179    0.5167   17.4310 C.3       4 RES4    0.0000
    131 C107      10.3771    0.9630   17.4647 C.ar      4 RES4    0.0000
    132 C108      10.9157    2.1458   17.2172 C.ar      4 RES4    0.0000
    133 C109      12.2532    2.3086   17.2458 C.ar      4 RES4    0.0000
    134 C110      13.0877    1.2358   17.5118 C.ar      4 RES4    0.0000
    135 C111      12.5338    0.0154   17.7795 C.ar      4 RES4    0.0000
    136 C112      11.1576   -0.1576   17.7778 C.ar      4 RES4    0.0000
    137 C113      10.3088   -1.3136   18.0252 C.ar      4 RES4    0.0000
    138 C114      10.6416   -2.6343   18.3552 C.ar      4 RES4    0.0000
    139 C115       9.6143   -3.5081   18.5386 C.ar      4 RES4    0.0000
    140 C116       8.3053   -3.1698   18.3484 C.ar      4 RES4    0.0000
    141 C117       7.9523   -1.8591   17.9781 C.ar      4 RES4    0.0000
    142 C118       8.9882   -0.9394   17.8131 C.ar      4 RES4    0.0000
    143 C119       8.0605    1.2219   18.5471 C.ar      4 RES4    0.0000
    144 C120       6.7670    1.5048   18.3535 C.ar      4 RES4    0.0000
    145 C121       6.0173    1.9793   19.4510 C.ar      4 RES4    0.0000
    146 C122       6.5935    2.2681   20.6529 C.ar      4 RES4    0.0000
    147 C123       7.8874    2.0129   20.8145 C.ar      4 RES4    0.0000
    148 C124       8.5853    1.4670   19.7658 C.ar      4 RES4    0.0000
    149 H1        10.2342    6.4041    2.9963 H         1 RES1    0.0000
    150 H2        10.3346    7.9595    3.0805 H         1 RES1    0.0000
    151 H3        10.5316    7.2477    1.7170 H         1 RES1    0.0000
    152 H4         8.8100    3.4423    2.5923 H         1 RES1    0.0000
    153 H5         8.2017    4.2635    1.4308 H         1 RES1    0.0000
    154 H6         9.5546    4.6913    2.0705 H         1 RES1    0.0000
    155 H7         8.7608    4.1123    4.7134 H         1 RES1    0.0000
    156 H8         9.4763    5.4826    4.4609 H         1 RES1    0.0000
    157 H9         8.0642    5.4345    5.1174 H         1 RES1    0.0000
    158 H10        6.8931    3.5686    3.6529 H         1 RES1    0.0000
    159 H11        6.2657    4.9355    4.0569 H         1 RES1    0.0000
    160 H12        6.2511    4.4697    2.5755 H         1 RES1    0.0000
    161 H13        5.1047    6.3762    3.5014 H         1 RES1    0.0000
    162 H14        4.7502    7.8041    2.9795 H         1 RES1    0.0000
    163 H15        4.9845    5.6104    1.2793 H         1 RES1    0.0000
    164 H16        1.9592    3.2260    2.9458 H         1 RES1    0.0000
    165 H17        1.6511    4.6216    3.5687 H         1 RES1    0.0000
    166 H18        1.2331    4.3208    2.1042 H         1 RES1    0.0000
    167 H19        4.3766    8.2425    0.7070 H         1 RES1    0.0000
    168 H20        1.6031    7.1825   -0.7407 H         1 RES1    0.0000
    169 H21        0.0180    5.5357   -1.3298 H         1 RES1    0.0000
    170 H22        0.6178    3.4757   -1.8517 H         1 RES1    0.0000
    171 H23        2.8799    2.8221   -2.0537 H         1 RES1    0.0000
    172 H24        5.5578    2.7316   -2.0705 H         1 RES1    0.0000
    173 H25        7.7685    3.1788   -2.0705 H         1 RES1    0.0000
    174 H26        8.7391    5.1183   -1.3298 H         1 RES1    0.0000
    175 H27        7.2292    6.9270   -0.7743 H         1 RES1    0.0000
    176 H28        5.4238    7.1962   -3.3667 H         1 RES1    0.0000
    177 H29        5.4035    9.0918   -4.7470 H         1 RES1    0.0000
    178 H30        4.3832   11.0101   -4.1074 H         1 RES1    0.0000
    179 H31        3.5033   11.1744   -1.9695 H         1 RES1    0.0000
    180 H32        3.3703    9.2480   -0.6060 H         1 RES1    0.0000
    181 H33        9.9641   10.7010    6.3799 H         2 RES2    0.0000
    182 H34       10.5993    9.3970    5.7907 H         2 RES2    0.0000
    183 H35        9.9318    9.3656    7.1879 H         2 RES2    0.0000
    184 H36        9.1259   12.6279    3.6024 H         2 RES2    0.0000
    185 H37        9.8102   11.3852    4.2252 H         2 RES2    0.0000
    186 H38        8.7169   11.2121    3.1310 H         2 RES2    0.0000
    187 H39        8.4096   13.4428    5.6560 H         2 RES2    0.0000
    188 H40        7.5563   12.5960    6.6492 H         2 RES2    0.0000
    189 H41        9.0679   12.2852    6.4472 H         2 RES2    0.0000
    190 H42        6.8673   13.0889    3.8212 H         2 RES2    0.0000
    191 H43        6.5796   11.6432    3.3499 H         2 RES2    0.0000
    192 H44        5.9248   12.1719    4.6460 H         2 RES2    0.0000
    193 H45        4.6674    8.9788    5.0669 H         2 RES2    0.0000
    194 H46        5.0367   10.3897    4.5114 H         2 RES2    0.0000
    195 H47        4.8744   11.2407    6.6660 H         2 RES2    0.0000
    196 H48        1.7538   13.4282    4.7134 H         2 RES2    0.0000
    197 H49        1.4424   11.9697    4.2757 H         2 RES2    0.0000
    198 H50        1.0407   12.4462    5.6897 H         2 RES2    0.0000
    199 H51        4.3464    8.6660    7.4404 H         2 RES2    0.0000
    200 H52        1.4513   10.2541    8.7534 H         2 RES2    0.0000
    201 H53        0.1894   12.2939    8.9554 H         2 RES2    0.0000
    202 H54        1.2259   14.2452    9.6456 H         2 RES2    0.0000
    203 H55        3.5266   14.3154   10.0496 H         2 RES2    0.0000
    204 H56        6.2473   13.9831   10.2179 H         2 RES2    0.0000
    205 H57        8.3918   13.0825   10.1169 H         2 RES2    0.0000
    206 H58        8.7935   10.8990    9.5277 H         2 RES2    0.0000
    207 H59        7.0154    9.5226    8.9722 H         2 RES2    0.0000
    208 H60        4.8779    7.4923    8.6860 H         2 RES2    0.0000
    209 H61        4.6800    5.7883   10.2684 H         2 RES2    0.0000
    210 H62        3.9839    6.2805   12.4062 H         2 RES2    0.0000
    211 H63        3.3363    8.3873   12.9617 H         2 RES2    0.0000
    212 H64        3.3813   10.0914   11.3794 H         2 RES2    0.0000
    213 H65        8.1965    5.3898    8.1979 H         3 RES3    0.0000
    214 H66        8.4501    6.7235    9.0227 H         3 RES3    0.0000
    215 H67        7.0417    6.0847    9.0564 H         3 RES3    0.0000
    216 H68       11.2259    8.0913   10.1506 H         3 RES3    0.0000
    217 H69       11.6903    6.7287    9.5782 H         3 RES3    0.0000
    218 H70       10.3557    7.3549    9.1069 H         3 RES3    0.0000
    219 H71       11.5803    7.2260   12.2716 H         3 RES3    0.0000
    220 H72       10.8681    5.9461   12.7766 H         3 RES3    0.0000
    221 H73       11.9742    5.8485   11.6992 H         3 RES3    0.0000
    222 H74        9.5234    8.2301   11.8844 H         3 RES3    0.0000
    223 H75        8.4027    7.5096   11.0932 H         3 RES3    0.0000
    224 H76        8.8779    6.9396   12.4567 H         3 RES3    0.0000
    225 H77       11.8056    3.9353   11.8507 H         3 RES3    0.0000
    226 H78       11.2836    2.5130   11.5141 H         3 RES3    0.0000
    227 H79       12.8488    4.0882    9.7802 H         3 RES3    0.0000
    228 H80       16.5010    3.3795   11.7834 H         3 RES3    0.0000
    229 H81       15.6083    2.2869   12.4231 H         3 RES3    0.0000
    230 H82       16.2365    2.0649   11.0259 H         3 RES3    0.0000
    231 H83       11.2408    1.9889    9.1069 H         3 RES3    0.0000
    232 H84       14.2839    0.3975    8.2147 H         3 RES3    0.0000
    233 H85       16.6563    0.3646    7.9285 H         3 RES3    0.0000
    234 H86       17.8285    2.2694    7.6424 H         3 RES3    0.0000
    235 H87       16.7391    4.2233    6.9522 H         3 RES3    0.0000
    236 H88       14.8846    6.2688    6.2957 H         3 RES3    0.0000
    237 H89       12.9884    7.4773    5.8412 H         3 RES3    0.0000
    238 H90       10.9459    6.6851    6.2789 H         3 RES3    0.0000
    239 H91       10.6357    4.5310    7.1037 H         3 RES3    0.0000
    240 H92       10.2577    1.3687    7.7770 H         3 RES3    0.0000
    241 H93        9.2030    0.0053    6.2452 H         3 RES3    0.0000
    242 H94       10.0058   -0.2207    4.0737 H         3 RES3    0.0000
    243 H95       12.0341    0.7760    3.5687 H         3 RES3    0.0000
    244 H96       13.1809    1.9359    5.1847 H         3 RES3    0.0000
    245 H97        4.6923   -3.1666   16.2443 H         4 RES4    0.0000
    246 H98        3.4506   -3.3174   15.2679 H         4 RES4    0.0000
    247 H99        3.4603   -2.1775   16.3284 H         4 RES4    0.0000
    248 H100       7.1285   -4.9845   14.5946 H         4 RES4    0.0000
    249 H101       7.3047   -3.8733   15.6719 H         4 RES4    0.0000
    250 H102       5.8921   -4.4577   15.3857 H         4 RES4    0.0000
    251 H103       8.1175   -3.9278   13.1469 H         4 RES4    0.0000
    252 H104       7.6703   -2.5457   12.6082 H         4 RES4    0.0000
    253 H105       8.3843   -2.6537   13.9717 H         4 RES4    0.0000
    254 H106       6.0171   -4.5579   12.6082 H         4 RES4    0.0000
    255 H107       4.7821   -3.8618   13.2479 H         4 RES4    0.0000
    256 H108       5.6562   -3.1077   12.2042 H         4 RES4    0.0000
    257 H109       7.9982   -0.5283   13.1637 H         4 RES4    0.0000
    258 H110       7.4894    0.8567   13.6182 H         4 RES4    0.0000
    259 H111       8.9494   -0.8910   15.2174 H         4 RES4    0.0000
    260 H112      12.8516   -0.3187   13.6519 H         4 RES4    0.0000
    261 H113      12.0548    0.7494   12.8607 H         4 RES4    0.0000
    262 H114      12.5353    1.0481   14.2916 H         4 RES4    0.0000
    263 H115       7.5324    1.2966   16.1096 H         4 RES4    0.0000
    264 H116      10.3558    2.8890   17.0186 H         4 RES4    0.0000
    265 H117      12.6232    3.1616   17.0859 H         4 RES4    0.0000
    266 H118      14.0372    1.3547   17.5068 H         4 RES4    0.0000
    267 H119      13.0896   -0.7333   17.9613 H         4 RES4    0.0000
    268 H120      11.5477   -2.9086   18.4494 H         4 RES4    0.0000
    269 H121       9.8207   -4.3907   18.8198 H         4 RES4    0.0000
    270 H122       7.6313   -3.8317   18.4663 H         4 RES4    0.0000
    271 H123       7.0508   -1.6052   17.8434 H         4 RES4    0.0000
    272 H124       6.3579    1.3845   17.5068 H         4 RES4    0.0000
    273 H125       5.0793    2.0961   19.3416 H         4 RES4    0.0000
    274 H126       6.0742    2.6406   21.3616 H         4 RES4    0.0000
    275 H127       8.3219    2.2103   21.6309 H         4 RES4    0.0000
    276 H128       9.5013    1.2378   19.9139 H         4 RES4    0.0000
@<TRIPOS>BOND
     1    1    2 1
     2    2    3 1
     3    3  149 1
     4    4    2 1
     5    5    4 2
     6    6    1 1
     7    7    6 2
     8    8    4 1
     9    9    8 1
    10   10    8 1
    11   11    8 1
    12   12    5 1
    13   13   12 1
    14   14   13 1
    15   15   14 2
    16   16   14 1
    17   17   16 1
    18   18   13 1
    19   19   18 1
    20   20   19 1
    21   21   20 ar
    22   22   21 ar
    23   23   22 ar
    24   24   23 ar
    25   25   20 ar
    26   26   25 1
    27   27   26 ar
    28   28   27 ar
    29   29   28 ar
    30   30   29 ar
    31   31   19 1
    32   32   19 1
    33   33   32 ar
    34   34   33 ar
    35   35   34 ar
    36   36   35 ar
    37   37   32 ar
    38   38   39 1
    39   39   40 1
    40   40  181 1
    41   41   39 1
    42   42   41 2
    43   43   38 1
    44   44   43 2
    45   45   41 1
    46   46   45 1
    47   47   45 1
    48   48   45 1
    49   49   42 1
    50   50   49 1
    51   51   50 1
    52   52   51 2
    53   53   51 1
    54   54   53 1
    55   55   50 1
    56   56   55 1
    57   57   56 1
    58   58   57 ar
    59   59   58 ar
    60   60   59 ar
    61   61   60 ar
    62   62   57 ar
    63   63   62 1
    64   64   63 ar
    65   65   64 ar
    66   66   65 ar
    67   67   66 ar
    68   68   56 1
    69   69   56 1
    70   70   69 ar
    71   71   70 ar
    72   72   71 ar
    73   73   72 ar
    74   74   69 ar
    75   75   76 1
    76   76   77 1
    77   77  213 1
    78   78   76 1
    79   79   78 2
    80   80   75 1
    81   81   80 2
    82   82   78 1
    83   83   82 1
    84   84   82 1
    85   85   82 1
    86   86   79 1
    87   87   86 1
    88   88   87 1
    89   89   88 2
    90   90   88 1
    91   91   90 1
    92   92   87 1
    93   93   92 1
    94   94   93 1
    95   95   94 ar
    96   96   95 ar
    97   97   96 ar
    98   98   97 ar
    99   99   94 ar
   100  100   99 1
   101  101  100 ar
   102  102  101 ar
   103  103  102 ar
   104  104  103 ar
   105  105   93 1
   106  106   93 1
   107  107  106 ar
   108  108  107 ar
   109  109  108 ar
   110  110  109 ar
   111  111  106 ar
   112  112  113 1
   113  113  114 1
   114  114  245 1
   115  115  113 1
   116  116  115 2
   117  117  112 1
   118  118  117 2
   119  119  115 1
   120  120  119 1
   121  121  119 1
   122  122  119 1
   123  123  116 1
   124  124  123 1
   125  125  124 1
   126  126  125 2
   127  127  125 1
   128  128  127 1
   129  129  124 1
   130  130  129 1
   131  131  130 1
   132  132  131 ar
   133  133  132 ar
   134  134  133 ar
   135  135  134 ar
   136  136  131 ar
   137  137  136 1
   138  138  137 ar
   139  139  138 ar
   140  140  139 ar
   141  141  140 ar
   142  142  130 1
   143  143  130 1
   144  144  143 ar
   145  145  144 ar
   146  146  145 ar
   147  147  146 ar
   148  148  143 ar
   149  150    3 1
   150  151    3 1
   151  152    9 1
   152  153    9 1
   153  154    9 1
   154  155   10 1
   155  156   10 1
   156  157   10 1
   157  158   11 1
   158  159   11 1
   159  160   11 1
   160  161   12 1
   161  162   12 1
   162  163   13 1
   163  164   17 1
   164  165   17 1
   165  166   17 1
   166  167   18 1
   167  168   21 1
   168  169   22 1
   169  170   23 1
   170  171   24 1
   171  172   27 1
   172  173   28 1
   173  174   29 1
   174  175   30 1
   175  176   33 1
   176  177   34 1
   177  178   35 1
   178  179   36 1
   179  180   37 1
   180  182   40 1
   181  183   40 1
   182  184   46 1
   183  185   46 1
   184  186   46 1
   185  187   47 1
   186  188   47 1
   187  189   47 1
   188  190   48 1
   189  191   48 1
   190  192   48 1
   191  193   49 1
   192  194   49 1
   193  195   50 1
   194  196   54 1
   195  197   54 1
   196  198   54 1
   197  199   55 1
   198  200   58 1
   199  201   59 1
   200  202   60 1
   201  203   61 1
   202  204   64 1
   203  205   65 1
   204  206   66 1
   205  207   67 1
   206  208   70 1
   207  209   71 1
   208  210   72 1
   209  211   73 1
   210  212   74 1
   211  214   77 1
   212  215   77 1
   213  216   83 1
   214  217   83 1
   215  218   83 1
   216  219   84 1
   217  220   84 1
   218  221   84 1
   219  222   85 1
   220  223   85 1
   221  224   85 1
   222  225   86 1
   223  226   86 1
   224  227   87 1
   225  228   91 1
   226  229   91 1
   227  230   91 1
   228  231   92 1
   229  232   95 1
   230  233   96 1
   231  234   97 1
   232  235   98 1
   233  236  101 1
   234  237  102 1
   235  238  103 1
   236  239  104 1
   237  240  107 1
   238  241  108 1
   239  242  109 1
   240  243  110 1
   241  244  111 1
   242  246  114 1
   243  247  114 1
   244  248  120 1
   245  249  120 1
   246  250  120 1
   247  251  121 1
   248  252  121 1
   249  253  121 1
   250  254  122 1
   251  255  122 1
   252  256  122 1
   253  257  123 1
   254  258  123 1
   255  259  124 1
   256  260  128 1
   257  261  128 1
   258  262  128 1
   259  263  129 1
   260  264  132 1
   261  265  133 1
   262  266  134 1
   263  267  135 1
   264  268  138 1
   265  269  139 1
   266  270  140 1
   267  271  141 1
   268  272  144 1
   269  273  145 1
   270  274  146 1
   271  275  147 1
   272  276  148 1
   273    5    6 1
   274   24   25 ar
   275   26   31 ar
   276   30   31 ar
   277   36   37 ar
   278   42   43 1
   279   61   62 ar
   280   63   68 ar
   281   67   68 ar
   282   73   74 ar
   283   79   80 1
   284   98   99 ar
   285  100  105 ar
   286  104  105 ar
   287  110  111 ar
   288  116  117 1
   289  135  136 ar
   290  137  142 ar
   291  141  142 ar
   292  147  148 ar
@<TRIPOS>SUBSTRUCTURE
     1 RES1 1
     2 RES2 38
     3 RES3 75
     4 RES4 112

@<TRIPOS>CRYSIN
  10.9220   15.6850   16.9340  85.0000  84.8900  71.8600   1 1

