# MOL2 file generated by ConQuest
# Please check atom types

@<TRIPOS>MOLECULE
ZAQRAN
    84    88     2
SMALL
NO_CHARGES
****
Generated from CSD

@<TRIPOS>ATOM
      1 O1         1.4616    4.8273    3.6736 O.3       1 RES1    0.0000
      2 C1         2.3995    4.9688    4.6835 C.ar      1 RES1    0.0000
      3 C2         2.5375    4.1109    5.7494 C.ar      1 RES1    0.0000
      4 C3         3.5440    4.3404    6.6809 C.ar      1 RES1    0.0000
      5 C4         4.4090    5.4187    6.5693 C.ar      1 RES1    0.0000
      6 C5         5.4977    5.6227    7.5922 C.3       1 RES1    0.0000
      7 C6         6.8388    5.0500    7.2063 C.3       1 RES1    0.0000
      8 N1         6.7896    3.7337    6.6403 N.am      1 RES1    0.0000
      9 C7         7.8612    2.9497    6.5346 C.2       1 RES1    0.0000
     10 O2         7.9787    1.9918    5.7796 O.2       1 RES1    0.0000
     11 N2         8.9311    3.3303    7.3134 N.am      1 RES1    0.0000
     12 O3         8.6906    4.1103    8.4699 O.3       1 RES1    0.0000
     13 C8         7.7614    5.0665    8.3863 C.2       1 RES1    0.0000
     14 O4         7.7283    5.8971    9.2442 O.2       1 RES1    0.0000
     15 C9         9.9664    2.3594    7.6666 C.3       1 RES1    0.0000
     16 H1        10.6525    2.7554    8.2145 H         1 RES1    0.0000
     17 H2        10.3906    1.9742    6.8986 H         1 RES1    0.0000
     18 H3         9.5966    1.6197    8.1843 H         1 RES1    0.0000
     19 H4         6.2435    3.6473    5.9754 H         1 RES1    0.0000
     20 H5         7.2246    5.6420    6.5569 H         1 RES1    0.0000
     21 H6         5.5810    6.5572    7.7727 H         1 RES1    0.0000
     22 H7         5.2096    5.1960    8.4165 H         1 RES1    0.0000
     23 C10        4.2165    6.2862    5.5074 C.ar      1 RES1    0.0000
     24 C11        3.2295    6.0698    4.5619 C.ar      1 RES1    0.0000
     25 H8         3.1099    6.6635    3.8099 H         1 RES1    0.0000
     26 H9         4.8036    7.0561    5.4335 H         1 RES1    0.0000
     27 H10        3.6374    3.7303    7.4253 H         1 RES1    0.0000
     28 H11        1.9372    3.3616    5.8281 H         1 RES1    0.0000
     29 C12        0.5609    3.7257    3.8309 C.3       1 RES1    0.0000
     30 C13       -0.3608    3.6473    2.6497 C.ar      1 RES1    0.0000
     31 C14       -0.2589    2.6099    1.7418 C.ar      1 RES1    0.0000
     32 C15       -1.1400    2.5179    0.6702 C.ar      1 RES1    0.0000
     33 C16       -2.1347    3.4581    0.5209 C.ar      1 RES1    0.0000
     34 C17       -2.2493    4.4842    1.4273 C.ar      1 RES1    0.0000
     35 C18       -1.3738    4.5768    2.4845 C.ar      1 RES1    0.0000
     36 H12       -1.4539    5.3233    3.1434 H         1 RES1    0.0000
     37 H13       -2.9287    5.2034    1.3178 H         1 RES1    0.0000
     38 H14       -2.7842    3.3968   -0.2001 H         1 RES1    0.0000
     39 H15       -1.0536    1.7998    0.0094 H         1 RES1    0.0000
     40 H16        0.4449    1.9265    1.8615 H         1 RES1    0.0000
     41 H17        1.0548    2.8826    3.8911 H         1 RES1    0.0000
     42 H18        0.0567    3.8002    4.6425 H         1 RES1    0.0000
     43 O5        12.4414    0.8925    5.7554 O.3       2 RES2    0.0000
     44 C19       11.4696    0.7175    4.7952 C.ar      2 RES2    0.0000
     45 C20       10.6130   -0.3647    4.9997 C.ar      2 RES2    0.0000
     46 C21        9.5762   -0.5897    4.1210 C.ar      2 RES2    0.0000
     47 C22        9.3601    0.2409    3.0392 C.ar      2 RES2    0.0000
     48 C23       10.2283    1.2908    2.8338 C.ar      2 RES2    0.0000
     49 C24       11.2768    1.5493    3.7038 C.ar      2 RES2    0.0000
     50 H19       11.8762    2.3037    3.5512 H         2 RES2    0.0000
     51 H20       10.0997    1.8356    2.0390 H         2 RES2    0.0000
     52 C25        8.1900   -0.0307    2.1075 C.3       2 RES2    0.0000
     53 C26        7.2860    1.1851    1.9021 C.3       2 RES2    0.0000
     54 N3         6.7350    1.6919    3.1399 N.am      2 RES2    0.0000
     55 C27        5.8252    2.6764    3.1083 C.2       2 RES2    0.0000
     56 O6         5.5377    3.4275    4.0317 O.2       2 RES2    0.0000
     57 N4         5.2589    2.8616    1.8540 N.am      2 RES2    0.0000
     58 O7         5.0331    1.6333    1.1120 O.3       2 RES2    0.0000
     59 C28        6.1236    0.8164    1.0121 C.2       2 RES2    0.0000
     60 O8         6.0581   -0.0983    0.2485 O.2       2 RES2    0.0000
     61 C29        4.0033    3.5917    1.7656 C.3       2 RES2    0.0000
     62 H21        3.6922    3.6752    0.8760 H         2 RES2    0.0000
     63 H22        3.3169    3.1559    2.2882 H         2 RES2    0.0000
     64 H23        4.1023    4.4842    2.1353 H         2 RES2    0.0000
     65 H24        7.2085    1.6305    3.8477 H         2 RES2    0.0000
     66 H25        7.8201    1.8833    1.4783 H         2 RES2    0.0000
     67 H26        8.5304   -0.3352    1.2536 H         2 RES2    0.0000
     68 H27        7.6597   -0.7522    2.4676 H         2 RES2    0.0000
     69 H28        8.9818   -1.3663    4.2479 H         2 RES2    0.0000
     70 H29       10.7482   -0.9419    5.7904 H         2 RES2    0.0000
     71 C30       13.3083    2.0208    5.5727 C.3       2 RES2    0.0000
     72 C31       14.2260    2.1219    6.7576 C.ar      2 RES2    0.0000
     73 C32       15.2366    1.1874    6.9554 C.ar      2 RES2    0.0000
     74 C33       16.1141    1.3078    8.0200 C.ar      2 RES2    0.0000
     75 C34       15.9867    2.3617    8.8872 C.ar      2 RES2    0.0000
     76 C35       14.9812    3.3013    8.7050 C.ar      2 RES2    0.0000
     77 C36       14.1200    3.1639    7.6387 C.ar      2 RES2    0.0000
     78 H30       13.4142    3.8036    7.5160 H         2 RES2    0.0000
     79 H31       14.8743    4.0513    9.3378 H         2 RES2    0.0000
     80 H32       16.6118    2.4458    9.6324 H         2 RES2    0.0000
     81 H33       16.8283    0.6942    8.1295 H         2 RES2    0.0000
     82 H34       15.3317    0.4346    6.3435 H         2 RES2    0.0000
     83 H35       13.8351    1.9202    4.7501 H         2 RES2    0.0000
     84 H36       12.7976    2.8344    5.4562 H         2 RES2    0.0000
@<TRIPOS>BOND
     1    1    2 1
     2    2    3 ar
     3    3    4 ar
     4    4    5 ar
     5    5    6 1
     6    6    7 1
     7    7    8 1
     8    8    9 1
     9    9   10 2
    10   11    9 1
    11   12   11 1
    12   13    7 1
    13   14   13 2
    14   15   11 1
    15   16   15 1
    16   17   15 1
    17   18   15 1
    18   19    8 1
    19   20    7 1
    20   21    6 1
    21   22    6 1
    22   23    5 ar
    23   24    2 ar
    24   25   24 1
    25   26   23 1
    26   27    4 1
    27   28    3 1
    28   29    1 1
    29   30   29 1
    30   31   30 ar
    31   32   31 ar
    32   33   32 ar
    33   34   33 ar
    34   35   30 ar
    35   36   35 1
    36   37   34 1
    37   38   33 1
    38   39   32 1
    39   40   31 1
    40   41   29 1
    41   42   29 1
    42   43   44 1
    43   44   45 ar
    44   45   46 ar
    45   46   47 ar
    46   47   48 ar
    47   48   49 ar
    48   49   44 ar
    49   50   49 1
    50   51   48 1
    51   52   47 1
    52   53   52 1
    53   54   53 1
    54   55   54 1
    55   56   55 2
    56   57   55 1
    57   58   57 1
    58   59   53 1
    59   60   59 2
    60   61   57 1
    61   62   61 1
    62   63   61 1
    63   64   61 1
    64   65   54 1
    65   66   53 1
    66   67   52 1
    67   68   52 1
    68   69   46 1
    69   70   45 1
    70   71   43 1
    71   72   71 1
    72   73   72 ar
    73   74   73 ar
    74   75   74 ar
    75   76   75 ar
    76   77   72 ar
    77   78   77 1
    78   79   76 1
    79   80   75 1
    80   81   74 1
    81   82   73 1
    82   83   71 1
    83   84   71 1
    84   12   13 1
    85   23   24 ar
    86   34   35 ar
    87   58   59 1
    88   76   77 ar
@<TRIPOS>SUBSTRUCTURE
     1 RES1 1
     2 RES2 43

@<TRIPOS>CRYSIN
  15.1202    5.6812   19.0459  90.0000  97.5780  90.0000   4 1

