# MOL2 file generated by ConQuest
# Please check atom types

@<TRIPOS>MOLECULE
ZAQZIC
    70    74     2
SMALL
NO_CHARGES
****
Generated from CSD

@<TRIPOS>ATOM
      1 O1         1.4506    2.9540   30.2824 O.2       1 RES1    0.0000
      2 O2         6.1671    4.0935   19.1395 O.3       1 RES1    0.0000
      3 H1         6.7784    3.9189   18.6224 H         1 RES1    0.0000
      4 O3         3.1240    3.5160   31.5385 O.2       1 RES1    0.0000
      5 O4         8.2783    3.6562   24.0350 O.2       1 RES1    0.0000
      6 O5         3.7359    2.2299   24.1892 O.3       1 RES1    0.0000
      7 H2         2.9914    2.5673   24.1251 H         1 RES1    0.0000
      8 O6        -0.6098    1.9713   10.0596 O.2       2 RES2    0.0000
      9 O7         3.6975   -2.1936   18.1703 O.3       2 RES2    0.0000
     10 H3         4.4333   -2.4814   18.3884 H         2 RES2    0.0000
     11 O8        -1.8877    3.1157   11.3857 O.2       2 RES2    0.0000
     12 O9         5.4278    1.3647   16.8392 O.2       2 RES2    0.0000
     13 O10        1.5275    3.2189   17.7621 O.3       2 RES2    0.0000
     14 H4         2.2088    3.6604   17.8778 H         2 RES2    0.0000
     15 N1         6.7211    3.0279   22.4770 N.am      1 RES1    0.0000
     16 N2        -0.8289    2.5440   11.1219 N.pl3     2 RES2    0.0000
     17 C1         2.1224    2.2856   14.1344 C.ar      2 RES2    0.0000
     18 N3         3.8254    1.0921   18.4831 N.am      2 RES2    0.0000
     19 N4         2.6254    3.2681   30.4385 N.pl3     1 RES1    0.0000
     20 C2         3.5029    3.3343   29.2664 C.ar      1 RES1    0.0000
     21 C3         2.9546    3.5843   28.0260 C.ar      1 RES1    0.0000
     22 H5         2.0411    3.7351   27.9363 H         1 RES1    0.0000
     23 C4         3.7844    3.6076   26.9164 C.ar      1 RES1    0.0000
     24 H6         3.4280    3.7970   26.0773 H         1 RES1    0.0000
     25 C5         5.1559    3.3484   27.0462 C.ar      1 RES1    0.0000
     26 C6         6.1082    3.3343   25.9305 C.2       1 RES1    0.0000
     27 H7         6.9990    3.3949   26.1916 H         1 RES1    0.0000
     28 C7         5.9353    3.2505   24.6110 C.2       1 RES1    0.0000
     29 C8         4.7061    3.1378   23.7177 C.3       1 RES1    0.0000
     30 H8         4.2997    4.0231   23.6092 H         1 RES1    0.0000
     31 C9         5.3042    2.6772   22.3709 C.3       1 RES1    0.0000
     32 H9         5.2121    1.7052   22.2847 H         1 RES1    0.0000
     33 C10        4.9084    3.3420   21.0647 C.3       1 RES1    0.0000
     34 H10        4.7060    4.2816   21.1969 H         1 RES1    0.0000
     35 H11        4.1411    2.9032   20.6650 H         1 RES1    0.0000
     36 C11        6.1664    3.1589   20.2004 C.3       1 RES1    0.0000
     37 H12        6.1913    2.2475   19.8405 H         1 RES1    0.0000
     38 C12        4.8571    3.1307   29.4491 C.ar      1 RES1    0.0000
     39 H13        5.2110    2.9948   30.2980 H         1 RES1    0.0000
     40 C13        5.6732    3.1357   28.3252 C.ar      1 RES1    0.0000
     41 H14        6.5868    2.9941   28.4284 H         1 RES1    0.0000
     42 C14        7.3339    3.3604   21.1932 C.3       1 RES1    0.0000
     43 H15        8.0728    2.7659   20.9921 H         1 RES1    0.0000
     44 H16        7.6506    4.2774   21.1810 H         1 RES1    0.0000
     45 C15        7.1340    3.3294   23.7169 C.2       1 RES1    0.0000
     46 C16        0.2147    2.5152   12.1509 C.ar      2 RES2    0.0000
     47 C17       -0.1079    2.9025   13.4474 C.ar      2 RES2    0.0000
     48 H17       -0.9524    3.2385   13.6437 H         2 RES2    0.0000
     49 C18        0.8480    2.7786   14.4389 C.ar      2 RES2    0.0000
     50 H18        0.6438    3.0244   15.3113 H         2 RES2    0.0000
     51 C19        3.1788    2.0538   15.1240 C.2       2 RES2    0.0000
     52 H19        4.0436    2.0200   14.7820 H         2 RES2    0.0000
     53 C20        3.0786    1.8855   16.4432 C.2       2 RES2    0.0000
     54 C21        4.2736    1.4418   17.2302 C.2       2 RES2    0.0000
     55 C22        4.3787   -0.0493   19.2081 C.3       2 RES2    0.0000
     56 H20        4.5292    0.1740   20.1411 H         2 RES2    0.0000
     57 H21        5.2184   -0.3346   18.8139 H         2 RES2    0.0000
     58 C23        3.3032   -1.1551   19.0732 C.3       2 RES2    0.0000
     59 H22        3.0905   -1.5319   19.9522 H         2 RES2    0.0000
     60 C24        2.0716   -0.4649   18.4802 C.3       2 RES2    0.0000
     61 H23        1.9329   -0.7459   17.5613 H         2 RES2    0.0000
     62 H24        1.2782   -0.6818   18.9948 H         2 RES2    0.0000
     63 C25        2.3585    1.0325   18.5440 C.3       2 RES2    0.0000
     64 H25        2.0351    1.4073   19.3911 H         2 RES2    0.0000
     65 C26        1.8823    1.8883   17.3602 C.3       2 RES2    0.0000
     66 H26        1.1204    1.4573   16.9203 H         2 RES2    0.0000
     67 C27        2.4179    1.9580   12.8006 C.ar      2 RES2    0.0000
     68 H27        3.2755    1.6700   12.5852 H         2 RES2    0.0000
     69 C28        1.4718    2.0531   11.8025 C.ar      2 RES2    0.0000
     70 H28        1.6715    1.8151   10.9256 H         2 RES2    0.0000
@<TRIPOS>BOND
     1    1   19 2
     2    2    3 1
     3    4   19 2
     4    5   45 2
     5    6    7 1
     6    8   16 2
     7    9   10 1
     8   11   16 2
     9   12   54 2
    10   13   14 1
    11   15   31 1
    12   16   46 1
    13   17   49 ar
    14   18   54 1
    15   19   20 1
    16   20   21 ar
    17   21   22 1
    18   23   21 ar
    19   24   23 1
    20   25   23 ar
    21   26   25 1
    22   27   26 1
    23   28   26 2
    24   29    6 1
    25   30   29 1
    26   31   29 1
    27   32   31 1
    28   33   31 1
    29   34   33 1
    30   35   33 1
    31   36    2 1
    32   37   36 1
    33   38   20 ar
    34   39   38 1
    35   40   25 ar
    36   41   40 1
    37   42   15 1
    38   43   42 1
    39   44   42 1
    40   45   15 1
    41   46   47 ar
    42   47   48 1
    43   49   47 ar
    44   50   49 1
    45   51   17 1
    46   52   51 1
    47   53   51 2
    48   54   53 1
    49   55   18 1
    50   56   55 1
    51   57   55 1
    52   58    9 1
    53   59   58 1
    54   60   58 1
    55   61   60 1
    56   62   60 1
    57   63   18 1
    58   64   63 1
    59   65   13 1
    60   66   65 1
    61   67   17 ar
    62   68   67 1
    63   69   46 ar
    64   70   69 1
    65   28   29 1
    66   28   45 1
    67   33   36 1
    68   36   42 1
    69   38   40 ar
    70   53   65 1
    71   55   58 1
    72   60   63 1
    73   63   65 1
    74   67   69 ar
@<TRIPOS>SUBSTRUCTURE
     1 RES1 1
     2 RES2 8

@<TRIPOS>CRYSIN
   6.8289    7.0433   26.6180  90.0000  92.3350  90.0000   4 1

