# MOL2 file generated by ConQuest
# Please check atom types

@<TRIPOS>MOLECULE
ZARDAZ
    47    48     1
SMALL
NO_CHARGES
****
Generated from CSD

@<TRIPOS>ATOM
      1 C1         2.6061    1.0442    9.5398 C.2       1 RES1    0.0000
      2 H1         2.6192    0.9155    8.6188 H         1 RES1    0.0000
      3 C2         1.4543    1.6980   10.1608 C.ar      1 RES1    0.0000
      4 C3         1.3055    1.7820   11.5554 C.ar      1 RES1    0.0000
      5 H2         1.9550    1.4174   12.1121 H         1 RES1    0.0000
      6 C4         0.2082    2.3985   12.1003 C.ar      1 RES1    0.0000
      7 H3         0.1088    2.4257   13.0249 H         1 RES1    0.0000
      8 C5        -0.7544    2.9812   11.2923 C.ar      1 RES1    0.0000
      9 H4        -1.4902    3.4031   11.6733 H         1 RES1    0.0000
     10 C6        -0.6178    2.9350    9.9131 C.ar      1 RES1    0.0000
     11 C7         0.4714    2.2577    9.3449 C.ar      1 RES1    0.0000
     12 C8        -2.3489    4.5536    9.5236 C.3       1 RES1    0.0000
     13 H5        -1.9180    5.0704   10.2223 H         1 RES1    0.0000
     14 H6        -3.1453    4.1395    9.8919 H         1 RES1    0.0000
     15 C9        -2.7108    5.4390    8.3757 C.3       1 RES1    0.0000
     16 H7        -1.9101    5.7669    7.9591 H         1 RES1    0.0000
     17 H8        -3.2308    6.1804    8.6940 H         1 RES1    0.0000
     18 H9        -3.2232    4.9399    7.7358 H         1 RES1    0.0000
     19 C10       -0.4457    1.5426    7.2624 C.3       1 RES1    0.0000
     20 H10       -1.1284    2.1869    7.0164 H         1 RES1    0.0000
     21 H11       -0.8517    0.8690    7.8298 H         1 RES1    0.0000
     22 C11        0.1169    0.9022    6.0333 C.2       1 RES1    0.0000
     23 C12        0.6210   -0.4818    6.2395 C.2       1 RES1    0.0000
     24 C13        1.3245   -2.4989    5.2604 C.3       1 RES1    0.0000
     25 H12        2.0305   -2.5673    5.9080 H         1 RES1    0.0000
     26 H13        1.6302   -2.8370    4.4160 H         1 RES1    0.0000
     27 H14        0.5692   -3.0117    5.5565 H         1 RES1    0.0000
     28 C14        0.1474    1.4638    4.8138 C.2       1 RES1    0.0000
     29 H15        0.4938    0.9309    4.1353 H         1 RES1    0.0000
     30 C15       -0.2916    2.8047    4.4060 C.ar      1 RES1    0.0000
     31 C16       -0.3165    3.9301    5.2336 C.ar      1 RES1    0.0000
     32 H16       -0.0178    3.8631    6.1124 H         1 RES1    0.0000
     33 C17       -0.7839    5.1467    4.7534 C.ar      1 RES1    0.0000
     34 H17       -0.7998    5.8886    5.3134 H         1 RES1    0.0000
     35 C18       -1.2246    5.2614    3.4539 C.ar      1 RES1    0.0000
     36 H18       -1.5515    6.0743    3.1430 H         1 RES1    0.0000
     37 C19       -1.1815    4.1700    2.6155 C.ar      1 RES1    0.0000
     38 H19       -1.4694    4.2478    1.7350 H         1 RES1    0.0000
     39 C20       -0.7101    2.9591    3.0822 C.ar      1 RES1    0.0000
     40 H20       -0.6714    2.2312    2.5042 H         1 RES1    0.0000
     41 N1         3.5904    0.6501   10.2432 N.2       1 RES1    0.0000
     42 O1         4.5890    0.0500    9.4610 O.3       1 RES1    0.0000
     43 H21        5.1896   -0.2233    9.9472 H         1 RES1    0.0000
     44 O2        -1.4516    3.5475    9.0227 O.3       1 RES1    0.0000
     45 O3         0.6298    2.2093    7.9775 O.3       1 RES1    0.0000
     46 O4         0.7082   -0.9844    7.3274 O.2       1 RES1    0.0000
     47 O5         0.9407   -1.1227    5.1159 O.3       1 RES1    0.0000
@<TRIPOS>BOND
     1    1    2 1
     2    3    1 1
     3    4    3 ar
     4    5    4 1
     5    6    4 ar
     6    7    6 1
     7    8    6 ar
     8    9    8 1
     9   10    8 ar
    10   11    3 ar
    11   12   13 1
    12   14   12 1
    13   15   12 1
    14   16   15 1
    15   17   15 1
    16   18   15 1
    17   19   20 1
    18   21   19 1
    19   22   19 1
    20   23   22 1
    21   24   25 1
    22   26   24 1
    23   27   24 1
    24   28   22 2
    25   29   28 1
    26   30   28 1
    27   31   30 ar
    28   32   31 1
    29   33   31 ar
    30   34   33 1
    31   35   33 ar
    32   36   35 1
    33   37   35 ar
    34   38   37 1
    35   39   30 ar
    36   40   39 1
    37   41    1 2
    38   42   41 1
    39   43   42 1
    40   44   10 1
    41   45   11 1
    42   46   23 2
    43   47   23 1
    44   10   11 ar
    45   12   44 1
    46   19   45 1
    47   24   47 1
    48   37   39 ar
@<TRIPOS>SUBSTRUCTURE
     1 RES1 1

@<TRIPOS>CRYSIN
   7.4009   22.1125   11.3681  90.0000 103.5610  90.0000 231 1

