# MOL2 file generated by ConQuest
# Please check atom types

@<TRIPOS>MOLECULE
ZARHIJ
    44    46     2
SMALL
NO_CHARGES
****
Generated from CSD

@<TRIPOS>ATOM
      1 O1         5.2598    1.5530    4.0206 O.3       1 RES1    0.0000
      2 O2         7.1981    3.0433   10.6646 O.2       1 RES1    0.0000
      3 O3         6.3427    1.0617   10.4575 O.2       1 RES1    0.0000
      4 O4         8.9593    0.1897   10.5156 O.2       1 RES1    0.0000
      5 O5         8.8906   -0.4790    8.4572 O.2       1 RES1    0.0000
      6 O6        10.1559    2.4483    9.4728 O.2       1 RES1    0.0000
      7 O7         8.7697    3.7911    8.4754 O.2       1 RES1    0.0000
      8 N1         7.1008    1.9597   10.1323 N.pl3     1 RES1    0.0000
      9 N2         8.6785    0.3152    9.3493 N.pl3     1 RES1    0.0000
     10 N3         9.0853    2.7253    8.9804 N.pl3     1 RES1    0.0000
     11 C1         5.8653    1.5612    5.2306 C.ar      1 RES1    0.0000
     12 C2         5.2004    1.5871    6.4133 C.ar      1 RES1    0.0000
     13 C3         5.9226    1.6103    7.6106 C.ar      1 RES1    0.0000
     14 C4         7.2801    1.6117    7.6342 C.ar      1 RES1    0.0000
     15 C5         8.0003    1.5776    6.4024 C.ar      1 RES1    0.0000
     16 C6         9.4152    1.5462    6.3007 C.ar      1 RES1    0.0000
     17 C7        10.0309    1.5189    5.0852 C.ar      1 RES1    0.0000
     18 C8         9.3117    1.4916    3.8970 C.ar      1 RES1    0.0000
     19 C9         7.9522    1.5025    3.9552 C.ar      1 RES1    0.0000
     20 C10        7.2688    1.5380    5.1851 C.ar      1 RES1    0.0000
     21 C11        3.8347    1.5599    3.9806 C.3       1 RES1    0.0000
     22 C12        7.9931    1.6417    8.9350 C.3       1 RES1    0.0000
     23 O8         3.1760    4.9375    4.6001 O.3       2 RES2    0.0000
     24 O9         6.2054    6.1630   -1.0265 O.2       2 RES2    0.0000
     25 O10        6.9482    4.1487   -1.3299 O.2       2 RES2    0.0000
     26 O11        8.1151    7.2002    1.6805 O.2       2 RES2    0.0000
     27 O12        8.8435    6.5929   -0.2689 O.2       2 RES2    0.0000
     28 O13        7.7042    2.9000    0.9883 O.2       2 RES2    0.0000
     29 O14        9.4479    4.1855    0.9011 O.2       2 RES2    0.0000
     30 N4         6.7719    5.1463   -0.6686 N.pl3     2 RES2    0.0000
     31 N5         8.1745    6.4427    0.7322 N.pl3     2 RES2    0.0000
     32 N6         8.2646    3.9740    0.8957 N.pl3     2 RES2    0.0000
     33 C13        4.1308    4.9989    3.6354 C.ar      2 RES2    0.0000
     34 C14        3.8644    5.0235    2.3001 C.ar      2 RES2    0.0000
     35 C15        4.9237    5.0903    1.3935 C.ar      2 RES2    0.0000
     36 C16        6.2177    5.1340    1.7841 C.ar      2 RES2    0.0000
     37 C17        6.5373    5.0726    3.1958 C.ar      2 RES2    0.0000
     38 C18        7.8538    5.0671    3.7190 C.ar      2 RES2    0.0000
     39 C19        8.0761    5.0180    5.0616 C.ar      2 RES2    0.0000
     40 C20        7.0137    4.9812    5.9609 C.ar      2 RES2    0.0000
     41 C21        5.7341    4.9702    5.5031 C.ar      2 RES2    0.0000
     42 C22        5.4606    5.0248    4.1296 C.ar      2 RES2    0.0000
     43 C23        1.8216    4.8993    4.1895 C.3       2 RES2    0.0000
     44 C24        7.2903    5.1790    0.7667 C.3       2 RES2    0.0000
@<TRIPOS>BOND
     1    1   11 1
     2    2    8 2
     3    3    8 2
     4    4    9 2
     5    5    9 2
     6    6   10 2
     7    7   10 2
     8    8   22 1
     9    9   22 1
    10   10   22 1
    11   11   12 ar
    12   12   13 ar
    13   13   14 ar
    14   14   15 ar
    15   15   16 ar
    16   16   17 ar
    17   17   18 ar
    18   18   19 ar
    19   19   20 ar
    20   20   11 ar
    21   21    1 1
    22   22   14 1
    23   23   33 1
    24   24   30 2
    25   25   30 2
    26   26   31 2
    27   27   31 2
    28   28   32 2
    29   29   32 2
    30   30   44 1
    31   31   44 1
    32   32   44 1
    33   33   34 ar
    34   34   35 ar
    35   35   36 ar
    36   36   37 ar
    37   37   38 ar
    38   38   39 ar
    39   39   40 ar
    40   40   41 ar
    41   41   42 ar
    42   42   33 ar
    43   43   23 1
    44   44   36 1
    45   15   20 ar
    46   37   42 ar
@<TRIPOS>SUBSTRUCTURE
     1 RES1 1
     2 RES2 23

@<TRIPOS>CRYSIN
  10.2450   13.6470   18.1680  90.0000  90.0000  90.0000  19 1

