# MOL2 file generated by ConQuest
# Please check atom types

@<TRIPOS>MOLECULE
ZARJOR
    26    28     1
SMALL
NO_CHARGES
****
Generated from CSD

@<TRIPOS>ATOM
      1 C1         3.9655    3.4567    1.8807 C.ar      1 RES1    0.0000
      2 C2         3.0292    2.4863    1.5319 C.ar      1 RES1    0.0000
      3 C3         3.1114    1.8503    0.3162 C.ar      1 RES1    0.0000
      4 C4         4.1138    2.1492   -0.5671 C.ar      1 RES1    0.0000
      5 C5         5.0485    3.0957   -0.2336 C.ar      1 RES1    0.0000
      6 C6         4.9765    3.7488    0.9800 C.ar      1 RES1    0.0000
      7 C7         3.8709    4.1713    3.1638 C.2       1 RES1    0.0000
      8 C8         4.3713    5.4481    3.4973 C.2       1 RES1    0.0000
      9 C9         3.9536    5.6861    4.7598 C.2       1 RES1    0.0000
     10 O1         3.2357    4.6103    5.1814 O.3       1 RES1    0.0000
     11 N1         3.1966    3.6485    4.1590 N.2       1 RES1    0.0000
     12 C10        4.0739    6.8305    5.6518 C.2       1 RES1    0.0000
     13 C11        4.4974    8.0698    5.0488 C.2       1 RES1    0.0000
     14 O2         4.8628    8.2008    3.8874 O.2       1 RES1    0.0000
     15 N2         4.4724    9.1964    5.8713 N.am      1 RES1    0.0000
     16 C12        4.8324   10.4922    5.2998 C.3       1 RES1    0.0000
     17 C13        4.1699    9.1887    7.2109 C.2       1 RES1    0.0000
     18 O3         4.2459   10.1867    7.8932 O.2       1 RES1    0.0000
     19 N3         3.8073    7.9679    7.7324 N.am      1 RES1    0.0000
     20 C14        3.5095    7.9220    9.1698 C.3       1 RES1    0.0000
     21 C15        3.7455    6.8028    6.9947 C.2       1 RES1    0.0000
     22 N4         3.2889    5.7418    7.6987 N.2       1 RES1    0.0000
     23 C16        3.9648    4.6464    7.7356 C.2       1 RES1    0.0000
     24 N5         3.5021    3.5385    8.2506 N.3       1 RES1    0.0000
     25 C17        4.3485    2.3673    8.3810 C.3       1 RES1    0.0000
     26 C18        2.1477    3.4452    8.7265 C.3       1 RES1    0.0000
@<TRIPOS>BOND
     1    1    2 ar
     2    2    3 ar
     3    3    4 ar
     4    4    5 ar
     5    5    6 ar
     6    6    1 ar
     7    7    1 1
     8    8    7 1
     9    9    8 2
    10   10    9 1
    11   11    7 2
    12   12    9 1
    13   13   12 1
    14   14   13 2
    15   15   13 1
    16   16   15 1
    17   17   15 1
    18   18   17 2
    19   19   17 1
    20   20   19 1
    21   21   12 2
    22   22   21 1
    23   23   22 2
    24   24   23 1
    25   25   24 1
    26   26   24 1
    27   10   11 1
    28   19   21 1
@<TRIPOS>SUBSTRUCTURE
     1 RES1 1

@<TRIPOS>CRYSIN
   7.6760   10.5810   11.5220  73.2400  77.6300  79.9400   2 1

