# MOL2 file generated by ConQuest
# Please check atom types

@<TRIPOS>MOLECULE
ZARJEJ
    21    23     1
SMALL
NO_CHARGES
****
Generated from CSD

@<TRIPOS>ATOM
      1 O1        -2.1071    8.7482    9.0156 O.3       1 RES1    0.0000
      2 O2        -0.4337    3.8426    6.8372 O.3       1 RES1    0.0000
      3 N1        -1.2504    7.9725    8.2828 N.2       1 RES1    0.0000
      4 N2        -1.3280    4.4854    7.6493 N.2       1 RES1    0.0000
      5 N3         0.6295    4.6873    6.4963 N.2       1 RES1    0.0000
      6 N4         1.1939    6.8876    7.0800 N.pl3     1 RES1    0.0000
      7 H1         0.9345    7.6795    7.4109 H         1 RES1    0.0000
      8 H2         1.9028    6.8587    6.5802 H         1 RES1    0.0000
      9 C1        -1.5646    6.7331    8.5465 C.2       1 RES1    0.0000
     10 C2        -0.8576    5.6807    7.8261 C.2       1 RES1    0.0000
     11 C3         0.3859    5.8167    7.1089 C.2       1 RES1    0.0000
     12 O2A       -3.7805    3.8426   11.1941 O.3       1 RES1    0.0000
     13 N1A       -2.9639    7.9725    9.7484 N.2       1 RES1    0.0000
     14 N2A       -2.8863    4.4854   10.3819 N.2       1 RES1    0.0000
     15 N3A       -4.8437    4.6873   11.5350 N.2       1 RES1    0.0000
     16 N4A       -5.4081    6.8876   10.9512 N.pl3     1 RES1    0.0000
     17 H1A       -5.1487    7.6795   10.6204 H         1 RES1    0.0000
     18 H2A       -6.1170    6.8587   11.4511 H         1 RES1    0.0000
     19 C1A       -2.6497    6.7331    9.4848 C.2       1 RES1    0.0000
     20 C2A       -3.3567    5.6807   10.2052 C.2       1 RES1    0.0000
     21 C3A       -4.6002    5.8167   10.9224 C.2       1 RES1    0.0000
@<TRIPOS>BOND
     1    1    3 1
     2    2    4 1
     3    3    9 2
     4    4   10 2
     5    5    2 1
     6    6    7 1
     7    8    6 1
     8    9   10 1
     9   10   11 1
    10   11    5 2
    11   12   14 1
    12   13    1 1
    13   14   20 2
    14   15   12 1
    15   16   17 1
    16   18   16 1
    17   19    9 1
    18   20   19 1
    19   21   15 2
    20    6   11 1
    21   13   19 2
    22   16   21 1
    23   20   21 1
@<TRIPOS>SUBSTRUCTURE
     1 RES1 1

@<TRIPOS>CRYSIN
   7.1681   10.8147   12.3448  90.0000 103.1550  90.0000  15 1

