# MOL2 file generated by ConQuest
# Please check atom types

@<TRIPOS>MOLECULE
ZARKAH
    50    54     1
SMALL
USER_CHARGES
****
Generated from CSD

@<TRIPOS>ATOM
      1 O1         4.9578    3.7909    3.6164 O.2       1 RES1   -1.0000
      2 N1         5.5765    4.5319    2.7471 N.pl3     1 RES1    1.0000
      3 C1         5.0744    4.6149    1.3538 C.3       1 RES1    0.0000
      4 H1         4.0847    4.6327    1.3259 H         1 RES1    0.0000
      5 H2         5.4029    3.8603    0.8039 H         1 RES1    0.0000
      6 C2         5.6718    5.9492    0.8888 C.3       1 RES1    0.0000
      7 H3         5.0971    6.6627    1.2884 H         1 RES1    0.0000
      8 C3         7.0359    5.9965    1.6782 C.3       1 RES1    0.0000
      9 C4         7.5014    7.4182    1.9718 C.ar      1 RES1    0.0000
     10 C5         7.9726    8.2272    0.9346 C.ar      1 RES1    0.0000
     11 H4         7.9947    7.8802    0.0510 H         1 RES1    0.0000
     12 C6         8.4062    9.5187    1.1623 C.ar      1 RES1    0.0000
     13 H5         8.7167   10.0512    0.4395 H         1 RES1    0.0000
     14 C7         8.3861   10.0352    2.4511 C.ar      1 RES1    0.0000
     15 H6         8.6734   10.9253    2.6188 H         1 RES1    0.0000
     16 C8         7.9422    9.2342    3.4874 C.ar      1 RES1    0.0000
     17 H7         7.9453    9.5838    4.3707 H         1 RES1    0.0000
     18 C9         7.4875    7.9329    3.2797 C.ar      1 RES1    0.0000
     19 C10        6.9777    7.1266    4.4516 C.3       1 RES1    0.0000
     20 H8         6.0111    7.3040    4.5702 H         1 RES1    0.0000
     21 H9         7.4432    7.4209    5.2736 H         1 RES1    0.0000
     22 C11        7.1919    5.6156    4.2672 C.3       1 RES1    0.0000
     23 H10        8.1559    5.3944    4.2942 H         1 RES1    0.0000
     24 H11        6.7284    5.1090    4.9812 H         1 RES1    0.0000
     25 C12        6.6188    5.2865    2.9380 C.2       1 RES1    0.0000
     26 C13        5.7073    6.2266   -0.5985 C.ar      1 RES1    0.0000
     27 C14        6.0708    5.2651   -1.5413 C.ar      1 RES1    0.0000
     28 H12        6.2588    4.3758   -1.2644 H         1 RES1    0.0000
     29 C15        6.1594    5.6076   -2.8882 C.ar      1 RES1    0.0000
     30 H13        6.4200    4.9529   -3.5248 H         1 RES1    0.0000
     31 C16        5.8695    6.8929   -3.3041 C.ar      1 RES1    0.0000
     32 H14        5.9488    7.1248   -4.2222 H         1 RES1    0.0000
     33 C17        5.4627    7.8455   -2.3800 C.ar      1 RES1    0.0000
     34 H15        5.2371    8.7231   -2.6653 H         1 RES1    0.0000
     35 C18        5.3875    7.5083   -1.0438 C.ar      1 RES1    0.0000
     36 H16        5.1120    8.1639   -0.4140 H         1 RES1    0.0000
     37 C19        8.1528    5.1893    0.9467 C.3       1 RES1    0.0000
     38 H17        7.7975    4.2938    0.7200 H         1 RES1    0.0000
     39 H18        8.3686    5.6486    0.0960 H         1 RES1    0.0000
     40 C20        9.4304    5.0153    1.7373 C.ar      1 RES1    0.0000
     41 C21       10.4624    5.9483    1.6676 C.ar      1 RES1    0.0000
     42 H19       10.3605    6.7189    1.1219 H         1 RES1    0.0000
     43 C22       11.6386    5.7664    2.3863 C.ar      1 RES1    0.0000
     44 H20       12.3260    6.4201    2.3398 H         1 RES1    0.0000
     45 C23       11.8106    4.6407    3.1667 C.ar      1 RES1    0.0000
     46 H21       12.6216    4.5078    3.6418 H         1 RES1    0.0000
     47 C24       10.7925    3.7087    3.2507 C.ar      1 RES1    0.0000
     48 H22       10.9032    2.9354    3.7917 H         1 RES1    0.0000
     49 C25        9.6086    3.8986    2.5467 C.ar      1 RES1    0.0000
     50 H23        8.9124    3.2565    2.6203 H         1 RES1    0.0000
@<TRIPOS>BOND
     1    1    2 1
     2    2    3 1
     3    3    4 1
     4    5    3 1
     5    6    3 1
     6    7    6 1
     7    8    6 1
     8    9    8 1
     9   10    9 ar
    10   11   10 1
    11   12   10 ar
    12   13   12 1
    13   14   12 ar
    14   15   14 1
    15   16   14 ar
    16   17   16 1
    17   18    9 ar
    18   19   18 1
    19   20   19 1
    20   21   19 1
    21   22   19 1
    22   23   22 1
    23   24   22 1
    24   25    2 2
    25   26    6 1
    26   27   26 ar
    27   28   27 1
    28   29   27 ar
    29   30   29 1
    30   31   29 ar
    31   32   31 1
    32   33   31 ar
    33   34   33 1
    34   35   26 ar
    35   36   35 1
    36   37    8 1
    37   38   37 1
    38   39   37 1
    39   40   37 1
    40   41   40 ar
    41   42   41 1
    42   43   41 ar
    43   44   43 1
    44   45   43 ar
    45   46   45 1
    46   47   45 ar
    47   48   47 1
    48   49   40 ar
    49   50   49 1
    50    8   25 1
    51   16   18 ar
    52   22   25 1
    53   33   35 ar
    54   47   49 ar
@<TRIPOS>SUBSTRUCTURE
     1 RES1 1

@<TRIPOS>CRYSIN
  10.2992   10.2992   14.9990  90.0000  90.0000 120.0000 145 1

