# MOL2 file generated by ConQuest
# Please check atom types

@<TRIPOS>MOLECULE
ZARXUL
    57    62     1
SMALL
NO_CHARGES
****
Generated from CSD

@<TRIPOS>ATOM
      1 O1        11.0437   10.4482    4.8659 O.2       1 RES1    0.0000
      2 O2        12.9688    9.7162    4.2046 O.2       1 RES1    0.0000
      3 N1        10.2931    3.7961    2.1847 N.2       1 RES1    0.0000
      4 N2         9.4314    4.7078    2.8369 N.pl3     1 RES1    0.0000
      5 N3         7.6082    3.2839    2.6473 N.2       1 RES1    0.0000
      6 N4         8.2327    3.1320    1.3699 N.pl3     1 RES1    0.0000
      7 N5         6.2580    1.9965    0.6477 N.2       1 RES1    0.0000
      8 N6         5.7826    1.6469   -0.5800 N.2       1 RES1    0.0000
      9 N7         6.5938    1.9704   -1.5234 N.2       1 RES1    0.0000
     10 N8         7.6578    2.5904   -0.9186 N.pl3     1 RES1    0.0000
     11 N9        11.7705    9.5782    4.3964 N.pl3     1 RES1    0.0000
     12 C1         9.6352    3.0021    1.4264 C.2       1 RES1    0.0000
     13 C2         8.2499    4.1654    3.3334 C.2       1 RES1    0.0000
     14 C3         7.4179    2.5683    0.4108 C.2       1 RES1    0.0000
     15 C4        10.3220    1.9573    0.6500 C.ar      1 RES1    0.0000
     16 C5        11.5412    2.2497    0.0609 C.ar      1 RES1    0.0000
     17 C6        12.1469    1.3258   -0.7741 C.ar      1 RES1    0.0000
     18 C7        11.5384    0.1103   -0.9930 C.ar      1 RES1    0.0000
     19 C8        10.3581   -0.2124   -0.3769 C.ar      1 RES1    0.0000
     20 C9         9.7385    0.7058    0.4559 C.ar      1 RES1    0.0000
     21 C10        7.7649    4.5085    4.6853 C.ar      1 RES1    0.0000
     22 C11        6.4096    4.6359    4.9020 C.ar      1 RES1    0.0000
     23 C12        5.9401    4.9913    6.1749 C.ar      1 RES1    0.0000
     24 C13        6.8098    5.1775    7.1837 C.ar      1 RES1    0.0000
     25 C14        8.1516    5.0141    6.9986 C.ar      1 RES1    0.0000
     26 C15        8.6425    4.6882    5.7461 C.ar      1 RES1    0.0000
     27 C16       10.0280    5.9078    3.2815 C.ar      1 RES1    0.0000
     28 C17        9.2233    7.0082    3.5524 C.ar      1 RES1    0.0000
     29 C18        9.7928    8.2090    3.9428 C.ar      1 RES1    0.0000
     30 C19       11.1668    8.2883    4.0376 C.ar      1 RES1    0.0000
     31 C20       11.9719    7.2255    3.7758 C.ar      1 RES1    0.0000
     32 C21       11.4121    6.0058    3.4057 C.ar      1 RES1    0.0000
     33 C22        8.7407    3.0536   -1.7198 C.ar      1 RES1    0.0000
     34 C23        9.3589    4.2560   -1.4557 C.ar      1 RES1    0.0000
     35 C24       10.4368    4.6473   -2.2456 C.ar      1 RES1    0.0000
     36 C25       10.8343    3.8697   -3.3154 C.ar      1 RES1    0.0000
     37 C26       10.1979    2.7048   -3.5794 C.ar      1 RES1    0.0000
     38 C27        9.1540    2.2628   -2.7782 C.ar      1 RES1    0.0000
     39 H1        11.9666    3.0961    0.2257 H         1 RES1    0.0000
     40 H2        12.9898    1.5276   -1.1962 H         1 RES1    0.0000
     41 H3        11.9495   -0.5228   -1.5798 H         1 RES1    0.0000
     42 H4         9.9617   -1.0783   -0.5191 H         1 RES1    0.0000
     43 H5         8.9125    0.4820    0.9028 H         1 RES1    0.0000
     44 H6         5.7849    4.4848    4.1753 H         1 RES1    0.0000
     45 H7         5.0024    5.1056    6.3193 H         1 RES1    0.0000
     46 H8         6.4810    5.4324    8.0571 H         1 RES1    0.0000
     47 H9         8.7592    5.1220    7.7412 H         1 RES1    0.0000
     48 H10        9.5914    4.5910    5.6197 H         1 RES1    0.0000
     49 H11        8.2697    6.9355    3.4756 H         1 RES1    0.0000
     50 H12        9.2422    8.9696    4.1527 H         1 RES1    0.0000
     51 H13       12.9232    7.3113    3.8367 H         1 RES1    0.0000
     52 H14       11.9678    5.2445    3.2499 H         1 RES1    0.0000
     53 H15        9.0487    4.8197   -0.7448 H         1 RES1    0.0000
     54 H16       10.9050    5.4651   -2.0538 H         1 RES1    0.0000
     55 H17       11.5655    4.1580   -3.8819 H         1 RES1    0.0000
     56 H18       10.4799    2.1730   -4.3332 H         1 RES1    0.0000
     57 H19        8.7208    1.4214   -2.9565 H         1 RES1    0.0000
@<TRIPOS>BOND
     1    1   11 2
     2    2   11 2
     3    3    4 1
     4    4   13 1
     5    5    6 1
     6    6   12 1
     7    7    8 1
     8    8    9 2
     9    9   10 1
    10   10   14 1
    11   11   30 1
    12   12    3 2
    13   13    5 2
    14   14    6 1
    15   15   12 1
    16   16   15 ar
    17   17   16 ar
    18   18   17 ar
    19   19   18 ar
    20   20   15 ar
    21   21   13 1
    22   22   21 ar
    23   23   22 ar
    24   24   23 ar
    25   25   24 ar
    26   26   21 ar
    27   27    4 1
    28   28   27 ar
    29   29   28 ar
    30   30   29 ar
    31   31   30 ar
    32   32   27 ar
    33   33   10 1
    34   34   33 ar
    35   35   34 ar
    36   36   35 ar
    37   37   36 ar
    38   38   33 ar
    39   39   16 1
    40   40   17 1
    41   41   18 1
    42   42   19 1
    43   43   20 1
    44   44   22 1
    45   45   23 1
    46   46   24 1
    47   47   25 1
    48   48   26 1
    49   49   28 1
    50   50   29 1
    51   51   31 1
    52   52   32 1
    53   53   34 1
    54   54   35 1
    55   55   36 1
    56   56   37 1
    57   57   38 1
    58    7   14 2
    59   19   20 ar
    60   25   26 ar
    61   31   32 ar
    62   37   38 ar
@<TRIPOS>SUBSTRUCTURE
     1 RES1 1

@<TRIPOS>CRYSIN
  12.9890    8.1690   22.6780  90.0000  95.6200  90.0000  14 1

