# MOL2 file generated by ConQuest
# Please check atom types

@<TRIPOS>MOLECULE
ZATMUC
    36    38     1
SMALL
NO_CHARGES
****
Generated from CSD

@<TRIPOS>ATOM
      1 O1         7.7140    5.4993   14.9588 O.3       1 RES1    0.0000
      2 O2         9.6070    2.2134   14.1325 O.2       1 RES1    0.0000
      3 O3         8.9078    0.4977   12.9827 O.2       1 RES1    0.0000
      4 O4         5.0495    1.7213   13.7040 O.3       1 RES1    0.0000
      5 O5         6.3588    0.4356   12.5258 O.2       1 RES1    0.0000
      6 O6         6.5083    4.0598   17.4552 O.2       1 RES1    0.0000
      7 O7         4.9157    5.0090   16.3382 O.2       1 RES1    0.0000
      8 C1         4.9354    4.1377   13.3718 C.ar      1 RES1    0.0000
      9 N1         8.7045    1.5183   13.6166 N.pl3     1 RES1    0.0000
     10 N2         6.3640    1.3700   13.3127 N.pl3     1 RES1    0.0000
     11 N3         5.7501    4.1349   16.4956 N.pl3     1 RES1    0.0000
     12 C2         6.1344    4.8319   13.2078 C.ar      1 RES1    0.0000
     13 C3         7.3847    4.4871   14.0057 C.3       1 RES1    0.0000
     14 C4         7.2364    3.1691   14.7839 C.3       1 RES1    0.0000
     15 C5         5.8865    3.0402   15.4638 C.3       1 RES1    0.0000
     16 C6         4.8173    3.0198   14.3904 C.3       1 RES1    0.0000
     17 C7         3.8334    4.4556   12.5870 C.ar      1 RES1    0.0000
     18 C8         3.9095    5.4817   11.6711 C.ar      1 RES1    0.0000
     19 C9         5.0862    6.1889   11.5224 C.ar      1 RES1    0.0000
     20 C10        6.2118    5.8784   12.2678 C.ar      1 RES1    0.0000
     21 C11        7.3794    2.0104   13.8636 C.3       1 RES1    0.0000
     22 C12        3.4175    2.7965   14.9501 C.3       1 RES1    0.0000
     23 C13        7.4818    6.6635   12.0558 C.3       1 RES1    0.0000
     24 H1         7.4109    6.2186   14.7096 H         1 RES1    0.0000
     25 H2         8.1338    4.3954   13.3805 H         1 RES1    0.0000
     26 H3         7.9409    3.1209   15.4638 H         1 RES1    0.0000
     27 H4         5.8629    2.1801   15.9338 H         1 RES1    0.0000
     28 H5         3.0436    3.9755   12.6810 H         1 RES1    0.0000
     29 H6         3.1682    5.6977   11.1530 H         1 RES1    0.0000
     30 H7         5.1243    6.8896   10.9125 H         1 RES1    0.0000
     31 H8         3.0646    3.6297   15.2714 H         1 RES1    0.0000
     32 H9         3.4582    2.1671   15.6736 H         1 RES1    0.0000
     33 H10        2.8468    2.4517   14.2593 H         1 RES1    0.0000
     34 H11        8.2099    6.0564   11.9050 H         1 RES1    0.0000
     35 H12        7.6641    7.1946   12.8362 H         1 RES1    0.0000
     36 H13        7.3807    7.2382   11.2951 H         1 RES1    0.0000
@<TRIPOS>BOND
     1    1   13 1
     2    2    9 2
     3    3    9 2
     4    4   10 1
     5    5   10 2
     6    6   11 2
     7    7   11 2
     8    8   12 ar
     9    9   21 1
    10   10   21 1
    11   11   15 1
    12   12   13 1
    13   13   14 1
    14   14   15 1
    15   15   16 1
    16   16    4 1
    17   17    8 ar
    18   18   17 ar
    19   19   18 ar
    20   20   12 ar
    21   21   14 1
    22   22   16 1
    23   23   20 1
    24   24    1 1
    25   25   13 1
    26   26   14 1
    27   27   15 1
    28   28   17 1
    29   29   18 1
    30   30   19 1
    31   31   22 1
    32   32   22 1
    33   33   22 1
    34   34   23 1
    35   35   23 1
    36   36   23 1
    37    8   16 1
    38   19   20 ar
@<TRIPOS>SUBSTRUCTURE
     1 RES1 1

@<TRIPOS>CRYSIN
  13.1190    9.2690   21.8600  90.0000  90.0000  90.0000  61 1

