# MOL2 file generated by ConQuest
# Please check atom types

@<TRIPOS>MOLECULE
ZATNOX
    38    38     1
SMALL
USER_CHARGES
****
Generated from CSD

@<TRIPOS>ATOM
      1 O1         0.6612   20.1962    0.5933 O.2       1 RES1   -1.0000
      2 O2         3.0666   17.6756    2.9183 O.2       1 RES1    0.0000
      3 O3        -1.9794   21.2655    3.6815 O.2       1 RES1    0.0000
      4 N1         0.1040   19.2784    1.4932 N.4       1 RES1    1.0000
      5 N2         2.9111   19.7102    1.8879 N.am      1 RES1    0.0000
      6 N3        -1.3617   21.7402    1.5555 N.am      1 RES1    0.0000
      7 C1        -1.0609   18.5821    0.8273 C.3       1 RES1    0.0000
      8 C2        -0.4502   17.4111    0.0572 C.3       1 RES1    0.0000
      9 C3         1.0155   17.3705    0.4485 C.3       1 RES1    0.0000
     10 C4         1.0750   18.1300    1.7546 C.3       1 RES1    0.0000
     11 C5         2.4599   18.5121    2.2461 C.2       1 RES1    0.0000
     12 C6        -0.2826   19.9340    2.7781 C.3       1 RES1    0.0000
     13 C7        -1.2971   21.0575    2.6831 C.2       1 RES1    0.0000
     14 C8         4.1628   20.3386    2.3462 C.3       1 RES1    0.0000
     15 C9         4.1749   20.4087    3.8617 C.3       1 RES1    0.0000
     16 C10        4.1547   21.7425    1.7735 C.3       1 RES1    0.0000
     17 C11        5.3629   19.5700    1.8250 C.3       1 RES1    0.0000
     18 H1        -1.5020   19.2015    0.2185 H         1 RES1    0.0000
     19 H2        -1.7029   18.3063    1.4686 H         1 RES1    0.0000
     20 H3        -0.5653   17.5061   -0.8942 H         1 RES1    0.0000
     21 H4        -0.9044   16.5770    0.3009 H         1 RES1    0.0000
     22 H5         1.5716   17.7683   -0.2208 H         1 RES1    0.0000
     23 H6         1.3314   16.4481    0.5607 H         1 RES1    0.0000
     24 H7         0.6824   17.5829    2.4514 H         1 RES1    0.0000
     25 H8         0.5178   20.2572    3.1992 H         1 RES1    0.0000
     26 H9        -0.6440   19.2445    3.3645 H         1 RES1    0.0000
     27 H10        4.9925   20.7885    4.1895 H         1 RES1    0.0000
     28 H11        4.1052   19.5180    4.2421 H         1 RES1    0.0000
     29 H12        3.4471   20.9219    4.1935 H         1 RES1    0.0000
     30 H13        4.9400   22.2217    2.0041 H         1 RES1    0.0000
     31 H14        3.3896   22.2285    2.0790 H         1 RES1    0.0000
     32 H15        4.1022   21.7176    0.7998 H         1 RES1    0.0000
     33 H16        5.3478   18.6884    2.1008 H         1 RES1    0.0000
     34 H17        6.1695   20.0040    2.1008 H         1 RES1    0.0000
     35 H18        5.3559   19.5994    0.8438 H         1 RES1    0.0000
     36 H19        2.2368   20.2120    1.2054 H         1 RES1    0.0000
     37 H20       -0.5784   21.5910    0.7872 H         1 RES1    0.0000
     38 H21       -2.0400   22.6738    1.3513 H         1 RES1    0.0000
@<TRIPOS>BOND
     1    1    4 1
     2    2   11 2
     3    3   13 2
     4    4    7 1
     5    5   11 1
     6    6   13 1
     7    7    8 1
     8    8    9 1
     9    9   10 1
    10   10    4 1
    11   11   10 1
    12   12    4 1
    13   13   12 1
    14   14    5 1
    15   15   14 1
    16   16   14 1
    17   17   14 1
    18   18    7 1
    19   19    7 1
    20   20    8 1
    21   21    8 1
    22   22    9 1
    23   23    9 1
    24   24   10 1
    25   25   12 1
    26   26   12 1
    27   27   15 1
    28   28   15 1
    29   29   15 1
    30   30   16 1
    31   31   16 1
    32   32   16 1
    33   33   17 1
    34   34   17 1
    35   35   17 1
    36   36    5 1
    37   37    6 1
    38   38    6 1
@<TRIPOS>SUBSTRUCTURE
     1 RES1 1

@<TRIPOS>CRYSIN
  10.0940   22.6060    5.7210  90.0000  90.0000  90.0000  19 1

