# MOL2 file generated by ConQuest
# Please check atom types

@<TRIPOS>MOLECULE
ZAVJIS
    43    46     1
SMALL
NO_CHARGES
****
Generated from CSD

@<TRIPOS>ATOM
      1 N1         1.1836   -0.3845    3.7737 N.pl3     1 RES1    0.0000
      2 N2         2.2026   -0.6200    4.6575 N.2       1 RES1    0.0000
      3 C1         2.2307    0.4622    5.4318 C.2       1 RES1    0.0000
      4 C2         1.2471    1.3962    5.0601 C.2       1 RES1    0.0000
      5 H1         1.0753    2.2419    5.4584 H         1 RES1    0.0000
      6 C3         0.5876    0.8246    3.9982 C.2       1 RES1    0.0000
      7 C4         0.7423   -1.4693    2.9367 C.ar      1 RES1    0.0000
      8 C5        -0.4772   -2.0755    3.1998 C.ar      1 RES1    0.0000
      9 H2        -1.0577   -1.7243    3.8639 H         1 RES1    0.0000
     10 C6        -0.8373   -3.2077    2.4733 C.ar      1 RES1    0.0000
     11 H3        -1.6663   -3.6365    2.6486 H         1 RES1    0.0000
     12 C7         0.0022   -3.7126    1.4975 C.ar      1 RES1    0.0000
     13 H4        -0.2414   -4.4961    1.0182 H         1 RES1    0.0000
     14 C8         1.1996   -3.0719    1.2210 C.ar      1 RES1    0.0000
     15 H5         1.7668   -3.4078    0.5375 H         1 RES1    0.0000
     16 C9         1.5779   -1.9398    1.9376 C.ar      1 RES1    0.0000
     17 H6         2.3964   -1.4977    1.7438 H         1 RES1    0.0000
     18 C10        3.2100    0.5515    6.5363 C.ar      1 RES1    0.0000
     19 C11        4.2212   -0.3939    6.6886 C.ar      1 RES1    0.0000
     20 H7         4.2792   -1.1199    6.0795 H         1 RES1    0.0000
     21 C12        5.1447   -0.2920    7.7182 C.ar      1 RES1    0.0000
     22 H8         5.8367   -0.9382    7.7994 H         1 RES1    0.0000
     23 C13        5.0596    0.7534    8.6289 C.ar      1 RES1    0.0000
     24 H9         5.6898    0.8218    9.3372 H         1 RES1    0.0000
     25 C14        4.0555    1.6916    8.5002 C.ar      1 RES1    0.0000
     26 H10        3.9931    2.4073    9.1222 H         1 RES1    0.0000
     27 C15        3.1321    1.5936    7.4599 C.ar      1 RES1    0.0000
     28 H11        2.4434    2.2429    7.3784 H         1 RES1    0.0000
     29 N3        -0.4242    1.1979    3.1254 N.pl3     1 RES1    0.0000
     30 H12       -0.5026    0.6973    2.3948 H         1 RES1    0.0000
     31 C16       -1.3393    2.2164    3.2285 C.ar      1 RES1    0.0000
     32 C17       -1.3620    3.1045    4.3261 C.ar      1 RES1    0.0000
     33 H13       -0.7158    3.0076    5.0165 H         1 RES1    0.0000
     34 C18       -2.2998    4.1069    4.4184 C.ar      1 RES1    0.0000
     35 H14       -2.2965    4.6758    5.1807 H         1 RES1    0.0000
     36 C19       -3.2530    4.3084    3.4240 C.ar      1 RES1    0.0000
     37 H15       -3.8816    5.0178    3.4906 H         1 RES1    0.0000
     38 C20       -3.2663    3.4614    2.3437 C.ar      1 RES1    0.0000
     39 H16       -3.9130    3.5834    1.6572 H         1 RES1    0.0000
     40 C21       -2.3390    2.4229    2.2428 C.ar      1 RES1    0.0000
     41 N4        -2.4760    1.5535    1.0941 N.pl3     1 RES1    0.0000
     42 O1        -1.6679    0.6156    0.9316 O.2       1 RES1    0.0000
     43 O2        -3.3878    1.7451    0.2977 O.2       1 RES1    0.0000
@<TRIPOS>BOND
     1    1    2 1
     2    2    3 2
     3    3    4 1
     4    4    5 1
     5    6    1 1
     6    7    1 1
     7    8    7 ar
     8    9    8 1
     9   10    8 ar
    10   11   10 1
    11   12   10 ar
    12   13   12 1
    13   14   12 ar
    14   15   14 1
    15   16    7 ar
    16   17   16 1
    17   18    3 1
    18   19   18 ar
    19   20   19 1
    20   21   19 ar
    21   22   21 1
    22   23   21 ar
    23   24   23 1
    24   25   23 ar
    25   26   25 1
    26   27   18 ar
    27   28   27 1
    28   29    6 1
    29   30   29 1
    30   31   29 1
    31   32   31 ar
    32   33   32 1
    33   34   32 ar
    34   35   34 1
    35   36   34 ar
    36   37   36 1
    37   38   36 ar
    38   39   38 1
    39   40   31 ar
    40   41   40 1
    41   42   41 2
    42   43   41 2
    43    4    6 2
    44   14   16 ar
    45   25   27 ar
    46   38   40 ar
@<TRIPOS>SUBSTRUCTURE
     1 RES1 1

@<TRIPOS>CRYSIN
   5.5230   10.2091   29.8599  90.0000  90.0000  90.0000  19 1

