# MOL2 file generated by ConQuest
# Please check atom types

@<TRIPOS>MOLECULE
ZAVJOY
    78    76     3
SMALL
NO_CHARGES
****
Generated from CSD

@<TRIPOS>ATOM
      1 N1         8.1484    2.2694   12.7656 N.3       1 RES1    0.0000
      2 N2         7.0897    2.7701   12.0816 N.2       1 RES1    0.0000
      3 C1         6.2558    1.7300   11.9323 C.2       1 RES1    0.0000
      4 C2         6.7966    0.5589   12.4953 C.2       1 RES1    0.0000
      5 H1         6.4119   -0.3099   12.5061 H         1 RES1    0.0000
      6 C3         7.9990    0.9465   13.0242 C.2       1 RES1    0.0000
      7 C4         9.2546    3.1355   13.1469 C.3       1 RES1    0.0000
      8 H2         9.0853    4.0438   12.8203 H         1 RES1    0.0000
      9 H3        10.0859    2.7968   12.7522 H         1 RES1    0.0000
     10 H4         9.3372    3.1485   14.1228 H         1 RES1    0.0000
     11 C5         4.9457    1.9091   11.2776 C.ar      1 RES1    0.0000
     12 C6         4.5777    3.1395   10.7335 C.ar      1 RES1    0.0000
     13 H5         5.1674    3.8810   10.8060 H         1 RES1    0.0000
     14 C7         3.3605    3.2920   10.0884 C.ar      1 RES1    0.0000
     15 H6         3.1298    4.1323    9.7099 H         1 RES1    0.0000
     16 C8         2.4774    2.2267    9.9920 C.ar      1 RES1    0.0000
     17 H7         1.6458    2.3317    9.5452 H         1 RES1    0.0000
     18 C9         2.8214    1.0061   10.5548 C.ar      1 RES1    0.0000
     19 H8         2.2169    0.2753   10.5050 H         1 RES1    0.0000
     20 C10        4.0454    0.8483   11.1902 C.ar      1 RES1    0.0000
     21 H9         4.2722    0.0077   11.5709 H         1 RES1    0.0000
     22 N3         8.9793    0.2499   13.7474 N.pl3     1 RES1    0.0000
     23 H10        9.8252    0.2563   13.4829 H         1 RES1    0.0000
     24 C11        8.7890   -0.1693   15.0446 C.ar      1 RES1    0.0000
     25 C12        7.4920   -0.2209   15.5997 C.ar      1 RES1    0.0000
     26 H11        6.7469    0.0122   15.0580 H         1 RES1    0.0000
     27 C13        7.2799   -0.6003   16.9031 C.ar      1 RES1    0.0000
     28 H12        6.3923   -0.6262   17.2408 H         1 RES1    0.0000
     29 C14        8.3394   -0.9481   17.7440 C.ar      1 RES1    0.0000
     30 H13        8.1826   -1.1889   18.6493 H         1 RES1    0.0000
     31 C15        9.6160   -0.9334   17.2293 C.ar      1 RES1    0.0000
     32 H14       10.3500   -1.1712   17.7842 H         1 RES1    0.0000
     33 C16        9.8408   -0.5725   15.9005 C.ar      1 RES1    0.0000
     34 N4        11.2174   -0.6096   15.4497 N.pl3     1 RES1    0.0000
     35 O1        11.4891   -0.3093   14.2750 O.2       1 RES1    0.0000
     36 O2        12.0914   -0.9498   16.2411 O.2       1 RES1    0.0000
     37 H15        9.9206    2.6156   13.6439 Du        3 SUP3    0.0000
     38 H16        8.9200    3.8627   13.7120 Du        3 SUP3    0.0000
     39 H17        9.6679    3.5110   12.3414 Du        3 SUP3    0.0000
     40 N5        12.0740    3.5353   15.5595 N.3       2 RES2    0.0000
     41 N6        11.0038    3.1104   16.2723 N.2       2 RES2    0.0000
     42 C17       10.2033    4.1845   16.3677 C.2       2 RES2    0.0000
     43 C18       10.7752    5.3006   15.7369 C.2       2 RES2    0.0000
     44 H18       10.4150    6.1775   15.6752 H         2 RES2    0.0000
     45 C19       11.9694    4.8483   15.2299 C.2       2 RES2    0.0000
     46 C20       13.1444    2.6037   15.2326 C.3       2 RES2    0.0000
     47 H19       12.9375    1.7231   15.6108 H         2 RES2    0.0000
     48 H20       13.9883    2.9302   15.6089 H         2 RES2    0.0000
     49 H21       13.2274    2.5305   14.2591 H         2 RES2    0.0000
     50 C21        8.8932    4.0822   17.0369 C.ar      2 RES2    0.0000
     51 C22        8.5062    2.8962   17.6626 C.ar      2 RES2    0.0000
     52 H22        9.0862    2.1440   17.6497 H         2 RES2    0.0000
     53 C23        7.2762    2.8105   18.3034 C.ar      2 RES2    0.0000
     54 H23        7.0291    2.0069   18.7459 H         2 RES2    0.0000
     55 C24        6.4085    3.8893   18.3006 C.ar      2 RES2    0.0000
     56 H24        5.5622    3.8205   18.7269 H         2 RES2    0.0000
     57 C25        6.7776    5.0705   17.6755 C.ar      2 RES2    0.0000
     58 H25        6.1836    5.8120   17.6725 H         2 RES2    0.0000
     59 C26        8.0179    5.1695   17.0538 C.ar      2 RES2    0.0000
     60 H26        8.2719    5.9844   16.6369 H         2 RES2    0.0000
     61 N7        12.9877    5.4814   14.5039 N.pl3     2 RES2    0.0000
     62 H27       13.8271    5.3905   14.7797 H         2 RES2    0.0000
     63 C27       12.8303    5.9355   13.2124 C.ar      2 RES2    0.0000
     64 C28       11.5511    6.0945   12.6469 C.ar      2 RES2    0.0000
     65 H28       10.7853    5.9008   13.1744 H         2 RES2    0.0000
     66 C29       11.3812    6.5231   11.3526 C.ar      2 RES2    0.0000
     67 H29       10.5015    6.6243   11.0067 H         2 RES2    0.0000
     68 C30       12.4764    6.8126   10.5334 C.ar      2 RES2    0.0000
     69 H30       12.3504    7.0867    9.6323 H         2 RES2    0.0000
     70 C31       13.7376    6.6919   11.0599 C.ar      2 RES2    0.0000
     71 H31       14.4933    6.8921   10.5202 H         2 RES2    0.0000
     72 C32       13.9222    6.2783   12.3808 C.ar      2 RES2    0.0000
     73 N8        15.2886    6.2066   12.8421 N.pl3     2 RES2    0.0000
     74 O3        15.5285    5.8863   14.0117 O.2       2 RES2    0.0000
     75 O4        16.1950    6.4844   12.0593 O.2       2 RES2    0.0000
     76 H32       13.8314    3.0658   14.7078 Du        3 SUP3    0.0000
     77 H33       12.7807    1.8586   14.7097 Du        3 SUP3    0.0000
     78 H34       13.5418    2.2593   16.0595 Du        3 SUP3    0.0000
@<TRIPOS>BOND
     1    1    2 1
     2    2    3 2
     3    3    4 1
     4    4    5 1
     5    6    1 1
     6    7    1 1
     7    8    7 1
     8    9    7 1
     9   10    7 1
    10   11    3 1
    11   12   11 ar
    12   13   12 1
    13   14   12 ar
    14   15   14 1
    15   16   14 ar
    16   17   16 1
    17   18   16 ar
    18   19   18 1
    19   20   11 ar
    20   21   20 1
    21   22    6 1
    22   23   22 1
    23   24   22 1
    24   25   24 ar
    25   26   25 1
    26   27   25 ar
    27   28   27 1
    28   29   27 ar
    29   30   29 1
    30   31   29 ar
    31   32   31 1
    32   33   24 ar
    33   34   33 1
    34   35   34 2
    35   36   34 2
    36   40   41 1
    37   41   42 2
    38   42   43 1
    39   43   44 1
    40   45   40 1
    41   46   40 1
    42   47   46 1
    43   48   46 1
    44   49   46 1
    45   50   42 1
    46   51   50 ar
    47   52   51 1
    48   53   51 ar
    49   54   53 1
    50   55   53 ar
    51   56   55 1
    52   57   55 ar
    53   58   57 1
    54   59   50 ar
    55   60   59 1
    56   61   45 1
    57   62   61 1
    58   63   61 1
    59   64   63 ar
    60   65   64 1
    61   66   64 ar
    62   67   66 1
    63   68   66 ar
    64   69   68 1
    65   70   68 ar
    66   71   70 1
    67   72   63 ar
    68   73   72 1
    69   74   73 2
    70   75   73 2
    71    4    6 2
    72   18   20 ar
    73   31   33 ar
    74   43   45 2
    75   57   59 ar
    76   70   72 ar
@<TRIPOS>SUBSTRUCTURE
     1 RES1 1
     2 RES2 40
     3 SUP3 37

@<TRIPOS>CRYSIN
   7.9105    9.6662   19.0961  82.9460  85.5250  73.9010   2 1

