# MOL2 file generated by ConQuest
# Please check atom types

@<TRIPOS>MOLECULE
ZAVMIV
    32    32     1
SMALL
NO_CHARGES
****
Generated from CSD

@<TRIPOS>ATOM
      1 C1         2.4596    3.6975    3.4033 C.2       1 RES1    0.0000
      2 O1         2.7304    4.8851    3.3026 O.2       1 RES1    0.0000
      3 N1         2.3649    2.8463    2.3639 N.am      1 RES1    0.0000
      4 H1         2.4094    2.0520    2.4985 H         1 RES1    0.0000
      5 C2         2.6160    3.3169    0.9812 C.3       1 RES1    0.0000
      6 H2         2.2976    4.2621    0.9060 H         1 RES1    0.0000
      7 C3         4.0907    3.2763    0.6331 C.3       1 RES1    0.0000
      8 H3         4.2215    3.6289   -0.2729 H         1 RES1    0.0000
      9 H4         4.4116    2.3517    0.6731 H         1 RES1    0.0000
     10 H5         4.5924    3.8248    1.2723 H         1 RES1    0.0000
     11 C4         1.7754    2.4487    0.0619 C.2       1 RES1    0.0000
     12 O2         1.1600    1.4824    0.3905 O.2       1 RES1    0.0000
     13 O3         1.8464    2.9276   -1.1813 O.3       1 RES1    0.0000
     14 C5         1.0767    2.1744   -2.1734 C.3       1 RES1    0.0000
     15 H6         1.1810    2.5946   -3.0540 H         1 RES1    0.0000
     16 H7         0.1295    2.1764   -1.9212 H         1 RES1    0.0000
     17 H8         1.4039    1.2527   -2.2110 H         1 RES1    0.0000
     18 C6         2.1931    3.0922    4.7665 C.ar      1 RES1    0.0000
     19 C7         1.2788    2.0613    4.9497 C.ar      1 RES1    0.0000
     20 H9         0.8339    1.6729    4.2062 H         1 RES1    0.0000
     21 C8         1.0262    1.6078    6.2426 C.ar      1 RES1    0.0000
     22 C9         1.6357    2.1382    7.3644 C.ar      1 RES1    0.0000
     23 H10        1.4628    1.8061    8.2377 H         1 RES1    0.0000
     24 C10        2.5094    3.1803    7.1352 C.ar      1 RES1    0.0000
     25 C11        2.8073    3.6700    5.8763 C.ar      1 RES1    0.0000
     26 H11        3.4205    4.3875    5.7695 H         1 RES1    0.0000
     27 N2         0.0736    0.4863    6.4366 N.pl3     1 RES1    0.0000
     28 O4        -0.4176   -0.0020    5.4360 O.2       1 RES1    0.0000
     29 O5        -0.1374    0.1210    7.5937 O.2       1 RES1    0.0000
     30 N3         3.1265    3.8365    8.3105 N.pl3     1 RES1    0.0000
     31 O6         2.9350    3.3419    9.4032 O.2       1 RES1    0.0000
     32 O7         3.7722    4.8650    8.1140 O.2       1 RES1    0.0000
@<TRIPOS>BOND
     1    1    2 2
     2    3    1 1
     3    4    3 1
     4    5    3 1
     5    6    5 1
     6    7    5 1
     7    8    7 1
     8    9    7 1
     9   10    7 1
    10   11    5 1
    11   12   11 2
    12   13   11 1
    13   14   13 1
    14   15   14 1
    15   16   14 1
    16   17   14 1
    17   18    1 1
    18   19   18 ar
    19   20   19 1
    20   21   19 ar
    21   22   21 ar
    22   23   22 1
    23   24   22 ar
    24   25   18 ar
    25   26   25 1
    26   27   21 1
    27   28   27 2
    28   29   27 2
    29   30   24 1
    30   31   30 2
    31   32   30 2
    32   24   25 ar
@<TRIPOS>SUBSTRUCTURE
     1 RES1 1

@<TRIPOS>CRYSIN
  11.3000    4.8973   12.3640  90.0000 101.2000  90.0000   4 1

