# MOL2 file generated by ConQuest
# Please check atom types

@<TRIPOS>MOLECULE
ZAXJOZ
    48    50     1
SMALL
NO_CHARGES
****
Generated from CSD

@<TRIPOS>ATOM
      1 O1         5.6563    6.8506   -1.8273 O.2       1 RES1    0.0000
      2 O2         6.9180    8.4033   -1.0698 O.2       1 RES1    0.0000
      3 O3         6.6585    3.1721    3.9129 O.2       1 RES1    0.0000
      4 O4         7.8996    4.8837    4.6709 O.3       1 RES1    0.0000
      5 N1         6.3610    7.3341   -0.9636 N.pl3     1 RES1    0.0000
      6 C1         6.5611    6.5466    0.2678 C.ar      1 RES1    0.0000
      7 C2         5.9543    5.3323    0.3805 C.ar      1 RES1    0.0000
      8 H1         5.4269    4.9975   -0.3093 H         1 RES1    0.0000
      9 C3         6.1408    4.6140    1.5378 C.ar      1 RES1    0.0000
     10 H2         5.7311    3.7850    1.6368 H         1 RES1    0.0000
     11 C4         6.9318    5.1143    2.5584 C.ar      1 RES1    0.0000
     12 C5         7.5362    6.3497    2.4167 C.ar      1 RES1    0.0000
     13 H3         8.0651    6.6917    3.1020 H         1 RES1    0.0000
     14 C6         7.3532    7.0734    1.2574 C.ar      1 RES1    0.0000
     15 H4         7.7586    7.9030    1.1484 H         1 RES1    0.0000
     16 C7         7.1195    4.2697    3.7816 C.2       1 RES1    0.0000
     17 C8         8.2600    4.1794    5.8987 C.3       1 RES1    0.0000
     18 H5         7.8194    3.2691    5.9099 H         1 RES1    0.0000
     19 C9         9.7625    3.9614    5.8280 C.3       1 RES1    0.0000
     20 H6        10.2095    4.8211    5.7722 H         1 RES1    0.0000
     21 H7        10.0613    3.5201    6.6377 H         1 RES1    0.0000
     22 C10       10.1405    3.1300    4.6425 C.2       1 RES1    0.0000
     23 H8         9.9319    3.4732    3.8035 H         1 RES1    0.0000
     24 C11       10.7256    1.9855    4.6749 C.2       1 RES1    0.0000
     25 H9        10.9534    1.6026    5.4912 H         1 RES1    0.0000
     26 H10       10.9216    1.5406    3.8827 H         1 RES1    0.0000
     27 C12        7.6945    5.0204    7.0690 C.3       1 RES1    0.0000
     28 C13        8.1495    4.3901    8.4162 C.3       1 RES1    0.0000
     29 H11        7.4302    4.4063    9.0684 H         1 RES1    0.0000
     30 H12        8.4415    3.4738    8.2896 H         1 RES1    0.0000
     31 C14        9.2831    5.2564    8.8497 C.2       1 RES1    0.0000
     32 H13        9.8583    5.0439    9.5493 H         1 RES1    0.0000
     33 C15        9.3768    6.3449    8.1384 C.2       1 RES1    0.0000
     34 H14       10.0316    6.9927    8.2670 H         1 RES1    0.0000
     35 C16        8.3206    6.4340    7.0984 C.3       1 RES1    0.0000
     36 H15        8.7016    6.6610    6.2361 H         1 RES1    0.0000
     37 H16        7.6583    7.1011    7.3355 H         1 RES1    0.0000
     38 C17        6.1780    5.0108    6.9017 C.ar      1 RES1    0.0000
     39 C18        5.4445    3.9096    7.3219 C.ar      1 RES1    0.0000
     40 H17        5.8857    3.2047    7.7371 H         1 RES1    0.0000
     41 C19        4.0796    3.8320    7.1390 C.ar      1 RES1    0.0000
     42 H18        3.6183    3.0788    7.4297 H         1 RES1    0.0000
     43 C20        3.4070    4.8434    6.5402 C.ar      1 RES1    0.0000
     44 H19        2.4841    4.7940    6.4322 H         1 RES1    0.0000
     45 C21        4.0992    5.9415    6.0956 C.ar      1 RES1    0.0000
     46 H20        3.6436    6.6327    5.6723 H         1 RES1    0.0000
     47 C22        5.4779    6.0300    6.2734 C.ar      1 RES1    0.0000
     48 H21        5.9346    6.7808    5.9664 H         1 RES1    0.0000
@<TRIPOS>BOND
     1    1    5 2
     2    2    5 2
     3    3   16 2
     4    4   16 1
     5    5    6 1
     6    6    7 ar
     7    7    8 1
     8    9    7 ar
     9   10    9 1
    10   11    9 ar
    11   12   11 ar
    12   13   12 1
    13   14    6 ar
    14   15   14 1
    15   16   11 1
    16   17    4 1
    17   18   17 1
    18   19   17 1
    19   20   19 1
    20   21   19 1
    21   22   19 1
    22   23   22 1
    23   24   22 2
    24   25   24 1
    25   26   24 1
    26   27   17 1
    27   28   27 1
    28   29   28 1
    29   30   28 1
    30   31   28 1
    31   32   31 1
    32   33   31 2
    33   34   33 1
    34   35   27 1
    35   36   35 1
    36   37   35 1
    37   38   27 1
    38   39   38 ar
    39   40   39 1
    40   41   39 ar
    41   42   41 1
    42   43   41 ar
    43   44   43 1
    44   45   43 ar
    45   46   45 1
    46   47   38 ar
    47   48   47 1
    48   12   14 ar
    49   33   35 1
    50   45   47 ar
@<TRIPOS>SUBSTRUCTURE
     1 RES1 1

@<TRIPOS>CRYSIN
  16.7590    6.0204   19.0320  90.0000  97.7710  90.0000 231 1

