# MOL2 file generated by ConQuest
# Please check atom types

@<TRIPOS>MOLECULE
ZAXPOG
    50    51     1
SMALL
NO_CHARGES
****
Generated from CSD

@<TRIPOS>ATOM
      1 O1         4.7684    2.1395    0.3640 O.3       1 RES1    0.0000
      2 O2         7.0934    4.0350    0.2688 O.3       1 RES1    0.0000
      3 O3         6.0983    6.8372   -0.2426 O.3       1 RES1    0.0000
      4 O4         3.3936    6.4198    0.6061 O.3       1 RES1    0.0000
      5 O5         1.4865    4.2615    2.8235 O.3       1 RES1    0.0000
      6 O6         2.8633    1.8258    2.0643 O.3       1 RES1    0.0000
      7 O7         0.8570   -4.4414    1.4022 O.3       1 RES1    0.0000
      8 N1         1.2873   -3.0948    1.4834 N.2       1 RES1    0.0000
      9 C1         3.1277    0.7312    1.2921 C.ar      1 RES1    0.0000
     10 C2         2.4704   -0.4767    1.3747 C.ar      1 RES1    0.0000
     11 C3         2.8370   -1.5398    0.5389 C.ar      1 RES1    0.0000
     12 C4         3.8674   -1.3660   -0.3728 C.ar      1 RES1    0.0000
     13 C5         4.5422   -0.1508   -0.4526 C.ar      1 RES1    0.0000
     14 C6         4.1861    0.8965    0.3710 C.ar      1 RES1    0.0000
     15 C7         5.6675    2.3915   -0.7261 C.3       1 RES1    0.0000
     16 C8         6.0720    3.8357   -0.7083 C.3       1 RES1    0.0000
     17 C9         7.8239    5.2344    0.0910 C.3       1 RES1    0.0000
     18 C10        7.1644    6.4598    0.6327 C.3       1 RES1    0.0000
     19 C11        5.2552    7.8573    0.3084 C.3       1 RES1    0.0000
     20 C12        4.2520    7.3103    1.2925 C.3       1 RES1    0.0000
     21 C13        2.2985    5.9322    1.3775 C.3       1 RES1    0.0000
     22 C14        2.7113    4.8376    2.3242 C.3       1 RES1    0.0000
     23 C15        1.6590    3.1082    3.6597 C.3       1 RES1    0.0000
     24 C16        1.6821    1.8143    2.8809 C.3       1 RES1    0.0000
     25 C17        2.2007   -2.8556    0.6299 C.2       1 RES1    0.0000
     26 H1        -0.0243   -4.3978    1.9551 H         1 RES1    0.0000
     27 H2         1.7636   -0.5997    1.9225 H         1 RES1    0.0000
     28 H3         4.2228   -2.1929   -0.7933 H         1 RES1    0.0000
     29 H4         5.3320   -0.1030   -1.1246 H         1 RES1    0.0000
     30 H5         5.2177    2.1747   -1.5958 H         1 RES1    0.0000
     31 H6         6.4826    1.7749   -0.6393 H         1 RES1    0.0000
     32 H7         6.3731    4.0586   -1.6892 H         1 RES1    0.0000
     33 H8         5.2542    4.4523   -0.4900 H         1 RES1    0.0000
     34 H9         8.0102    5.3670   -0.8446 H         1 RES1    0.0000
     35 H10        8.6670    5.0763    0.5413 H         1 RES1    0.0000
     36 H11        6.7137    6.2454    1.5352 H         1 RES1    0.0000
     37 H12        7.8813    7.1783    0.6813 H         1 RES1    0.0000
     38 H13        4.7920    8.2383   -0.4666 H         1 RES1    0.0000
     39 H14        5.8867    8.5594    0.7233 H         1 RES1    0.0000
     40 H15        4.6947    6.7603    2.0718 H         1 RES1    0.0000
     41 H16        3.7217    8.0203    1.6985 H         1 RES1    0.0000
     42 H17        1.6055    5.5003    0.6346 H         1 RES1    0.0000
     43 H18        1.8463    6.7906    1.9365 H         1 RES1    0.0000
     44 H19        3.3325    4.1131    1.8152 H         1 RES1    0.0000
     45 H20        3.2109    5.1550    3.0517 H         1 RES1    0.0000
     46 H21        0.9098    3.1015    4.2416 H         1 RES1    0.0000
     47 H22        2.5298    3.1984    4.2136 H         1 RES1    0.0000
     48 H23        1.6565    0.9208    3.5510 H         1 RES1    0.0000
     49 H24        0.8903    1.7385    2.3378 H         1 RES1    0.0000
     50 H25        2.5298   -3.4892   -0.0933 H         1 RES1    0.0000
@<TRIPOS>BOND
     1    1   14 1
     2    2   16 1
     3    3   18 1
     4    4   20 1
     5    5   22 1
     6    6    9 1
     7    7    8 1
     8    8   25 2
     9    9   10 ar
    10   10   11 ar
    11   11   12 ar
    12   12   13 ar
    13   13   14 ar
    14   14    9 ar
    15   15    1 1
    16   16   15 1
    17   17    2 1
    18   18   17 1
    19   19    3 1
    20   20   19 1
    21   21    4 1
    22   22   21 1
    23   23    5 1
    24   24    6 1
    25   25   11 1
    26   26    7 1
    27   27   10 1
    28   28   12 1
    29   29   13 1
    30   30   15 1
    31   31   15 1
    32   32   16 1
    33   33   16 1
    34   34   17 1
    35   35   17 1
    36   36   18 1
    37   37   18 1
    38   38   19 1
    39   39   19 1
    40   40   20 1
    41   41   20 1
    42   42   21 1
    43   43   21 1
    44   44   22 1
    45   45   22 1
    46   46   23 1
    47   47   23 1
    48   48   24 1
    49   49   24 1
    50   50   25 1
    51   23   24 1
@<TRIPOS>SUBSTRUCTURE
     1 RES1 1

@<TRIPOS>CRYSIN
  24.3250   60.5760    4.6662  90.0000  90.0000  90.0000  43 1

