# MOL2 file generated by ConQuest
# Please check atom types

@<TRIPOS>MOLECULE
ZAYGIS
    25    25     1
SMALL
NO_CHARGES
****
Generated from CSD

@<TRIPOS>ATOM
      1 O1         2.0693   -1.5627    6.3350 O.2       1 RES1    0.0000
      2 O2         2.1294    0.4641    7.0971 O.2       1 RES1    0.0000
      3 O3         0.6138   -1.8447    4.1231 O.2       1 RES1    0.0000
      4 O4         0.4952    0.1041    3.0396 O.3       1 RES1    0.0000
      5 O5         3.5840    1.8358    4.3086 O.3       1 RES1    0.0000
      6 O6         5.6881    2.0220    3.8447 O.2       1 RES1    0.0000
      7 O7         4.7657    3.6191    4.9940 O.2       1 RES1    0.0000
      8 O8        -0.9714    1.1827    5.2655 O.3       1 RES1    0.0000
      9 O9        -2.0769    2.1385    6.9388 O.2       1 RES1    0.0000
     10 O10       -3.0067    0.5945    5.7131 O.2       1 RES1    0.0000
     11 N1         1.5342    0.1331    4.9947 N.am      1 RES1    0.0000
     12 N2         1.9229   -0.3710    6.2355 N.pl3     1 RES1    0.0000
     13 N3        -2.1170    1.3351    6.0389 N.pl3     1 RES1    0.0000
     14 N4         4.7753    2.5737    4.3966 N.pl3     1 RES1    0.0000
     15 C1         1.2860    1.5572    4.7592 C.3       1 RES1    0.0000
     16 C2         0.8588   -0.6882    4.0625 C.2       1 RES1    0.0000
     17 C3         0.9412    1.4585    3.2639 C.3       1 RES1    0.0000
     18 C4         2.4908    2.4695    5.0019 C.3       1 RES1    0.0000
     19 C5         0.1175    2.0682    5.5996 C.3       1 RES1    0.0000
     20 H1        -0.0685    2.8757    5.3592 H         1 RES1    0.0000
     21 H2         0.3294    1.9999    3.0490 H         1 RES1    0.0000
     22 H3         2.7161    2.5171    5.9368 H         1 RES1    0.0000
     23 H4         2.2982    3.3447    4.6245 H         1 RES1    0.0000
     24 H5         0.3346    2.0137    6.5681 H         1 RES1    0.0000
     25 H6         1.7419    1.6344    2.7535 H         1 RES1    0.0000
@<TRIPOS>BOND
     1    1   12 2
     2    2   12 2
     3    3   16 2
     4    4   16 1
     5    5   14 1
     6    6   14 2
     7    7   14 2
     8    8   13 1
     9    9   13 2
    10   10   13 2
    11   11   12 1
    12   15   11 1
    13   16   11 1
    14   17    4 1
    15   18    5 1
    16   19    8 1
    17   20   19 1
    18   21   17 1
    19   22   18 1
    20   23   18 1
    21   24   19 1
    22   25   17 1
    23   15   17 1
    24   15   18 1
    25   15   19 1
@<TRIPOS>SUBSTRUCTURE
     1 RES1 1

@<TRIPOS>CRYSIN
  10.8221    6.8962   13.9313  90.0000 105.3920  90.0000  14 1

