# MOL2 file generated by ConQuest
# Please check atom types

@<TRIPOS>MOLECULE
ZAYGEO
    43    42     1
SMALL
NO_CHARGES
****
Generated from CSD

@<TRIPOS>ATOM
      1 O1        -4.0316    0.4517    5.6819 O.3       1 RES1    0.0000
      2 O2        -2.9223    3.6598    2.7054 O.3       1 RES1    0.0000
      3 O3        -2.3524   -2.0536    2.6343 O.3       1 RES1    0.0000
      4 O4        -1.1184    0.7766    5.3611 O.3       1 RES1    0.0000
      5 O5         1.6792    1.0479    1.9755 O.3       1 RES1    0.0000
      6 O6        -0.0590   -0.6888    6.6729 O.2       1 RES1    0.0000
      7 O7        -2.0055   -4.0724    1.9233 O.2       1 RES1    0.0000
      8 O8         0.1871    1.4506    6.9525 O.2       1 RES1    0.0000
      9 N1        -1.9942    0.9260    2.6584 N.3       1 RES1    0.0000
     10 O9         2.8780    1.3853    0.2081 O.2       1 RES1    0.0000
     11 O10       -4.0622   -3.3789    2.0836 O.2       1 RES1    0.0000
     12 O11       -5.9654   -0.3158    4.8103 O.2       1 RES1    0.0000
     13 O12        0.8935    2.2702    0.2714 O.2       1 RES1    0.0000
     14 N2        -0.2577    0.4667    6.4206 N.pl3     1 RES1    0.0000
     15 O13       -2.4163    5.5691    1.6762 O.2       1 RES1    0.0000
     16 O14       -5.5385   -0.4736    6.9331 O.2       1 RES1    0.0000
     17 N3        -2.8671   -3.2713    2.1779 N.pl3     1 RES1    0.0000
     18 C1        -0.7181    0.4918    2.0878 C.3       1 RES1    0.0000
     19 N4         1.8118    1.6270    0.7148 N.pl3     1 RES1    0.0000
     20 O15       -3.2143    5.5615    3.6992 O.2       1 RES1    0.0000
     21 N5        -5.2992   -0.1641    5.7991 N.pl3     1 RES1    0.0000
     22 C2        -2.5822    3.0165    1.4511 C.3       1 RES1    0.0000
     23 C3        -1.6416   -0.4099    4.7085 C.3       1 RES1    0.0000
     24 C4        -3.3805   -1.1457    3.0993 C.3       1 RES1    0.0000
     25 C5        -3.7053    0.9703    4.3736 C.3       1 RES1    0.0000
     26 N6        -2.8375    5.0490    2.6757 N.pl3     1 RES1    0.0000
     27 C6        -2.6451    0.0843    3.6650 C.3       1 RES1    0.0000
     28 C7         0.4113    1.3511    2.6234 C.3       1 RES1    0.0000
     29 C8        -2.8778    1.5560    1.6723 C.3       1 RES1    0.0000
     30 H1        -2.0550   -0.9607    5.3439 H         1 RES1    0.0000
     31 H2        -3.3188    1.8198    4.5390 H         1 RES1    0.0000
     32 H3        -0.9091   -0.9183    4.3378 H         1 RES1    0.0000
     33 H4        -3.9097   -1.5850    3.7839 H         1 RES1    0.0000
     34 H5        -4.5067    1.0470    3.8301 H         1 RES1    0.0000
     35 H6        -1.6739    3.1772    1.2274 H         1 RES1    0.0000
     36 H7        -3.1189    3.3879    0.7539 H         1 RES1    0.0000
     37 H8        -3.7819    1.4678    1.9813 H         1 RES1    0.0000
     38 H9         0.6205    1.1668    3.5247 H         1 RES1    0.0000
     39 H10        0.2185    2.2980    2.5352 H         1 RES1    0.0000
     40 H11       -0.7367    0.6005    1.1268 H         1 RES1    0.0000
     41 H12       -3.9566   -0.8907    2.3553 H         1 RES1    0.0000
     42 H13       -2.7614    1.0955    0.8131 H         1 RES1    0.0000
     43 H14       -0.5162   -0.4367    2.2654 H         1 RES1    0.0000
@<TRIPOS>BOND
     1    1   21 1
     2    2   22 1
     3    3   17 1
     4    4   14 1
     5    5   19 1
     6    6   14 2
     7    7   17 2
     8    8   14 2
     9    9   18 1
    10   10   19 2
    11   11   17 2
    12   12   21 2
    13   13   19 2
    14   15   26 2
    15   16   21 2
    16   18   28 1
    17   20   26 2
    18   22   29 1
    19   23    4 1
    20   24    3 1
    21   25    1 1
    22   26    2 1
    23   27    9 1
    24   28    5 1
    25   29    9 1
    26   30   23 1
    27   31   25 1
    28   32   23 1
    29   33   24 1
    30   34   25 1
    31   35   22 1
    32   36   22 1
    33   37   29 1
    34   38   28 1
    35   39   28 1
    36   40   18 1
    37   41   24 1
    38   42   29 1
    39   43   18 1
    40   23   27 1
    41   24   27 1
    42   25   27 1
@<TRIPOS>SUBSTRUCTURE
     1 RES1 1

@<TRIPOS>CRYSIN
   8.5140    9.0940   12.7430 102.6520 100.3360 114.8080   2 1

