# MOL2 file generated by ConQuest
# Please check atom types

@<TRIPOS>MOLECULE
ZAYHAL
    64    63     1
SMALL
NO_CHARGES
****
Generated from CSD

@<TRIPOS>ATOM
      1 O1        35.4216    1.2377    3.2651 O.2       1 RES1    0.0000
      2 O2        31.6797   -2.5863    7.3944 O.2       1 RES1    0.0000
      3 O3        37.1871   -0.6565    8.3168 O.2       1 RES1    0.0000
      4 O4        27.6715    1.0787    5.1580 O.3       1 RES1    0.0000
      5 C1        28.1774   -0.2536    2.8162 C.3       1 RES1    0.0000
      6 O5        26.7686   -0.1377    2.5061 O.3       1 RES1    0.0000
      7 O6        29.4093    1.3651    0.7379 O.3       1 RES1    0.0000
      8 O7        33.0188   -2.0024    5.7696 O.3       1 RES1    0.0000
      9 N1        34.6033    0.5359    2.7104 N.pl3     1 RES1    0.0000
     10 O8        30.9151   -1.1938    1.4599 O.3       1 RES1    0.0000
     11 O9        25.7721    2.1505    5.6468 O.2       1 RES1    0.0000
     12 O10       30.1362    3.3874    3.4760 O.2       1 RES1    0.0000
     13 O11       24.9827   -1.2877    2.0809 O.2       1 RES1    0.0000
     14 O12       26.8462   -2.3650    2.3925 O.2       1 RES1    0.0000
     15 N2        36.4976   -0.0857    7.5548 N.pl3     1 RES1    0.0000
     16 N3        30.0670    1.1561    3.4129 N.3       1 RES1    0.0000
     17 O13       35.9510   -0.8929    6.5486 O.3       1 RES1    0.0000
     18 O14       30.5978   -1.9223   -0.5651 O.2       1 RES1    0.0000
     19 O15       32.1857   -0.4619   -0.2598 O.2       1 RES1    0.0000
     20 O16       28.5024    2.7597   -0.7432 O.2       1 RES1    0.0000
     21 O17       33.1935   -4.0035    6.7420 O.2       1 RES1    0.0000
     22 C2        32.9773   -1.2198    2.6798 C.3       1 RES1    0.0000
     23 N4        33.9465   -0.4639    3.4824 N.3       1 RES1    0.0000
     24 N5        32.6001   -2.9626    6.7289 N.pl3     1 RES1    0.0000
     25 N6        29.2828    1.8770   -0.5669 N.pl3     1 RES1    0.0000
     26 O18       30.0043    1.3274   -1.3477 O.2       1 RES1    0.0000
     27 N7        26.1567   -1.3836    2.3060 N.pl3     1 RES1    0.0000
     28 O19       31.9614    2.2498    3.7799 O.2       1 RES1    0.0000
     29 O20       34.2705    0.6483    1.5429 O.2       1 RES1    0.0000
     30 C3        28.6382    1.2130    2.9808 C.3       1 RES1    0.0000
     31 N8        30.7522    2.3286    3.5587 N.pl3     1 RES1    0.0000
     32 N9        31.2798   -1.1739    0.0838 N.pl3     1 RES1    0.0000
     33 O21       36.1986    1.0506    7.5364 O.2       1 RES1    0.0000
     34 C4        30.8996   -0.0528    3.5426 C.3       1 RES1    0.0000
     35 C5        31.7528   -0.3673    2.3184 C.3       1 RES1    0.0000
     36 C6        27.7262    1.9243    3.9879 C.3       1 RES1    0.0000
     37 N10       26.6017    1.3733    6.0141 N.pl3     1 RES1    0.0000
     38 C7        34.2010   -2.4109    5.0510 C.3       1 RES1    0.0000
     39 C8        28.4698    1.9648    1.6500 C.3       1 RES1    0.0000
     40 C9        34.8530   -1.1540    4.4729 C.3       1 RES1    0.0000
     41 C10       35.1465   -0.1617    5.6146 C.3       1 RES1    0.0000
     42 O22       35.7077   -2.4568    2.7075 O.3       1 RES1    0.0000
     43 C11       36.1547   -1.6194    3.7992 C.3       1 RES1    0.0000
     44 O23       36.3556   -3.6712    1.0335 O.2       1 RES1    0.0000
     45 O24       37.8614   -2.9461    2.4372 O.2       1 RES1    0.0000
     46 N11       36.7476   -3.0880    1.9994 N.pl3     1 RES1    0.0000
     47 O25       26.6679    0.7545    7.0440 O.2       1 RES1    0.0000
     48 H1        34.7926   -2.7960    5.6788 H         1 RES1    0.0000
     49 H2        28.0633    2.7549    4.2195 H         1 RES1    0.0000
     50 H3        31.9483    0.3838    1.7957 H         1 RES1    0.0000
     51 H4        32.6551   -1.9463    3.2520 H         1 RES1    0.0000
     52 H5        27.6043    1.8160    1.3417 H         1 RES1    0.0000
     53 H6        33.9630   -3.0153    4.3965 H         1 RES1    0.0000
     54 H7        36.6802   -0.8909    3.4305 H         1 RES1    0.0000
     55 H8        30.3579   -0.7401    3.7510 H         1 RES1    0.0000
     56 H9        26.8451    1.9737    3.6292 H         1 RES1    0.0000
     57 H10       35.6172    0.5894    5.3292 H         1 RES1    0.0000
     58 H11       28.6616    2.8920    1.7232 H         1 RES1    0.0000
     59 H12       28.2524   -0.7401    3.6408 H         1 RES1    0.0000
     60 H13       33.3970   -1.5830    1.8610 H         1 RES1    0.0000
     61 H14       36.6801   -2.1313    4.4226 H         1 RES1    0.0000
     62 H15       34.3347    0.1302    5.9950 H         1 RES1    0.0000
     63 H16       31.4910    0.0891    4.3196 H         1 RES1    0.0000
     64 H17       28.6402   -0.6716    2.0829 H         1 RES1    0.0000
@<TRIPOS>BOND
     1    1    9 2
     2    2   24 2
     3    3   15 2
     4    4   36 1
     5    5    6 1
     6    6   27 1
     7    7   25 1
     8    8   24 1
     9    9   23 1
    10   10   32 1
    11   11   37 2
    12   12   31 2
    13   13   27 2
    14   14   27 2
    15   15   17 1
    16   16   30 1
    17   17   41 1
    18   18   32 2
    19   19   32 2
    20   20   25 2
    21   21   24 2
    22   22   23 1
    23   23   40 1
    24   25   26 2
    25   28   31 2
    26   29    9 2
    27   30    5 1
    28   31   16 1
    29   33   15 2
    30   34   16 1
    31   35   10 1
    32   36   30 1
    33   37    4 1
    34   38    8 1
    35   39    7 1
    36   40   38 1
    37   41   40 1
    38   42   43 1
    39   43   40 1
    40   44   46 2
    41   45   46 2
    42   46   42 1
    43   47   37 2
    44   48   38 1
    45   49   36 1
    46   50   35 1
    47   51   22 1
    48   52   39 1
    49   53   38 1
    50   54   43 1
    51   55   34 1
    52   56   36 1
    53   57   41 1
    54   58   39 1
    55   59    5 1
    56   60   22 1
    57   61   43 1
    58   62   41 1
    59   63   34 1
    60   64    5 1
    61   22   35 1
    62   30   39 1
    63   34   35 1
@<TRIPOS>SUBSTRUCTURE
     1 RES1 1

@<TRIPOS>CRYSIN
  51.2140    6.8530   14.5610  90.0000  95.0210  90.0000  15 1

