# MOL2 file generated by ConQuest
# Please check atom types

@<TRIPOS>MOLECULE
ZAYRIA
    25    25     1
SMALL
NO_CHARGES
****
Generated from CSD

@<TRIPOS>ATOM
      1 O1         3.8620    1.9648    2.3550 O.3       1 RES1    0.0000
      2 O2        -1.2052    0.7318    4.9287 O.2       1 RES1    0.0000
      3 O3         0.0742   -0.8038    4.1399 O.2       1 RES1    0.0000
      4 O4         1.6764    0.5058    6.1383 O.2       1 RES1    0.0000
      5 O5         0.2826    4.8720    0.3721 O.3       1 RES1    0.0000
      6 O6        -1.6070    4.0972    1.2471 O.2       1 RES1    0.0000
      7 N1         2.7287    0.4068    4.1547 N.am      1 RES1    0.0000
      8 N2        -0.2570    0.3728    4.2913 N.pl3     1 RES1    0.0000
      9 C1         0.4270    3.1457    1.9712 C.ar      1 RES1    0.0000
     10 C2         1.7926    3.0537    1.7745 C.ar      1 RES1    0.0000
     11 C3         2.5309    2.1293    2.5051 C.ar      1 RES1    0.0000
     12 C4         1.9007    1.2965    3.4493 C.ar      1 RES1    0.0000
     13 C5         0.5216    1.3828    3.5645 C.ar      1 RES1    0.0000
     14 C6        -0.2192    2.3260    2.8708 C.ar      1 RES1    0.0000
     15 C7         2.5756    0.0561    5.4659 C.2       1 RES1    0.0000
     16 C8         3.5948   -0.9161    5.9856 C.3       1 RES1    0.0000
     17 C9        -0.3858    4.0988    1.1578 C.2       1 RES1    0.0000
     18 H1         2.2954    3.5721    1.1325 H         1 RES1    0.0000
     19 H2         4.0418    2.3146    1.4302 H         1 RES1    0.0000
     20 H3         3.5341    0.2855    3.7665 H         1 RES1    0.0000
     21 H4        -1.1426    2.2679    3.0805 H         1 RES1    0.0000
     22 H5         4.2080   -1.1313    5.2937 H         1 RES1    0.0000
     23 H6         4.0607   -0.5384    6.7175 H         1 RES1    0.0000
     24 H7         3.1482   -1.7154    6.2645 H         1 RES1    0.0000
     25 H8        -0.3229    5.4342   -0.0971 H         1 RES1    0.0000
@<TRIPOS>BOND
     1    1   11 1
     2    2    8 2
     3    3    8 2
     4    4   15 2
     5    5   17 1
     6    6   17 2
     7    7   12 1
     8    8   13 1
     9    9   10 ar
    10   10   11 ar
    11   11   12 ar
    12   12   13 ar
    13   13   14 ar
    14   14    9 ar
    15   15    7 1
    16   16   15 1
    17   17    9 1
    18   18   10 1
    19   19    1 1
    20   20    7 1
    21   21   14 1
    22   22   16 1
    23   23   16 1
    24   24   16 1
    25   25    5 1
@<TRIPOS>SUBSTRUCTURE
     1 RES1 1

@<TRIPOS>CRYSIN
   7.4840   10.7350    7.1191  98.3700 109.5900 105.9800   2 1

