# MOL2 file generated by ConQuest
# Please check atom types

@<TRIPOS>MOLECULE
ZAYWAX
    34    35     1
SMALL
NO_CHARGES
****
Generated from CSD

@<TRIPOS>ATOM
      1 C1         0.5742    1.7293   22.0904 C.3       1 RES1    0.0000
      2 H1         0.8976    0.9992   22.6924 H         1 RES1    0.0000
      3 C2         1.2444    3.0346   22.4794 C.3       1 RES1    0.0000
      4 H2         2.1814    3.0238   22.1610 H         1 RES1    0.0000
      5 H3         0.7801    3.7835   22.0267 H         1 RES1    0.0000
      6 C3         1.2336    3.2767   23.9584 C.2       1 RES1    0.0000
      7 H4         2.0046    3.6953   24.3233 H         1 RES1    0.0000
      8 C4         0.2558    2.9671   24.8245 C.2       1 RES1    0.0000
      9 H5         0.4483    3.1435   25.7380 H         1 RES1    0.0000
     10 C5        -1.0527    2.4008   24.5597 C.2       1 RES1    0.0000
     11 H6        -1.6272    2.3630   25.3154 H         1 RES1    0.0000
     12 C6        -1.5852    1.9246   23.4323 C.2       1 RES1    0.0000
     13 H7        -2.4966    1.6627   23.4854 H         1 RES1    0.0000
     14 C7        -0.9348    1.7473   22.0936 C.3       1 RES1    0.0000
     15 H8        -1.2383    2.4801   21.5012 H         1 RES1    0.0000
     16 H9        -1.2561    0.8975   21.7017 H         1 RES1    0.0000
     17 C8         2.0540    0.7310   20.4858 C.2       1 RES1    0.0000
     18 C9         2.1913    0.2908   19.0555 C.ar      1 RES1    0.0000
     19 C10        1.1780    0.5077   18.1255 C.ar      1 RES1    0.0000
     20 H10        0.3765    0.9515   18.3768 H         1 RES1    0.0000
     21 C11        1.3610    0.0621   16.8253 C.ar      1 RES1    0.0000
     22 C12        2.5081   -0.5941   16.4103 C.ar      1 RES1    0.0000
     23 H11        2.6210   -0.8831   15.5121 H         1 RES1    0.0000
     24 C13        3.4803   -0.8075   17.3700 C.ar      1 RES1    0.0000
     25 C14        3.3548   -0.3763   18.6808 C.ar      1 RES1    0.0000
     26 H12        4.0485   -0.5320   19.3109 H         1 RES1    0.0000
     27 O1         0.9150    1.3962   20.6881 O.3       1 RES1    0.0000
     28 O2         2.8889    0.4888   21.3230 O.2       1 RES1    0.0000
     29 O3         5.5870   -1.6852   17.7782 O.2       1 RES1    0.0000
     30 O4         4.7082   -2.0101   15.8177 O.2       1 RES1    0.0000
     31 N1         4.6805   -1.5555   16.9568 N.pl3     1 RES1    0.0000
     32 N2         0.2927    0.2647   15.8348 N.pl3     1 RES1    0.0000
     33 O5         0.4447   -0.2223   14.7225 O.2       1 RES1    0.0000
     34 O6        -0.7035    0.8921   16.1819 O.2       1 RES1    0.0000
@<TRIPOS>BOND
     1    1    2 1
     2    3    1 1
     3    4    3 1
     4    5    3 1
     5    6    3 1
     6    7    6 1
     7    8    6 2
     8    9    8 1
     9   10    8 1
    10   11   10 1
    11   12   10 2
    12   13   12 1
    13   14    1 1
    14   15   14 1
    15   16   14 1
    16   17   18 1
    17   18   19 ar
    18   19   20 1
    19   21   19 ar
    20   22   21 ar
    21   23   22 1
    22   24   22 ar
    23   25   18 ar
    24   26   25 1
    25   27    1 1
    26   28   17 2
    27   29   31 2
    28   30   31 2
    29   31   24 1
    30   32   21 1
    31   33   32 2
    32   34   32 2
    33   12   14 1
    34   17   27 1
    35   24   25 ar
@<TRIPOS>SUBSTRUCTURE
     1 RES1 1

@<TRIPOS>CRYSIN
   6.7210    9.0020   22.9140  90.0000  91.4600  90.0000 231 1

