# MOL2 file generated by ConQuest
# Please check atom types

@<TRIPOS>MOLECULE
ZAZLAP
    40    41     1
SMALL
NO_CHARGES
****
Generated from CSD

@<TRIPOS>ATOM
      1 C1        -1.2703    8.7119    2.4513 C.3       1 RES1    0.0000
      2 H1        -1.3460    8.0788    1.7079 H         1 RES1    0.0000
      3 H2        -1.0418    9.5987    2.1035 H         1 RES1    0.0000
      4 H3        -2.1246    8.7589    2.9293 H         1 RES1    0.0000
      5 N1        -0.2286    8.2658    3.3649 N.am      1 RES1    0.0000
      6 H4        -0.2170    8.6277    4.1715 H         1 RES1    0.0000
      7 C2         0.6245    7.2718    3.0794 C.2       1 RES1    0.0000
      8 O1         0.6761    6.7064    1.9880 O.2       1 RES1    0.0000
      9 C3         1.5579    6.8639    4.2269 C.3       1 RES1    0.0000
     10 H5         1.4994    7.5353    4.9658 H         1 RES1    0.0000
     11 C4         1.1146    5.4883    4.7403 C.3       1 RES1    0.0000
     12 H6         0.1485    5.5200    4.9535 H         1 RES1    0.0000
     13 H7         1.2436    4.8180    4.0230 H         1 RES1    0.0000
     14 C5         1.8722    5.0509    5.9617 C.ar      1 RES1    0.0000
     15 C6         1.3920    5.3461    7.2332 C.ar      1 RES1    0.0000
     16 H8         0.5718    5.8174    7.3225 H         1 RES1    0.0000
     17 C7         2.0765    4.9700    8.3654 C.ar      1 RES1    0.0000
     18 H9         1.7363    5.2018    9.2220 H         1 RES1    0.0000
     19 C8         3.2550    4.2581    8.2653 C.ar      1 RES1    0.0000
     20 H10        3.7230    3.9847    9.0465 H         1 RES1    0.0000
     21 C9         3.7504    3.9475    7.0000 C.ar      1 RES1    0.0000
     22 H11        4.5656    3.4664    6.9169 H         1 RES1    0.0000
     23 C10        3.0625    4.3335    5.8663 C.ar      1 RES1    0.0000
     24 H12        3.4064    4.1072    5.0097 H         1 RES1    0.0000
     25 N2         2.9363    6.7819    3.7405 N.2       1 RES1    0.0000
     26 C11        3.7021    7.7693    3.9876 C.2       1 RES1    0.0000
     27 H13        3.3538    8.5184    4.4563 H         1 RES1    0.0000
     28 C12        5.1066    7.7824    3.5696 C.ar      1 RES1    0.0000
     29 C13        5.7819    6.5872    3.3318 C.ar      1 RES1    0.0000
     30 H14        5.3310    5.7606    3.4550 H         1 RES1    0.0000
     31 C14        7.0960    6.5949    2.9185 C.ar      1 RES1    0.0000
     32 H15        7.5554    5.7824    2.7446 H         1 RES1    0.0000
     33 C15        7.7291    7.8109    2.7615 C.ar      1 RES1    0.0000
     34 C16        7.0889    9.0126    2.9709 C.ar      1 RES1    0.0000
     35 H16        7.5418    9.8371    2.8377 H         1 RES1    0.0000
     36 C17        5.7701    8.9886    3.3803 C.ar      1 RES1    0.0000
     37 H17        5.3113    9.8065    3.5335 H         1 RES1    0.0000
     38 N3         9.1314    7.8415    2.3097 N.pl3     1 RES1    0.0000
     39 O2         9.6427    8.9087    2.0242 O.2       1 RES1    0.0000
     40 O3         9.7226    6.7633    2.2058 O.2       1 RES1    0.0000
@<TRIPOS>BOND
     1    1    2 1
     2    3    1 1
     3    4    1 1
     4    5    1 1
     5    6    5 1
     6    7    5 1
     7    8    7 2
     8    9    7 1
     9   10    9 1
    10   11    9 1
    11   12   11 1
    12   13   11 1
    13   14   11 1
    14   15   14 ar
    15   16   15 1
    16   17   15 ar
    17   18   17 1
    18   19   17 ar
    19   20   19 1
    20   21   19 ar
    21   22   21 1
    22   23   14 ar
    23   24   23 1
    24   25    9 1
    25   26   25 2
    26   27   26 1
    27   28   26 1
    28   29   28 ar
    29   30   29 1
    30   31   29 ar
    31   32   31 1
    32   33   31 ar
    33   34   33 ar
    34   35   34 1
    35   36   28 ar
    36   37   36 1
    37   38   33 1
    38   39   38 2
    39   40   38 2
    40   21   23 ar
    41   34   36 ar
@<TRIPOS>SUBSTRUCTURE
     1 RES1 1

@<TRIPOS>CRYSIN
  18.2650   10.9350    7.8570  90.0000 101.6000  90.0000  14 1

