# MOL2 file generated by ConQuest
# Please check atom types

@<TRIPOS>MOLECULE
ZBXPEN
    39    40     1
SMALL
NO_CHARGES
****
Generated from CSD

@<TRIPOS>ATOM
      1 C1         1.4953   13.2054    5.8969 C.2       1 RES1    0.0000
      2 C2         1.9836   14.5601    5.4975 C.ar      1 RES1    0.0000
      3 C3         2.8527   14.6424    4.4035 C.ar      1 RES1    0.0000
      4 C4         3.3577   15.8820    4.0118 C.ar      1 RES1    0.0000
      5 C5         2.9768   17.0033    4.7416 C.ar      1 RES1    0.0000
      6 C6         2.0954   16.9572    5.8199 C.ar      1 RES1    0.0000
      7 C7         1.5977   15.7110    6.1920 C.ar      1 RES1    0.0000
      8 C8         0.0938   12.1039    7.4505 C.2       1 RES1    0.0000
      9 C9         0.7119   11.6665    8.7364 C.3       1 RES1    0.0000
     10 C10       -0.9276   11.5317    6.7873 C.2       1 RES1    0.0000
     11 C11       -1.5616   10.2954    7.3369 C.ar      1 RES1    0.0000
     12 C12       -0.8194    9.1346    7.5510 C.ar      1 RES1    0.0000
     13 C13       -1.4238    8.0002    8.1045 C.ar      1 RES1    0.0000
     14 C14       -2.7662    8.0199    8.4583 C.ar      1 RES1    0.0000
     15 C15       -3.5178    9.1642    8.2233 C.ar      1 RES1    0.0000
     16 C16       -2.9242   10.2855    7.6581 C.ar      1 RES1    0.0000
     17 C17       -1.4368   12.0776    5.4909 C.2       1 RES1    0.0000
     18 C18       -2.1726   11.1437    4.5627 C.3       1 RES1    0.0000
     19 H1         3.0655   13.7118    3.7598 H         1 RES1    0.0000
     20 H2         3.9455   15.9149    3.2376 H         1 RES1    0.0000
     21 H3         1.8465   17.8220    6.3056 H         1 RES1    0.0000
     22 H4         1.0315   15.6189    6.8669 H         1 RES1    0.0000
     23 H5         1.6951   11.0812    8.9166 H         1 RES1    0.0000
     24 H6         0.7357   12.1992    9.4127 H         1 RES1    0.0000
     25 H7         0.1298   10.7524    9.3996 H         1 RES1    0.0000
     26 H8         0.1226    9.1412    7.1411 H         1 RES1    0.0000
     27 H9        -0.8872    7.2340    8.3291 H         1 RES1    0.0000
     28 H10       -3.1593    7.2669    9.0210 H         1 RES1    0.0000
     29 H11       -4.5081    9.1083    8.6685 H         1 RES1    0.0000
     30 H12       -3.4334   10.9497    7.3369 H         1 RES1    0.0000
     31 H13       -3.1954   10.9826    4.6737 H         1 RES1    0.0000
     32 H14       -1.9908   11.1799    3.4857 H         1 RES1    0.0000
     33 H15       -1.8970    9.9961    4.6476 H         1 RES1    0.0000
     34 N1         3.5668   18.3021    4.3747 N.pl3     1 RES1    0.0000
     35 O1         1.7953   12.1795    5.3486 O.2       1 RES1    0.0000
     36 O2         4.2759   18.3580    3.3786 O.2       1 RES1    0.0000
     37 O3         3.3295   19.2656    5.0967 O.2       1 RES1    0.0000
     38 O4         0.6946   13.2778    6.9818 O.3       1 RES1    0.0000
     39 O5        -1.2695   13.2482    5.1580 O.2       1 RES1    0.0000
@<TRIPOS>BOND
     1    1    2 1
     2    2    3 ar
     3    3    4 ar
     4    4    5 ar
     5    5    6 ar
     6    6    7 ar
     7    7    2 ar
     8    8    9 1
     9    9   23 1
    10   10    8 2
    11   11   10 1
    12   12   11 ar
    13   13   12 ar
    14   14   13 ar
    15   15   14 ar
    16   16   11 ar
    17   17   10 1
    18   18   17 1
    19   19    3 1
    20   20    4 1
    21   21    6 1
    22   22    7 1
    23   24    9 1
    24   25    9 1
    25   26   12 1
    26   27   13 1
    27   28   14 1
    28   29   15 1
    29   30   16 1
    30   31   18 1
    31   32   18 1
    32   33   18 1
    33   34    5 1
    34   35    1 2
    35   36   34 2
    36   37   34 2
    37   38    1 1
    38   39   17 2
    39    8   38 1
    40   15   16 ar
@<TRIPOS>SUBSTRUCTURE
     1 RES1 1

@<TRIPOS>CRYSIN
   7.2130   32.8820   13.0550  90.0000  90.0000  90.0000  61 1

