# MOL2 file generated by ConQuest
# Please check atom types

@<TRIPOS>MOLECULE
ZEBBEQ
    33    35     1
SMALL
NO_CHARGES
****
Generated from CSD

@<TRIPOS>ATOM
      1 O1         5.2640    1.3741    8.4330 O.3       1 RES1    0.0000
      2 O2         3.0322    2.0758    8.2898 O.3       1 RES1    0.0000
      3 H1         2.6467    1.3844    8.7424 H         1 RES1    0.0000
      4 O3         4.6996    3.9707    9.5013 O.3       1 RES1    0.0000
      5 H2         4.1213    3.3765    9.3543 H         1 RES1    0.0000
      6 O4         8.7989    3.2777    9.1645 O.2       1 RES1    0.0000
      7 O5         9.5130    1.3008    9.6618 O.2       1 RES1    0.0000
      8 N1         6.1593    2.5204    8.2403 N.3       1 RES1    0.0000
      9 N2         8.7284    2.2319    9.8031 N.pl3     1 RES1    0.0000
     10 C1         4.1167    1.5101    7.5818 C.3       1 RES1    0.0000
     11 H3         3.8631    0.6322    7.1761 H         1 RES1    0.0000
     12 C2         4.5777    2.4707    6.5363 C.ar      1 RES1    0.0000
     13 C3         4.0061    2.8565    5.3313 C.ar      1 RES1    0.0000
     14 H4         3.2156    2.4395    5.0093 H         1 RES1    0.0000
     15 C4         4.6213    3.8644    4.6116 C.ar      1 RES1    0.0000
     16 H5         4.2483    4.1463    3.7855 H         1 RES1    0.0000
     17 C5         5.7718    4.4654    5.0824 C.ar      1 RES1    0.0000
     18 H6         6.1757    5.1550    4.5687 H         1 RES1    0.0000
     19 C6         6.3555    4.0889    6.2859 C.ar      1 RES1    0.0000
     20 H7         7.1463    4.5059    6.6076 H         1 RES1    0.0000
     21 C7         5.7289    3.0751    6.9957 C.ar      1 RES1    0.0000
     22 C8         6.0016    3.4263    9.3853 C.3       1 RES1    0.0000
     23 H8         6.6355    4.1885    9.2561 H         1 RES1    0.0000
     24 C9         6.4213    2.6936   10.6507 C.ar      1 RES1    0.0000
     25 C10        7.6729    2.0943   10.8180 C.ar      1 RES1    0.0000
     26 C11        8.0002    1.3590   11.9425 C.ar      1 RES1    0.0000
     27 H9         8.8486    0.9344   12.0051 H         1 RES1    0.0000
     28 C12        7.0905    1.2442   12.9711 C.ar      1 RES1    0.0000
     29 H10        7.3120    0.7572   13.7563 H         1 RES1    0.0000
     30 C13        5.8580    1.8427   12.8508 C.ar      1 RES1    0.0000
     31 H11        5.2272    1.7710   13.5576 H         1 RES1    0.0000
     32 C14        5.5315    2.5484   11.7048 C.ar      1 RES1    0.0000
     33 H12        4.6708    2.9451   11.6375 H         1 RES1    0.0000
@<TRIPOS>BOND
     1    1    8 1
     2    2    3 1
     3    4    5 1
     4    6    9 2
     5    7    9 2
     6    8   21 1
     7    9   25 1
     8   10    1 1
     9   11   10 1
    10   12   10 1
    11   13   12 ar
    12   14   13 1
    13   15   13 ar
    14   16   15 1
    15   17   15 ar
    16   18   17 1
    17   19   17 ar
    18   20   19 1
    19   21   12 ar
    20   22    4 1
    21   23   22 1
    22   24   22 1
    23   25   24 ar
    24   26   25 ar
    25   27   26 1
    26   28   26 ar
    27   29   28 1
    28   30   28 ar
    29   31   30 1
    30   32   24 ar
    31   33   32 1
    32    2   10 1
    33    8   22 1
    34   19   21 ar
    35   30   32 ar
@<TRIPOS>SUBSTRUCTURE
     1 RES1 1

@<TRIPOS>CRYSIN
  13.8066    8.4412   22.8320  90.0000  90.0000  90.0000  61 1

