# MOL2 file generated by ConQuest
# Please check atom types

@<TRIPOS>MOLECULE
ZEBWEI
    35    39     1
SMALL
NO_CHARGES
****
Generated from CSD

@<TRIPOS>ATOM
      1 O1         1.0457   -0.1471   19.6040 O.3       1 RES1    0.0000
      2 O2        -0.2870    1.7302   19.8372 O.3       1 RES1    0.0000
      3 O3        -1.2216    3.4954   15.0441 O.2       1 RES1    0.0000
      4 O4        -0.6271    2.4677   12.5959 O.2       1 RES1    0.0000
      5 O5         0.8026    0.2492   12.3430 O.3       1 RES1    0.0000
      6 C1         0.7222    0.3402   18.3725 C.ar      1 RES1    0.0000
      7 C2        -0.0643    1.4650   18.5071 C.ar      1 RES1    0.0000
      8 C3        -0.5228    2.1785   17.4382 C.ar      1 RES1    0.0000
      9 C4        -0.1523    1.7052   16.1673 C.ar      1 RES1    0.0000
     10 C5        -0.5887    2.4587   14.9981 C.2       1 RES1    0.0000
     11 C6        -0.2385    1.9183   13.6123 C.2       1 RES1    0.0000
     12 N1         0.5364    0.8036   13.5959 N.am      1 RES1    0.0000
     13 C7         1.0288    0.0911   14.7092 C.ar      1 RES1    0.0000
     14 C8         1.8368   -0.9817   14.5367 C.ar      1 RES1    0.0000
     15 C9         2.3354   -1.7172   15.6550 C.ar      1 RES1    0.0000
     16 C10        3.2064   -2.8040   15.4464 C.ar      1 RES1    0.0000
     17 C11        3.7136   -3.5055   16.5088 C.ar      1 RES1    0.0000
     18 C12        3.3388   -3.1622   17.8093 C.ar      1 RES1    0.0000
     19 C13        2.4815   -2.1145   18.0375 C.ar      1 RES1    0.0000
     20 C14        1.9747   -1.3449   16.9702 C.ar      1 RES1    0.0000
     21 C15        1.1252   -0.1811   17.1410 C.ar      1 RES1    0.0000
     22 C16        0.6461    0.5594   16.0146 C.ar      1 RES1    0.0000
     23 C17        0.3730    0.6895   20.5695 C.3       1 RES1    0.0000
     24 C18        1.9774    0.8556   11.7470 C.3       1 RES1    0.0000
     25 H1        -1.0553    2.9791   17.5170 H         1 RES1    0.0000
     26 H2         2.1233   -1.2399   13.6386 H         1 RES1    0.0000
     27 H3         3.4205   -3.0351   14.5499 H         1 RES1    0.0000
     28 H4         4.3277   -4.2720   16.3627 H         1 RES1    0.0000
     29 H5         3.6734   -3.6936   18.5695 H         1 RES1    0.0000
     30 H6         2.2631   -1.9003   18.9390 H         1 RES1    0.0000
     31 H7        -0.3226    0.1161   21.0490 H         1 RES1    0.0000
     32 H8         1.0426    1.0597   21.1885 H         1 RES1    0.0000
     33 H9         2.0323    0.4833   10.8521 H         1 RES1    0.0000
     34 H10        2.7821    0.6094   12.2543 H         1 RES1    0.0000
     35 H11        1.8796    1.8273   11.7141 H         1 RES1    0.0000
@<TRIPOS>BOND
     1    1    6 1
     2    2    7 1
     3    3   10 2
     4    4   11 2
     5    5   12 1
     6    6    7 ar
     7    7    8 ar
     8    8    9 ar
     9    9   10 1
    10   10   11 1
    11   11   12 1
    12   12   13 1
    13   13   14 ar
    14   14   15 ar
    15   15   16 ar
    16   16   17 ar
    17   17   18 ar
    18   18   19 ar
    19   19   20 ar
    20   20   15 ar
    21   21    6 ar
    22   22    9 ar
    23   23    1 1
    24   24    5 1
    25   25    8 1
    26   26   14 1
    27   27   16 1
    28   28   17 1
    29   29   18 1
    30   30   19 1
    31   31   23 1
    32   32   23 1
    33   33   24 1
    34   34   24 1
    35   35   24 1
    36    2   23 1
    37   13   22 ar
    38   20   21 ar
    39   21   22 ar
@<TRIPOS>SUBSTRUCTURE
     1 RES1 1

@<TRIPOS>CRYSIN
   8.3220   10.0070   16.4520  90.0000  93.5670  90.0000 231 1

