# MOL2 file generated by ConQuest
# Please check atom types

@<TRIPOS>MOLECULE
ZEBXOT
    96   100     1
SMALL
NO_CHARGES
****
Generated from CSD

@<TRIPOS>ATOM
      1 O1         5.8675    3.0641    1.9424 O.2       1 RES1    0.0000
      2 O2         3.3327    0.8875    6.2012 O.2       1 RES1    0.0000
      3 O3         3.4951    2.9519    6.7493 O.2       1 RES1    0.0000
      4 O4         7.4633    2.3101    4.3869 O.3       1 RES1    0.0000
      5 O5         9.4516    1.5757    3.8148 O.2       1 RES1    0.0000
      6 O6         6.7700    1.5071    7.1134 O.3       1 RES1    0.0000
      7 O7         8.5811    2.5121    7.9376 O.2       1 RES1    0.0000
      8 O8         6.2127   -1.0860    7.0054 O.3       1 RES1    0.0000
      9 O9         6.2874   -3.0222    5.8812 O.2       1 RES1    0.0000
     10 O10        9.7219   -0.4585    7.5555 O.3       1 RES1    0.0000
     11 O11       10.0775    0.0169    9.7179 O.2       1 RES1    0.0000
     12 O12        9.2439   -3.1477    7.3295 O.3       1 RES1    0.0000
     13 O13       10.8805   -3.4994    8.7737 O.2       1 RES1    0.0000
     14 N1         3.8258    1.9887    6.0892 N.pl3     1 RES1    0.0000
     15 C1         4.2103    2.8575    3.7567 C.3       1 RES1    0.0000
     16 C2         3.1077    1.9148    3.2847 C.2       1 RES1    0.0000
     17 C3         3.6808    0.7611    2.8786 C.2       1 RES1    0.0000
     18 C4         5.2108    0.8813    3.0086 C.3       1 RES1    0.0000
     19 C5         5.5500    0.9320    4.5509 C.3       1 RES1    0.0000
     20 C6         4.8580    2.2210    5.0290 C.3       1 RES1    0.0000
     21 C7         5.2640    2.3937    2.7285 C.2       1 RES1    0.0000
     22 C8         3.9527    4.3442    3.7908 C.3       1 RES1    0.0000
     23 C9         1.6795    2.2727    3.2246 C.ar      1 RES1    0.0000
     24 C10        0.9587    2.0403    2.0724 C.ar      1 RES1    0.0000
     25 C11       -0.3777    2.3795    1.9844 C.ar      1 RES1    0.0000
     26 C12       -1.0077    2.9777    3.0446 C.ar      1 RES1    0.0000
     27 C13       -0.3145    3.2092    4.1988 C.ar      1 RES1    0.0000
     28 C14        1.0225    2.8664    4.2849 C.ar      1 RES1    0.0000
     29 C15        2.9483   -0.4513    2.4445 C.ar      1 RES1    0.0000
     30 C16        2.0712   -1.0504    3.3527 C.ar      1 RES1    0.0000
     31 C17        1.2868   -2.1213    2.9626 C.ar      1 RES1    0.0000
     32 C18        1.3470   -2.5896    1.7043 C.ar      1 RES1    0.0000
     33 C19        2.2148   -2.0216    0.7902 C.ar      1 RES1    0.0000
     34 C20        3.0298   -0.9641    1.1682 C.ar      1 RES1    0.0000
     35 C21        6.0096   -0.1113    2.2084 C.ar      1 RES1    0.0000
     36 C22        5.9673   -1.4492    2.5545 C.ar      1 RES1    0.0000
     37 C23        6.6288   -2.3929    1.7984 C.ar      1 RES1    0.0000
     38 C24        7.3633   -2.0216    0.7201 C.ar      1 RES1    0.0000
     39 C25        7.4219   -0.6952    0.3721 C.ar      1 RES1    0.0000
     40 C26        6.7366    0.2582    1.0962 C.ar      1 RES1    0.0000
     41 C27        7.0696    0.9739    4.7870 C.3       1 RES1    0.0000
     42 C28        8.6872    2.4721    3.8528 C.2       1 RES1    0.0000
     43 C29        8.9291    3.8661    3.4207 C.3       1 RES1    0.0000
     44 C30        7.5586    0.7237    6.2012 C.3       1 RES1    0.0000
     45 C31        7.3894    2.3920    7.9336 C.2       1 RES1    0.0000
     46 C32        6.4367    3.1121    8.7737 C.3       1 RES1    0.0000
     47 C33        7.5564   -0.7237    6.6353 C.3       1 RES1    0.0000
     48 C34        5.7084   -2.2682    6.6033 C.2       1 RES1    0.0000
     49 C35        4.3569   -2.4587    7.1794 C.3       1 RES1    0.0000
     50 C36        8.4145   -0.9685    7.8736 C.3       1 RES1    0.0000
     51 C37       10.4562    0.0214    8.5917 C.2       1 RES1    0.0000
     52 C38       11.8019    0.4691    8.1356 C.3       1 RES1    0.0000
     53 C39        8.5233   -2.3973    8.2976 C.3       1 RES1    0.0000
     54 C40       10.4389   -3.6632    7.7135 C.2       1 RES1    0.0000
     55 C41       11.0626   -4.4154    6.6233 C.3       1 RES1    0.0000
     56 H1         5.1593    0.1798    4.9990 H         1 RES1    0.0000
     57 H2         5.5246    2.8193    5.3711 H         1 RES1    0.0000
     58 H3         3.5463    4.6175    2.9646 H         1 RES1    0.0000
     59 H4         3.3627    4.5463    4.5189 H         1 RES1    0.0000
     60 H5         4.7803    4.8133    3.9108 H         1 RES1    0.0000
     61 H6         1.3984    1.6504    1.3143 H         1 RES1    0.0000
     62 H7        -0.8701    2.1899    1.1822 H         1 RES1    0.0000
     63 H8        -1.9277    3.2457    2.9686 H         1 RES1    0.0000
     64 H9        -0.7628    3.5795    4.9630 H         1 RES1    0.0000
     65 H10        1.5121    3.0569    5.0890 H         1 RES1    0.0000
     66 H11        2.0071   -0.7113    4.2468 H         1 RES1    0.0000
     67 H12        0.6969   -2.5317    3.5967 H         1 RES1    0.0000
     68 H13        0.7733   -3.3151    1.4463 H         1 RES1    0.0000
     69 H14        2.2554   -2.3608   -0.1080 H         1 RES1    0.0000
     70 H15        3.6607   -0.5822    0.5541 H         1 RES1    0.0000
     71 H16        5.4726   -1.7190    3.3307 H         1 RES1    0.0000
     72 H17        6.5768   -3.3204    2.0384 H         1 RES1    0.0000
     73 H18        7.8264   -2.6804    0.1980 H         1 RES1    0.0000
     74 H19        7.9525   -0.4228   -0.3821 H         1 RES1    0.0000
     75 H20        6.7653    1.1804    0.8302 H         1 RES1    0.0000
     76 H21        7.4851    0.3383    4.2008 H         1 RES1    0.0000
     77 H22        9.8008    3.9445    3.0226 H         1 RES1    0.0000
     78 H23        8.2632    4.1421    2.7866 H         1 RES1    0.0000
     79 H24        8.8831    4.4261    4.1988 H         1 RES1    0.0000
     80 H25        8.4600    1.0469    6.2572 H         1 RES1    0.0000
     81 H26        6.9046    3.7273    9.3439 H         1 RES1    0.0000
     82 H27        5.8208    3.5964    8.2176 H         1 RES1    0.0000
     83 H28        5.9530    2.4810    9.3119 H         1 RES1    0.0000
     84 H29        7.8540   -1.2854    5.9152 H         1 RES1    0.0000
     85 H30        4.0164   -3.3053    6.8794 H         1 RES1    0.0000
     86 H31        4.3808   -2.4436    8.1376 H         1 RES1    0.0000
     87 H32        3.7861   -1.7546    6.8614 H         1 RES1    0.0000
     88 H33        8.0456   -0.4496    8.5917 H         1 RES1    0.0000
     89 H34       12.3149    0.8128    8.8718 H         1 RES1    0.0000
     90 H35       12.2692   -0.2706    7.7375 H         1 RES1    0.0000
     91 H36       11.6820    1.1599    7.4795 H         1 RES1    0.0000
     92 H37        7.6438   -2.7641    8.4097 H         1 RES1    0.0000
     93 H38        8.9723   -2.4400    9.1458 H         1 RES1    0.0000
     94 H39       11.9112   -4.7457    6.9294 H         1 RES1    0.0000
     95 H40       10.4959   -5.1551    6.3933 H         1 RES1    0.0000
     96 H41       11.1937   -3.8590    5.8532 H         1 RES1    0.0000
@<TRIPOS>BOND
     1    1   21 2
     2    2   14 2
     3    3   14 2
     4    4   41 1
     5    5   42 2
     6    6   44 1
     7    7   45 2
     8    8   47 1
     9    9   48 2
    10   10   50 1
    11   11   51 2
    12   12   53 1
    13   13   54 2
    14   14   20 1
    15   15   16 1
    16   16   17 2
    17   17   18 1
    18   18   19 1
    19   19   20 1
    20   20   15 1
    21   21   15 1
    22   22   15 1
    23   23   16 1
    24   24   23 ar
    25   25   24 ar
    26   26   25 ar
    27   27   26 ar
    28   28   23 ar
    29   29   17 1
    30   30   29 ar
    31   31   30 ar
    32   32   31 ar
    33   33   32 ar
    34   34   29 ar
    35   35   18 1
    36   36   35 ar
    37   37   36 ar
    38   38   37 ar
    39   39   38 ar
    40   40   35 ar
    41   41   19 1
    42   42    4 1
    43   43   42 1
    44   44   41 1
    45   45    6 1
    46   46   45 1
    47   47   44 1
    48   48    8 1
    49   49   48 1
    50   50   47 1
    51   51   10 1
    52   52   51 1
    53   53   50 1
    54   54   12 1
    55   55   54 1
    56   56   19 1
    57   57   20 1
    58   58   22 1
    59   59   22 1
    60   60   22 1
    61   61   24 1
    62   62   25 1
    63   63   26 1
    64   64   27 1
    65   65   28 1
    66   66   30 1
    67   67   31 1
    68   68   32 1
    69   69   33 1
    70   70   34 1
    71   71   36 1
    72   72   37 1
    73   73   38 1
    74   74   39 1
    75   75   40 1
    76   76   41 1
    77   77   43 1
    78   78   43 1
    79   79   43 1
    80   80   44 1
    81   81   46 1
    82   82   46 1
    83   83   46 1
    84   84   47 1
    85   85   49 1
    86   86   49 1
    87   87   49 1
    88   88   50 1
    89   89   52 1
    90   90   52 1
    91   91   52 1
    92   92   53 1
    93   93   53 1
    94   94   55 1
    95   95   55 1
    96   96   55 1
    97   18   21 1
    98   27   28 ar
    99   33   34 ar
   100   39   40 ar
@<TRIPOS>SUBSTRUCTURE
     1 RES1 1

@<TRIPOS>CRYSIN
  22.4660    8.9020   20.9450  90.0000 107.2400  90.0000   5 1

