# MOL2 file generated by ConQuest
# Please check atom types

@<TRIPOS>MOLECULE
ZEBXIN
    96   100     1
SMALL
NO_CHARGES
****
Generated from CSD

@<TRIPOS>ATOM
      1 O1        -4.1446   -4.3807  -15.4500 O.2       1 RES1    0.0000
      2 O2         0.0822   -1.6064  -17.3752 O.2       1 RES1    0.0000
      3 O3         0.0787   -3.4350  -18.5492 O.2       1 RES1    0.0000
      4 O4        -4.3896   -2.6318  -18.3768 O.3       1 RES1    0.0000
      5 O5        -6.3878   -2.3184  -17.3246 O.2       1 RES1    0.0000
      6 O6        -2.5162   -1.0187  -19.7714 O.3       1 RES1    0.0000
      7 O7        -1.1596    0.7278  -19.3831 O.2       1 RES1    0.0000
      8 O8        -5.7398    0.4310  -19.0132 O.3       1 RES1    0.0000
      9 O9        -7.3498   -0.7510  -19.9804 O.2       1 RES1    0.0000
     10 O10       -3.8625    1.8915  -20.6926 O.3       1 RES1    0.0000
     11 O11       -2.4124    1.7705  -22.3605 O.2       1 RES1    0.0000
     12 O12       -6.5665    1.7714  -21.4186 O.3       1 RES1    0.0000
     13 O13       -7.6937    1.6570  -23.3139 O.2       1 RES1    0.0000
     14 N1        -0.4709   -2.5762  -17.8347 N.pl3     1 RES1    0.0000
     15 C1        -1.7972   -3.8933  -16.1943 C.3       1 RES1    0.0000
     16 C2        -1.0907   -3.2567  -15.0525 C.2       1 RES1    0.0000
     17 C3        -1.7768   -2.1982  -14.6436 C.2       1 RES1    0.0000
     18 C4        -3.0990   -2.0648  -15.5074 C.3       1 RES1    0.0000
     19 C5        -2.6760   -1.6893  -16.9341 C.3       1 RES1    0.0000
     20 C6        -1.8593   -2.9144  -17.4142 C.3       1 RES1    0.0000
     21 C7        -3.2186   -3.6422  -15.6705 C.2       1 RES1    0.0000
     22 C8        -1.5354   -5.3398  -16.5412 C.3       1 RES1    0.0000
     23 C9         0.3997   -3.7019  -13.0837 C.ar      1 RES1    0.0000
     24 C10        1.6190   -4.1180  -12.5484 C.ar      1 RES1    0.0000
     25 C11        2.6505   -4.5216  -13.3961 C.ar      1 RES1    0.0000
     26 C12        2.4637   -4.5092  -14.7791 C.ar      1 RES1    0.0000
     27 C13        1.2454   -4.0931  -15.3144 C.ar      1 RES1    0.0000
     28 C14        0.2129   -3.6894  -14.4667 C.ar      1 RES1    0.0000
     29 C15       -2.0686   -0.9110  -12.4840 C.ar      1 RES1    0.0000
     30 C16       -1.7285    0.1525  -11.6501 C.ar      1 RES1    0.0000
     31 C17       -0.7324    1.0502  -12.0337 C.ar      1 RES1    0.0000
     32 C18       -0.0759    0.8844  -13.2537 C.ar      1 RES1    0.0000
     33 C19       -0.4160   -0.1799  -14.0876 C.ar      1 RES1    0.0000
     34 C20       -1.4122   -1.0776  -13.7039 C.ar      1 RES1    0.0000
     35 C21       -5.3980   -1.8592  -14.4414 C.ar      1 RES1    0.0000
     36 C22       -6.4403   -1.0701  -13.9544 C.ar      1 RES1    0.0000
     37 C23       -6.3093    0.3183  -13.9268 C.ar      1 RES1    0.0000
     38 C24       -5.1366    0.9176  -14.3886 C.ar      1 RES1    0.0000
     39 C25       -4.0954    0.1285  -14.8756 C.ar      1 RES1    0.0000
     40 C26       -4.2264   -1.2608  -14.9032 C.ar      1 RES1    0.0000
     41 C27       -3.8764   -1.3660  -17.8094 C.3       1 RES1    0.0000
     42 C28       -5.6962   -2.9434  -18.0162 C.2       1 RES1    0.0000
     43 C29       -6.0302   -4.2050  -18.7100 C.3       1 RES1    0.0000
     44 C30       -3.5317   -0.4783  -18.9948 C.3       1 RES1    0.0000
     45 C31       -1.3516   -0.2652  -19.9758 C.2       1 RES1    0.0000
     46 C32       -0.4742   -0.9391  -20.9476 C.3       1 RES1    0.0000
     47 C33       -4.7380   -0.1931  -19.8656 C.3       1 RES1    0.0000
     48 C34       -7.1075    0.0066  -19.1166 C.2       1 RES1    0.0000
     49 C35       -7.8691    0.6432  -18.0276 C.3       1 RES1    0.0000
     50 C36       -4.4612    0.6631  -21.0740 C.3       1 RES1    0.0000
     51 C37       -2.8283    2.3872  -21.4485 C.2       1 RES1    0.0000
     52 C38       -2.3393    3.6364  -20.8764 C.3       1 RES1    0.0000
     53 C39       -5.5980    0.9002  -22.0366 C.3       1 RES1    0.0000
     54 C40       -7.7612    2.0325  -22.2135 C.2       1 RES1    0.0000
     55 C41       -8.6311    2.8382  -21.4508 C.3       1 RES1    0.0000
     56 H1        -2.0896   -0.7875  -16.9777 H         1 RES1    0.0000
     57 H2        -2.3395   -3.3405  -18.2872 H         1 RES1    0.0000
     58 H3        -0.5189   -5.4459  -16.9088 H         1 RES1    0.0000
     59 H4        -2.2242   -5.6531  -17.2994 H         1 RES1    0.0000
     60 H5        -1.6672   -5.9515  -15.6682 H         1 RES1    0.0000
     61 H6        -0.3969   -3.3902  -12.4289 H         1 RES1    0.0000
     62 H7         1.7667   -4.1279  -11.4870 H         1 RES1    0.0000
     63 H8         3.5901   -4.8408  -12.9803 H         1 RES1    0.0000
     64 H9         3.2642   -4.8242  -15.4385 H         1 RES1    0.0000
     65 H10        1.1006   -4.0865  -16.3804 H         1 RES1    0.0000
     66 H11       -2.8379   -1.6081  -12.1762 H         1 RES1    0.0000
     67 H12       -2.2416    0.2818  -10.7059 H         1 RES1    0.0000
     68 H13       -0.4726    1.8733  -11.3951 H         1 RES1    0.0000
     69 H14        0.7002    1.5832  -13.5546 H         1 RES1    0.0000
     70 H15        0.0938   -0.3067  -15.0250 H         1 RES1    0.0000
     71 H16       -5.5009   -2.9343  -14.4506 H         1 RES1    0.0000
     72 H17       -7.3498   -1.5335  -13.6006 H         1 RES1    0.0000
     73 H18       -7.1145    0.9284  -13.5546 H         1 RES1    0.0000
     74 H19       -5.0405    1.9894  -14.3587 H         1 RES1    0.0000
     75 H20       -3.1875    0.5885  -15.2317 H         1 RES1    0.0000
     76 H21       -4.5894   -0.8455  -17.1845 H         1 RES1    0.0000
     77 H22       -7.0357   -4.4926  -18.4710 H         1 RES1    0.0000
     78 H23       -5.3431   -4.9817  -18.4021 H         1 RES1    0.0000
     79 H24       -5.9459   -4.0616  -19.7806 H         1 RES1    0.0000
     80 H25       -3.1928    0.4559  -18.5629 H         1 RES1    0.0000
     81 H26        0.4214   -0.3481  -21.0901 H         1 RES1    0.0000
     82 H27       -0.9959   -1.0444  -21.8942 H         1 RES1    0.0000
     83 H28       -0.2021   -1.9148  -20.5617 H         1 RES1    0.0000
     84 H29       -5.0728   -1.1356  -20.2860 H         1 RES1    0.0000
     85 H30       -8.9028    0.3398  -18.0805 H         1 RES1    0.0000
     86 H31       -7.8085    1.7158  -18.1264 H         1 RES1    0.0000
     87 H32       -7.4621    0.3398  -17.0696 H         1 RES1    0.0000
     88 H33       -3.7819    0.0580  -21.6414 H         1 RES1    0.0000
     89 H34       -1.5275    4.0119  -21.4806 H         1 RES1    0.0000
     90 H35       -1.9914    3.4565  -19.8724 H         1 RES1    0.0000
     91 H36       -3.1419    4.3600  -20.8603 H         1 RES1    0.0000
     92 H37       -6.0605   -0.0414  -22.2847 H         1 RES1    0.0000
     93 H38       -5.2234    1.3594  -22.9280 H         1 RES1    0.0000
     94 H39       -9.5307    3.0421  -22.0090 H         1 RES1    0.0000
     95 H40       -8.1438    3.7715  -21.2049 H         1 RES1    0.0000
     96 H41       -8.8938    2.3209  -20.5387 H         1 RES1    0.0000
@<TRIPOS>BOND
     1    1   21 2
     2    2   14 2
     3    3   14 2
     4    4   41 1
     5    5   42 2
     6    6   44 1
     7    7   45 2
     8    8   47 1
     9    9   48 2
    10   10   50 1
    11   11   51 2
    12   12   53 1
    13   13   54 2
    14   14   20 1
    15   15   16 1
    16   16   17 2
    17   17   18 1
    18   18   19 1
    19   19   20 1
    20   20   15 1
    21   21   15 1
    22   22   15 1
    23   23   24 ar
    24   24   25 ar
    25   25   26 ar
    26   26   27 ar
    27   27   28 ar
    28   28   16 1
    29   29   30 ar
    30   30   31 ar
    31   31   32 ar
    32   32   33 ar
    33   33   34 ar
    34   34   17 1
    35   35   36 ar
    36   36   37 ar
    37   37   38 ar
    38   38   39 ar
    39   39   40 ar
    40   40   18 1
    41   41   19 1
    42   42    4 1
    43   43   42 1
    44   44   41 1
    45   45    6 1
    46   46   45 1
    47   47   44 1
    48   48    8 1
    49   49   48 1
    50   50   47 1
    51   51   10 1
    52   52   51 1
    53   53   50 1
    54   54   12 1
    55   55   54 1
    56   56   19 1
    57   57   20 1
    58   58   22 1
    59   59   22 1
    60   60   22 1
    61   61   23 1
    62   62   24 1
    63   63   25 1
    64   64   26 1
    65   65   27 1
    66   66   29 1
    67   67   30 1
    68   68   31 1
    69   69   32 1
    70   70   33 1
    71   71   35 1
    72   72   36 1
    73   73   37 1
    74   74   38 1
    75   75   39 1
    76   76   41 1
    77   77   43 1
    78   78   43 1
    79   79   43 1
    80   80   44 1
    81   81   46 1
    82   82   46 1
    83   83   46 1
    84   84   47 1
    85   85   49 1
    86   86   49 1
    87   87   49 1
    88   88   50 1
    89   89   52 1
    90   90   52 1
    91   91   52 1
    92   92   53 1
    93   93   53 1
    94   94   55 1
    95   95   55 1
    96   96   55 1
    97   18   21 1
    98   23   28 ar
    99   29   34 ar
   100   35   40 ar
@<TRIPOS>SUBSTRUCTURE
     1 RES1 1

@<TRIPOS>CRYSIN
  10.1490    8.2890   23.3480  90.0000 100.2700  90.0000   4 1

