# MOL2 file generated by ConQuest
# Please check atom types

@<TRIPOS>MOLECULE
ZECHEW
   147   118     2
SMALL
NO_CHARGES
****
Generated from CSD

@<TRIPOS>ATOM
      1 C1         2.8450   18.6506   14.9883 C.ar      1 RES1    0.0000
      2 C2         4.1779   18.8224   15.2790 C.ar      1 RES1    0.0000
      3 C3         5.0853   18.0842   14.5475 C.ar      1 RES1    0.0000
      4 C4         4.6975   17.1915   13.5509 C.ar      1 RES1    0.0000
      5 C5         3.3195   17.0427   13.2964 C.ar      1 RES1    0.0000
      6 C6         2.3963   17.7834   14.0326 C.ar      1 RES1    0.0000
      7 C7         1.6133   15.5306   12.3622 C.3       1 RES1    0.0000
      8 C8         0.7699   16.3326   11.3943 C.3       1 RES1    0.0000
      9 C9         1.7358   14.0833   11.9517 C.3       1 RES1    0.0000
     10 C10        5.8025   16.4241   12.8598 C.2       1 RES1    0.0000
     11 C11        5.6302   15.8883   11.5607 C.2       1 RES1    0.0000
     12 C12        6.5804   15.1395   10.8986 C.2       1 RES1    0.0000
     13 C13        6.2775   14.5423    9.5452 C.3       1 RES1    0.0000
     14 C14        4.8886   13.8816    9.3947 C.3       1 RES1    0.0000
     15 C15        4.4982   12.8620   10.4324 C.3       1 RES1    0.0000
     16 C16        4.7506   13.3273    7.9799 C.3       1 RES1    0.0000
     17 C17       10.8419   11.6889   13.8631 C.3       1 RES1    0.0000
     18 C18        9.7363   10.7843   14.1860 C.3       1 RES1    0.0000
     19 C19       12.1538   11.3348   14.5572 C.3       1 RES1    0.0000
     20 C20        8.8733   14.1508   11.0291 C.ar      1 RES1    0.0000
     21 C21        9.4855   13.3027   11.9487 C.ar      1 RES1    0.0000
     22 C22       10.6149   12.5627   11.5927 C.ar      1 RES1    0.0000
     23 C23       11.1433   12.6608   10.2854 C.ar      1 RES1    0.0000
     24 C24       10.5055   13.5411    9.4037 C.ar      1 RES1    0.0000
     25 C25        9.4065   14.2825    9.7474 C.ar      1 RES1    0.0000
     26 C26       12.3553   11.9537    9.7465 C.2       1 RES1    0.0000
     27 C27       12.9136   10.8059   10.3781 C.2       1 RES1    0.0000
     28 C28       13.9629   10.0689    9.8698 C.2       1 RES1    0.0000
     29 C29       14.4657    8.8828   10.6399 C.3       1 RES1    0.0000
     30 C30       15.6948    9.1789   11.5198 C.3       1 RES1    0.0000
     31 C31       15.3733   10.1521   12.6349 C.3       1 RES1    0.0000
     32 C32       16.2332    7.8706   12.0729 C.3       1 RES1    0.0000
     33 C33       15.4221    9.8490    7.7932 C.ar      1 RES1    0.0000
     34 C34       15.3344   10.3071    6.4782 C.ar      1 RES1    0.0000
     35 C35       16.1454    9.7783    5.5064 C.ar      1 RES1    0.0000
     36 C36       17.0864    8.7965    5.7857 C.ar      1 RES1    0.0000
     37 C37       17.2048    8.3506    7.1142 C.ar      1 RES1    0.0000
     38 C38       16.3745    8.8792    8.1072 C.ar      1 RES1    0.0000
     39 C39       17.8304    8.2372    4.6194 C.2       1 RES1    0.0000
     40 C40       19.7322    7.0298    3.8536 C.3       1 RES1    0.0000
     41 C41       20.4484    8.0491    3.0038 C.3       1 RES1    0.0000
     42 C42       20.6486    6.0592    4.5338 C.3       1 RES1    0.0000
     43 C43       18.2521    6.7718    8.6555 C.3       1 RES1    0.0000
     44 C44       17.1183    5.8065    8.8782 C.3       1 RES1    0.0000
     45 C45       19.6030    6.0927    8.6283 C.3       1 RES1    0.0000
     46 O1         2.2125   20.0819   16.6983 O.2       1 RES1    0.0000
     47 N1         1.8371   19.3939   15.7596 N.pl3     1 RES1    0.0000
     48 O2         0.6611   19.2949   15.4254 O.2       1 RES1    0.0000
     49 O3         2.9476   16.1477   12.3503 O.3       1 RES1    0.0000
     50 O4         6.8800   16.3061   13.5000 O.2       1 RES1    0.0000
     51 N2         7.7704   14.9005   11.4921 N.pl3     1 RES1    0.0000
     52 O5        12.8376   12.4209    8.6766 O.2       1 RES1    0.0000
     53 N3        14.5301   10.4493    8.6955 N.pl3     1 RES1    0.0000
     54 O6        18.1352    7.3968    7.3620 O.3       1 RES1    0.0000
     55 O7        17.3976    8.2953    3.4861 O.2       1 RES1    0.0000
     56 O8        19.0138    7.7024    4.9252 O.3       1 RES1    0.0000
     57 O9        11.2523   11.7466   12.4731 O.3       1 RES1    0.0000
     58 H1         4.4561   19.4378   15.9462 H         1 RES1    0.0000
     59 H2         6.0121   18.1811   14.7344 H         1 RES1    0.0000
     60 H3         1.4658   17.6800   13.8740 H         1 RES1    0.0000
     61 H4         1.8898   13.5404   12.7152 H         1 RES1    0.0000
     62 H5         2.4676   13.9990   11.3503 H         1 RES1    0.0000
     63 H6         0.9385   13.8047   11.5200 H         1 RES1    0.0000
     64 H7         4.8064   16.0523   11.1155 H         1 RES1    0.0000
     65 H8         9.1340   13.2289   12.8273 H         1 RES1    0.0000
     66 H9        10.8556   13.6242    8.5237 H         1 RES1    0.0000
     67 H10        9.0081   14.8774    9.1221 H         1 RES1    0.0000
     68 H11       12.5340   10.5229   11.2019 H         1 RES1    0.0000
     69 H12       13.7658    8.5800   11.2079 H         1 RES1    0.0000
     70 H13       14.6917    8.1962   10.0234 H         1 RES1    0.0000
     71 H14       16.3665    9.5707   10.9732 H         1 RES1    0.0000
     72 H15       16.1520   10.3234   13.1514 H         1 RES1    0.0000
     73 H16       15.0487   10.9667   12.2698 H         1 RES1    0.0000
     74 H17       14.7039    9.7648   13.1893 H         1 RES1    0.0000
     75 H18       16.9978    8.0362   12.6122 H         1 RES1    0.0000
     76 H19       15.5571    7.4612   12.6000 H         1 RES1    0.0000
     77 H20       16.4690    7.2931   11.3564 H         1 RES1    0.0000
     78 H21       14.7113   10.9898    6.2606 H         1 RES1    0.0000
     79 H22       16.0600   10.0885    4.6125 H         1 RES1    0.0000
     80 H23       16.4624    8.5754    9.0024 H         1 RES1    0.0000
     81 H24       19.1138    6.5548    3.3098 H         1 RES1    0.0000
     82 H25       19.8191    8.6255    2.5873 H         1 RES1    0.0000
     83 H26       21.0183    8.5569    3.5704 H         1 RES1    0.0000
     84 H27       20.9692    7.6156    2.3373 H         1 RES1    0.0000
     85 H28       20.1361    5.4335    5.0321 H         1 RES1    0.0000
     86 H29       21.2203    6.5392    5.1215 H         1 RES1    0.0000
     87 H30       21.1722    5.5971    3.8900 H         1 RES1    0.0000
     88 H31       18.2464    7.4421    9.3296 H         1 RES1    0.0000
     89 H32       16.2940    6.2798    8.9009 H         1 RES1    0.0000
     90 H33       17.2455    5.3516    9.7022 H         1 RES1    0.0000
     91 H34       17.1000    5.1754    8.1678 H         1 RES1    0.0000
     92 H35       20.2822    6.7424    8.4904 H         1 RES1    0.0000
     93 H36       19.7581    5.6421    9.4508 H         1 RES1    0.0000
     94 H37       19.6138    5.4655    7.9148 H         1 RES1    0.0000
     95 H38       12.0120   11.2667   15.4948 H         1 RES1    0.0000
     96 H39       12.7905   12.0176   14.3830 H         1 RES1    0.0000
     97 H40       12.4807   10.5065   14.2254 H         1 RES1    0.0000
     98 H41       10.5909   12.5644   14.1315 H         1 RES1    0.0000
     99 H42        3.9007   12.9246    7.8527 H         1 RES1    0.0000
    100 H43        4.8672   14.0287    7.3483 H         1 RES1    0.0000
    101 H44        5.4319   12.6760    7.8587 H         1 RES1    0.0000
    102 H45        3.6230   12.5411   10.2491 H         1 RES1    0.0000
    103 H46        4.5128   13.2676   11.2913 H         1 RES1    0.0000
    104 H47        5.1111   12.1361   10.4142 H         1 RES1    0.0000
    105 H48        4.2568   14.5896    9.4478 H         1 RES1    0.0000
    106 H49        6.3624   15.2460    8.8873 H         1 RES1    0.0000
    107 H50        6.9367   13.8809    9.3493 H         1 RES1    0.0000
    108 H51       -0.1178   15.9932   11.3640 H         1 RES1    0.0000
    109 H52        0.7544   17.2357   11.6881 H         1 RES1    0.0000
    110 H53        1.1553   16.2879   10.5263 H         1 RES1    0.0000
    111 H54        1.2475   15.5806   13.2363 H         1 RES1    0.0000
    112 H55       14.0911   11.1598    8.4298 H         1 RES1    0.0000
    113 H56        7.8279   15.1938   12.3456 H         1 RES1    0.0000
    114 H57        9.4596   10.9266   15.0843 H         1 RES1    0.0000
    115 H58       10.0241    9.8854   14.0830 H         1 RES1    0.0000
    116 H59        9.0082   10.9533   13.5998 H         1 RES1    0.0000
    117 C46        6.1413   13.1400    9.4235 Du        2 SUP2    0.0000
    118 C47        4.9704   12.6128   10.2218 Du        2 SUP2    0.0000
    119 C48        6.0163   12.6848    7.9845 Du        2 SUP2    0.0000
    120 C49       11.1976   12.8368   14.6738 Du        2 SUP2    0.0000
    121 C50       11.3934   10.3581   14.3572 Du        2 SUP2    0.0000
    122 C51        1.4816   16.1906   11.8835 Du        2 SUP2    0.0000
    123 C52        0.8254   15.3139   12.8515 Du        2 SUP2    0.0000
    124 C53        1.4861   15.6880   10.4899 Du        2 SUP2    0.0000
    125 H60        6.9774   14.8176    8.9645 Du        2 SUP2    0.0000
    126 H61        5.4548   14.9122    9.2463 Du        2 SUP2    0.0000
    127 H62        6.9352   12.7478    9.7674 Du        2 SUP2    0.0000
    128 H63        4.9259   11.6677   10.1385 Du        2 SUP2    0.0000
    129 H64        5.0713   12.8445   11.1383 Du        2 SUP2    0.0000
    130 H65        4.1713   12.9995    9.8840 Du        2 SUP2    0.0000
    131 H66        5.9483   11.7373    7.9527 Du        2 SUP2    0.0000
    132 H67        6.7593   12.9664    7.4649 Du        2 SUP2    0.0000
    133 H68        5.2207   13.0705    7.6346 Du        2 SUP2    0.0000
    134 H69        9.8960   11.6194   13.8770 Du        2 SUP2    0.0000
    135 H70       11.9543   13.2612   14.2906 Du        2 SUP2    0.0000
    136 H71       11.4007   12.5658   15.5615 Du        2 SUP2    0.0000
    137 H72       10.4659   13.4435   14.6874 Du        2 SUP2    0.0000
    138 H73       11.1652   10.2392   15.2721 Du        2 SUP2    0.0000
    139 H74       12.3390   10.3551   14.2648 Du        2 SUP2    0.0000
    140 H75       11.0210    9.6522   13.8437 Du        2 SUP2    0.0000
    141 H76        1.1339   17.0720   11.9457 Du        2 SUP2    0.0000
    142 H77       -0.1091   15.2441   12.6970 Du        2 SUP2    0.0000
    143 H78        0.9785   15.6711   13.7180 Du        2 SUP2    0.0000
    144 H79        1.2225   14.4529   12.7894 Du        2 SUP2    0.0000
    145 H80        0.6035   15.7023   10.1415 Du        2 SUP2    0.0000
    146 H81        2.0423   16.2539    9.9673 Du        2 SUP2    0.0000
    147 H82        1.8228   14.7995   10.4627 Du        2 SUP2    0.0000
@<TRIPOS>BOND
     1    1    2 ar
     2    2    3 ar
     3    3    4 ar
     4    4    5 ar
     5    5    6 ar
     6    6    1 ar
     7    7    8 1
     8    8  108 1
     9    9    7 1
    10   10    4 1
    11   11   10 1
    12   12   11 2
    13   13   12 1
    14   14   13 1
    15   15   14 1
    16   16   14 1
    17   17   18 1
    18   18  114 1
    19   19   17 1
    20   20   21 ar
    21   21   22 ar
    22   22   23 ar
    23   23   24 ar
    24   24   25 ar
    25   25   20 ar
    26   26   23 1
    27   27   26 1
    28   28   27 2
    29   29   28 1
    30   30   29 1
    31   31   30 1
    32   32   30 1
    33   33   34 ar
    34   34   35 ar
    35   35   36 ar
    36   36   37 ar
    37   37   38 ar
    38   38   33 ar
    39   39   36 1
    40   40   41 1
    41   41   82 1
    42   42   40 1
    43   43   44 1
    44   44   89 1
    45   45   43 1
    46   46   47 2
    47   47    1 1
    48   48   47 2
    49   49    5 1
    50   50   10 2
    51   51   12 1
    52   52   26 2
    53   53   28 1
    54   54   37 1
    55   55   39 2
    56   56   39 1
    57   57   17 1
    58   58    2 1
    59   59    3 1
    60   60    6 1
    61   61    9 1
    62   62    9 1
    63   63    9 1
    64   64   11 1
    65   65   21 1
    66   66   24 1
    67   67   25 1
    68   68   27 1
    69   69   29 1
    70   70   29 1
    71   71   30 1
    72   72   31 1
    73   73   31 1
    74   74   31 1
    75   75   32 1
    76   76   32 1
    77   77   32 1
    78   78   34 1
    79   79   35 1
    80   80   38 1
    81   81   40 1
    82   83   41 1
    83   84   41 1
    84   85   42 1
    85   86   42 1
    86   87   42 1
    87   88   43 1
    88   90   44 1
    89   91   44 1
    90   92   45 1
    91   93   45 1
    92   94   45 1
    93   95   19 1
    94   96   19 1
    95   97   19 1
    96   98   17 1
    97   99   16 1
    98  100   16 1
    99  101   16 1
   100  102   15 1
   101  103   15 1
   102  104   15 1
   103  105   14 1
   104  106   13 1
   105  107   13 1
   106  109    8 1
   107  110    8 1
   108  111    7 1
   109  112   53 1
   110  113   51 1
   111  115   18 1
   112  116   18 1
   113    7   49 1
   114   20   51 1
   115   22   57 1
   116   33   53 1
   117   40   56 1
   118   43   54 1
@<TRIPOS>SUBSTRUCTURE
     1 RES1 1
     2 SUP2 117

@<TRIPOS>CRYSIN
  12.1441   12.4759   15.7575  74.0392  86.7313  74.7010   2 1

