# MOL2 file generated by ConQuest
# Please check atom types

@<TRIPOS>MOLECULE
ZECHIA
   128   130     2
SMALL
NO_CHARGES
****
Generated from CSD

@<TRIPOS>ATOM
      1 N1         7.4037    1.4411   10.6588 N.pl3     1 RES1    0.0000
      2 N2         1.5383    6.7544   14.0155 N.3       1 RES1    0.0000
      3 N3         5.6339   10.2598   11.8764 N.3       2 RES2    0.0000
      4 N4        -1.0307   14.7475   14.9389 N.pl3     2 RES2    0.0000
      5 O1         6.3063    4.9301   13.8632 O.3       1 RES1    0.0000
      6 O2         8.5789    1.5192   11.0065 O.2       1 RES1    0.0000
      7 O3         7.0052    0.6392    9.8206 O.2       1 RES1    0.0000
      8 O4         2.3091    4.4033   13.0716 O.2       1 RES1    0.0000
      9 O5        -3.9766    9.4258   16.1663 O.2       1 RES1    0.0000
     10 O6        -2.5953   11.1493   15.8349 O.3       1 RES1    0.0000
     11 O7        -2.7056    7.0822   16.2648 O.3       1 RES1    0.0000
     12 O8         9.7779    9.2976    9.5361 O.3       2 RES2    0.0000
     13 O9         3.0908   10.7958   12.2128 O.2       2 RES2    0.0000
     14 O10        3.6494   13.5037   15.2714 O.3       2 RES2    0.0000
     15 O11       -2.1259   14.5144   14.4410 O.2       2 RES2    0.0000
     16 O12       -0.8408   15.6133   15.7908 O.2       2 RES2    0.0000
     17 O13        9.3188    5.3698   10.5628 O.3       2 RES2    0.0000
     18 O14       10.1860    6.6518    8.9459 O.2       2 RES2    0.0000
     19 C1         5.9514    4.0379   12.9013 C.ar      1 RES1    0.0000
     20 C2         6.8763    3.2195   12.2527 C.ar      1 RES1    0.0000
     21 C3         6.4152    2.3152   11.3103 C.ar      1 RES1    0.0000
     22 C4         5.0819    2.1723   10.9890 C.ar      1 RES1    0.0000
     23 C5         4.1778    2.9932   11.6440 C.ar      1 RES1    0.0000
     24 C6         4.5741    3.9452   12.5775 C.ar      1 RES1    0.0000
     25 C7         3.4810    4.8362   13.1362 C.2       1 RES1    0.0000
     26 C8         3.7938    6.1353   13.6333 C.2       1 RES1    0.0000
     27 C9         2.8557    7.0571   14.0584 C.2       1 RES1    0.0000
     28 C10        0.4298    7.5537   14.3978 C.ar      1 RES1    0.0000
     29 C11        0.3222    8.8999   14.0665 C.ar      1 RES1    0.0000
     30 C12       -0.7585    9.6179   14.5572 C.ar      1 RES1    0.0000
     31 C13       -1.7699    9.0269   15.3061 C.ar      1 RES1    0.0000
     32 C14       -2.9026    9.8419   15.8140 C.2       1 RES1    0.0000
     33 C15       -3.6502   12.0052   16.3268 C.3       1 RES1    0.0000
     34 C16       -1.6953    7.6403   15.5515 C.ar      1 RES1    0.0000
     35 C17       -0.5892    6.9164   15.1102 C.ar      1 RES1    0.0000
     36 C18       -2.6247    5.6861   16.5725 C.3       1 RES1    0.0000
     37 C19        3.3307    8.3618   14.6394 C.3       1 RES1    0.0000
     38 C20        3.0771    8.4904   16.1537 C.3       1 RES1    0.0000
     39 C21        3.9825    7.5703   16.9413 C.3       1 RES1    0.0000
     40 C22        3.2541    9.9434   16.5748 C.3       1 RES1    0.0000
     41 C23        7.6966    5.1273   14.2410 C.3       1 RES1    0.0000
     42 C24        7.7143    6.4732   14.9095 C.3       1 RES1    0.0000
     43 C25        8.1640    4.0186   15.1421 C.3       1 RES1    0.0000
     44 C26        9.9388   10.7011    9.2849 C.3       2 RES2    0.0000
     45 C27        8.6336    8.9085   10.1557 C.ar      2 RES2    0.0000
     46 C28        7.6868    9.8144   10.6250 C.ar      2 RES2    0.0000
     47 C29        6.5803    9.3610   11.3298 C.ar      2 RES2    0.0000
     48 C30        5.8683   11.3361   12.6725 C.2       2 RES2    0.0000
     49 C31        7.2733   11.6699   13.1061 C.3       2 RES2    0.0000
     50 C32        7.9380   10.6216   14.0118 C.3       2 RES2    0.0000
     51 C33        9.3634   11.0483   14.3078 C.3       2 RES2    0.0000
     52 C34        7.1540   10.4032   15.2982 C.3       2 RES2    0.0000
     53 C35        4.8218   12.0765   13.1658 C.2       2 RES2    0.0000
     54 C36        3.4449   11.7641   12.9300 C.2       2 RES2    0.0000
     55 C37        2.3371   12.5976   13.5291 C.ar      2 RES2    0.0000
     56 C38        2.4415   13.4381   14.6589 C.ar      2 RES2    0.0000
     57 C39        3.8328   14.2730   16.4901 C.3       2 RES2    0.0000
     58 C40        3.9712   15.7427   16.1911 C.3       2 RES2    0.0000
     59 C41        5.0936   13.6942   17.0892 C.3       2 RES2    0.0000
     60 C42        1.3269   14.1313   15.1299 C.ar      2 RES2    0.0000
     61 C43        0.1304   13.9771   14.4642 C.ar      2 RES2    0.0000
     62 C44       -0.0319   13.1558   13.3656 C.ar      2 RES2    0.0000
     63 C45        1.0850   12.4702   12.9176 C.ar      2 RES2    0.0000
     64 C46        6.3568    8.0014   11.4931 C.ar      2 RES2    0.0000
     65 C47        7.2836    7.1026   11.0079 C.ar      2 RES2    0.0000
     66 C48        8.4443    7.5254   10.3573 C.ar      2 RES2    0.0000
     67 C49        9.4161    6.5234    9.8652 C.2       2 RES2    0.0000
     68 C50       10.1177    4.2845   10.0491 C.3       2 RES2    0.0000
     69 H1         1.4156    5.9234   13.7578 H         1 RES1    0.0000
     70 H2         4.7607   10.0840   11.7783 H         2 RES2    0.0000
     71 H3         7.8018    3.2829   12.4534 H         1 RES1    0.0000
     72 H4         4.7942    1.5363   10.3453 H         1 RES1    0.0000
     73 H5         3.2544    2.9035   11.4453 H         1 RES1    0.0000
     74 H6         4.7089    6.3830   13.6774 H         1 RES1    0.0000
     75 H7         0.9733    9.3178   13.5144 H         1 RES1    0.0000
     76 H8        -0.8081   10.5498   14.3755 H         1 RES1    0.0000
     77 H9        -3.3598   12.9099   16.3114 H         1 RES1    0.0000
     78 H10       -3.8698   11.7580   17.2185 H         1 RES1    0.0000
     79 H11       -4.4158   11.9082   15.7741 H         1 RES1    0.0000
     80 H12       -0.5308    5.9861   15.2918 H         1 RES1    0.0000
     81 H13       -3.3909    5.4251   17.0715 H         1 RES1    0.0000
     82 H14       -1.8428    5.5190   17.0830 H         1 RES1    0.0000
     83 H15       -2.5885    5.1885   15.7649 H         1 RES1    0.0000
     84 H16        4.2624    8.4413   14.4835 H         1 RES1    0.0000
     85 H17        2.8747    9.0686   14.1987 H         1 RES1    0.0000
     86 H18        2.1769    8.2410   16.3252 H         1 RES1    0.0000
     87 H19        3.8053    7.6713   17.8684 H         1 RES1    0.0000
     88 H20        4.8891    7.7915   16.7661 H         1 RES1    0.0000
     89 H21        3.8213    6.6709   16.6834 H         1 RES1    0.0000
     90 H22        3.1004   10.0214   17.5079 H         1 RES1    0.0000
     91 H23        4.1387   10.2230   16.3780 H         1 RES1    0.0000
     92 H24        2.6361   10.4909   16.1047 H         1 RES1    0.0000
     93 H25        8.2388    5.1522   13.4593 H         1 RES1    0.0000
     94 H26        8.5988    6.6759   15.1862 H         1 RES1    0.0000
     95 H27        7.1402    6.4581   15.6661 H         1 RES1    0.0000
     96 H28        7.4153    7.1354   14.2975 H         1 RES1    0.0000
     97 H29        9.0742    4.1643   15.3768 H         1 RES1    0.0000
     98 H30        7.6318    4.0066   15.9302 H         1 RES1    0.0000
     99 H31        8.0805    3.1865   14.6925 H         1 RES1    0.0000
    100 H32       10.7715   10.8515    8.8527 H         2 RES2    0.0000
    101 H33        9.9195   11.1758   10.1088 H         2 RES2    0.0000
    102 H34        9.2324   11.0055    8.7287 H         2 RES2    0.0000
    103 H35        7.7969   10.7438   10.4625 H         2 RES2    0.0000
    104 H36        7.2483   12.4955   13.5764 H         2 RES2    0.0000
    105 H37        7.8064   11.7643   12.3249 H         2 RES2    0.0000
    106 H38        7.9667    9.7973   13.5397 H         2 RES2    0.0000
    107 H39        9.7762   10.4033   14.8693 H         2 RES2    0.0000
    108 H40        9.3582   11.8920   14.7453 H         2 RES2    0.0000
    109 H41        9.8486   11.1182   13.4937 H         2 RES2    0.0000
    110 H42        7.5925    9.7510   15.8315 H         2 RES2    0.0000
    111 H43        7.1006   11.2209   15.7787 H         2 RES2    0.0000
    112 H44        6.2767   10.1028   15.0874 H         2 RES2    0.0000
    113 H45        5.0216   12.8410   13.6935 H         2 RES2    0.0000
    114 H46        3.1013   14.1281   17.0784 H         2 RES2    0.0000
    115 H47        4.0889   16.2216   17.0026 H         2 RES2    0.0000
    116 H48        4.7256   15.8823   15.6294 H         2 RES2    0.0000
    117 H49        3.1860   16.0513   15.7534 H         2 RES2    0.0000
    118 H50        5.2931   14.1432   17.9028 H         2 RES2    0.0000
    119 H51        5.8126   13.8089   16.4791 H         2 RES2    0.0000
    120 H52        4.9692   12.7684   17.2621 H         2 RES2    0.0000
    121 H53        1.3913   14.6953   15.8912 H         2 RES2    0.0000
    122 H54       -0.8757   13.0639   12.9357 H         2 RES2    0.0000
    123 H55        0.9984   11.8932   12.1687 H         2 RES2    0.0000
    124 H56        5.5730    7.6913   11.9299 H         2 RES2    0.0000
    125 H57        7.1316    6.1714   11.1215 H         2 RES2    0.0000
    126 H58        9.9972    3.5145   10.5911 H         2 RES2    0.0000
    127 H59       11.0330    4.5349   10.0560 H         2 RES2    0.0000
    128 H60        9.8512    4.0904    9.1581 H         2 RES2    0.0000
@<TRIPOS>BOND
     1    1    6 2
     2    2   27 1
     3    3   47 1
     4    4   15 2
     5    5   19 1
     6    7    1 2
     7    8   25 2
     8    9   32 2
     9   10   32 1
    10   11   34 1
    11   12   44 1
    12   13   54 2
    13   14   56 1
    14   16    4 2
    15   17   67 1
    16   18   67 2
    17   19   20 ar
    18   20   21 ar
    19   21    1 1
    20   22   21 ar
    21   23   22 ar
    22   24   19 ar
    23   25   24 1
    24   26   25 1
    25   27   26 2
    26   28    2 1
    27   29   28 ar
    28   30   29 ar
    29   31   30 ar
    30   32   31 1
    31   33   10 1
    32   34   31 ar
    33   35   28 ar
    34   36   11 1
    35   37   27 1
    36   38   37 1
    37   39   38 1
    38   40   38 1
    39   41    5 1
    40   42   41 1
    41   43   41 1
    42   44  100 1
    43   45   12 1
    44   46   45 ar
    45   47   46 ar
    46   48    3 1
    47   49   48 1
    48   50   49 1
    49   51   50 1
    50   52   50 1
    51   53   48 2
    52   54   53 1
    53   55   54 1
    54   56   55 ar
    55   57   14 1
    56   58   57 1
    57   59   57 1
    58   60   56 ar
    59   61    4 1
    60   62   61 ar
    61   63   55 ar
    62   64   47 ar
    63   65   64 ar
    64   66   45 ar
    65   67   66 1
    66   68   17 1
    67   69    2 1
    68   70    3 1
    69   71   20 1
    70   72   22 1
    71   73   23 1
    72   74   26 1
    73   75   29 1
    74   76   30 1
    75   77   33 1
    76   78   33 1
    77   79   33 1
    78   80   35 1
    79   81   36 1
    80   82   36 1
    81   83   36 1
    82   84   37 1
    83   85   37 1
    84   86   38 1
    85   87   39 1
    86   88   39 1
    87   89   39 1
    88   90   40 1
    89   91   40 1
    90   92   40 1
    91   93   41 1
    92   94   42 1
    93   95   42 1
    94   96   42 1
    95   97   43 1
    96   98   43 1
    97   99   43 1
    98  101   44 1
    99  102   44 1
   100  103   46 1
   101  104   49 1
   102  105   49 1
   103  106   50 1
   104  107   51 1
   105  108   51 1
   106  109   51 1
   107  110   52 1
   108  111   52 1
   109  112   52 1
   110  113   53 1
   111  114   57 1
   112  115   58 1
   113  116   58 1
   114  117   58 1
   115  118   59 1
   116  119   59 1
   117  120   59 1
   118  121   60 1
   119  122   62 1
   120  123   63 1
   121  124   64 1
   122  125   65 1
   123  126   68 1
   124  127   68 1
   125  128   68 1
   126   23   24 ar
   127   34   35 ar
   128   60   61 ar
   129   62   63 ar
   130   65   66 ar
@<TRIPOS>SUBSTRUCTURE
     1 RES1 1
     2 RES2 3

@<TRIPOS>CRYSIN
  33.8694   12.5205   26.3455  90.0000 119.3487  90.0000  15 1

