# MOL2 file generated by ConQuest
# Please check atom types

@<TRIPOS>MOLECULE
ZEDBES
    86    92     1
SMALL
NO_CHARGES
****
Generated from CSD

@<TRIPOS>ATOM
      1 O1         6.2348    6.4877    8.8179 O.3       1 RES1    0.0000
      2 O2        -2.0281    8.5385    8.4362 O.2       1 RES1    0.0000
      3 O3        -2.3359    7.4496   10.2497 O.2       1 RES1    0.0000
      4 O4         4.0011    5.4978    7.6094 O.3       1 RES1    0.0000
      5 O5         3.7094    4.2330    9.4441 O.2       1 RES1    0.0000
      6 O6         6.4230    3.5377    5.8416 O.3       1 RES1    0.0000
      7 H1         6.3665    2.8927    5.3069 H         1 RES1    0.0000
      8 O7         6.8221    8.2733    4.6578 O.2       1 RES1    0.0000
      9 O8         0.2984    4.6532    3.6499 O.3       1 RES1    0.0000
     10 N1        -1.6424    7.8042    9.3034 N.pl3     1 RES1    0.0000
     11 C1        -1.1341    4.9422    4.3780 C.3       1 RES1    0.0000
     12 C2         1.5523    5.2814    3.8874 C.3       1 RES1    0.0000
     13 H2         1.4596    5.8929    4.6737 H         1 RES1    0.0000
     14 C3         2.0388    6.0702    2.7264 C.3       1 RES1    0.0000
     15 H3         1.6330    6.9721    2.7177 H         1 RES1    0.0000
     16 H4         1.8252    5.6123    1.8751 H         1 RES1    0.0000
     17 C4         3.5764    6.1568    2.9375 C.3       1 RES1    0.0000
     18 H5         4.0575    5.9083    2.1073 H         1 RES1    0.0000
     19 H6         3.8425    7.0740    3.1961 H         1 RES1    0.0000
     20 C5         3.8815    5.1851    4.0369 C.2       1 RES1    0.0000
     21 C6         2.6907    4.2707    4.1829 C.3       1 RES1    0.0000
     22 C7         2.7122    3.1817    3.1345 C.3       1 RES1    0.0000
     23 H7         3.4259    2.5437    3.3403 H         1 RES1    0.0000
     24 H8         2.8721    3.5796    2.2533 H         1 RES1    0.0000
     25 H9         1.8493    2.7168    3.1293 H         1 RES1    0.0000
     26 C8         4.9688    5.1726    4.7616 C.2       1 RES1    0.0000
     27 C9         5.1395    4.2009    5.9313 C.3       1 RES1    0.0000
     28 C10        4.0105    3.1803    5.9771 C.3       1 RES1    0.0000
     29 H10        4.1570    2.2798    6.2409 H         1 RES1    0.0000
     30 C11        2.6423    3.6815    5.5743 C.3       1 RES1    0.0000
     31 H11        2.3399    4.3712    6.2163 H         1 RES1    0.0000
     32 H12        1.9945    2.9346    5.5971 H         1 RES1    0.0000
     33 C12        6.1676    6.0367    4.4362 C.2       1 RES1    0.0000
     34 H13        6.7778    5.7840    3.7537 H         1 RES1    0.0000
     35 C13        6.3746    7.3323    5.2313 C.2       1 RES1    0.0000
     36 C14        6.0157    7.3602    6.6578 C.3       1 RES1    0.0000
     37 H14        5.0319    7.5292    6.7141 H         1 RES1    0.0000
     38 C15        6.3047    6.0144    7.4265 C.3       1 RES1    0.0000
     39 C16        5.2658    4.9087    7.2840 C.3       1 RES1    0.0000
     40 H15        5.4647    4.2134    7.9753 H         1 RES1    0.0000
     41 C17        6.7039    8.3515    7.5954 C.3       1 RES1    0.0000
     42 C18        7.2818    7.4468    8.6789 C.3       1 RES1    0.0000
     43 H16        7.5398    7.9145    9.5250 H         1 RES1    0.0000
     44 C19        8.3892    6.6426    8.0281 C.3       1 RES1    0.0000
     45 H17        9.3247    6.7627    8.1459 H         1 RES1    0.0000
     46 C20        7.7831    5.7268    7.2541 C.3       1 RES1    0.0000
     47 H18        8.0008    4.8096    7.5549 H         1 RES1    0.0000
     48 H19        8.0559    5.8273    6.3078 H         1 RES1    0.0000
     49 C21        7.4108    9.6219    7.2963 C.3       1 RES1    0.0000
     50 H20        7.4269    9.9291    6.3553 H         1 RES1    0.0000
     51 H21        8.2266    9.8285    7.8170 H         1 RES1    0.0000
     52 C22        6.1071    9.6512    8.0105 C.3       1 RES1    0.0000
     53 H22        5.3155    9.9751    7.5127 H         1 RES1    0.0000
     54 H23        6.1152    9.8746    8.9744 H         1 RES1    0.0000
     55 C23        3.3412    5.1083    8.6789 C.2       1 RES1    0.0000
     56 C24        2.0671    5.8594    8.8513 C.ar      1 RES1    0.0000
     57 C25        1.1451    5.4169    9.7712 C.ar      1 RES1    0.0000
     58 H24        1.3306    4.6476   10.2972 H         1 RES1    0.0000
     59 C26       -0.0578    6.0940    9.9278 C.ar      1 RES1    0.0000
     60 H25       -0.6854    5.8120   10.5839 H         1 RES1    0.0000
     61 C27       -0.3158    7.1341    9.1574 C.ar      1 RES1    0.0000
     62 C28        0.5510    7.6478    8.2515 C.ar      1 RES1    0.0000
     63 H26        0.3414    8.4199    7.7414 H         1 RES1    0.0000
     64 C29        1.7754    6.9805    8.1072 C.ar      1 RES1    0.0000
     65 H27        2.4152    7.3086    7.4863 H         1 RES1    0.0000
     66 C30       -2.3157    3.5964    3.7080 C.3       1 RES1    0.0000
     67 C31       -2.3251    3.6536    2.1987 C.3       1 RES1    0.0000
     68 H28       -2.9232    2.9611    1.8487 H         1 RES1    0.0000
     69 H29       -1.4179    3.5014    1.8610 H         1 RES1    0.0000
     70 H30       -2.6396    4.5345    1.9068 H         1 RES1    0.0000
     71 C32       -1.7015    2.2561    4.1037 C.3       1 RES1    0.0000
     72 H31       -2.2714    1.5273    3.7801 H         1 RES1    0.0000
     73 H32       -1.6303    2.2044    5.0800 H         1 RES1    0.0000
     74 H33       -0.8091    2.1751    3.7062 H         1 RES1    0.0000
     75 C33       -3.6664    3.7304    4.2990 C.3       1 RES1    0.0000
     76 H34       -4.2497    3.0281    3.9437 H         1 RES1    0.0000
     77 H35       -4.0360    4.6099    4.0703 H         1 RES1    0.0000
     78 H36       -3.6060    3.6438    5.2735 H         1 RES1    0.0000
     79 C34       -1.6397    6.6412    3.8856 C.3       1 RES1    0.0000
     80 H37       -1.0053    7.2904    4.2568 H         1 RES1    0.0000
     81 H38       -2.5375    6.8283    4.2322 H         1 RES1    0.0000
     82 H39       -1.6451    6.7111    2.9094 H         1 RES1    0.0000
     83 C35       -0.9368    4.7998    6.2251 C.3       1 RES1    0.0000
     84 H40       -0.3333    5.5034    6.5435 H         1 RES1    0.0000
     85 H41       -0.5618    3.9230    6.4467 H         1 RES1    0.0000
     86 H42       -1.8117    4.9003    6.6543 H         1 RES1    0.0000
@<TRIPOS>BOND
     1    1   38 1
     2    2   10 2
     3    3   10 2
     4    4   39 1
     5    5   55 2
     6    6    7 1
     7    8   35 1
     8    9   11 1
     9   10   61 1
    10   11   66 1
    11   12    9 1
    12   13   12 1
    13   14   12 1
    14   15   14 1
    15   16   14 1
    16   17   14 1
    17   18   17 1
    18   19   17 1
    19   20   17 1
    20   21   12 1
    21   22   21 1
    22   23   22 1
    23   24   22 1
    24   25   22 1
    25   26   20 2
    26   27    6 1
    27   28   27 1
    28   29   28 1
    29   30   21 1
    30   31   30 1
    31   32   30 1
    32   33   26 1
    33   34   33 1
    34   35   33 2
    35   36   35 1
    36   37   36 1
    37   38   36 1
    38   39   27 1
    39   40   39 1
    40   41   36 1
    41   42    1 1
    42   43   42 1
    43   44   42 1
    44   45   44 1
    45   46   38 1
    46   47   46 1
    47   48   46 1
    48   49   41 1
    49   50   49 1
    50   51   49 1
    51   52   41 1
    52   53   52 1
    53   54   52 1
    54   55    4 1
    55   56   55 1
    56   57   56 ar
    57   58   57 1
    58   59   57 ar
    59   60   59 1
    60   61   59 ar
    61   62   61 ar
    62   63   62 1
    63   64   56 ar
    64   65   64 1
    65   66   67 1
    66   67   68 1
    67   69   67 1
    68   70   67 1
    69   71   66 1
    70   72   71 1
    71   73   71 1
    72   74   71 1
    73   75   66 1
    74   76   75 1
    75   77   75 1
    76   78   75 1
    77   79   11 1
    78   80   79 1
    79   81   79 1
    80   82   79 1
    81   83   11 1
    82   84   83 1
    83   85   83 1
    84   86   83 1
    85   20   21 1
    86   26   27 1
    87   28   30 1
    88   38   39 1
    89   41   42 1
    90   44   46 1
    91   49   52 1
    92   62   64 ar
@<TRIPOS>SUBSTRUCTURE
     1 RES1 1

@<TRIPOS>CRYSIN
  13.4400   13.9610   17.5900  90.0000  90.0000  90.0000  19 1

