# MOL2 file generated by ConQuest
# Please check atom types

@<TRIPOS>MOLECULE
ZEDLAV
    37    39     1
SMALL
NO_CHARGES
****
Generated from CSD

@<TRIPOS>ATOM
      1 N1         5.2802    8.9715    1.7181 N.pl3     1 RES1    0.0000
      2 C1         3.9296    8.3475    1.6017 C.3       1 RES1    0.0000
      3 C2         3.3098    8.1484    3.0169 C.3       1 RES1    0.0000
      4 C3         3.5675    9.3122    3.9411 C.2       1 RES1    0.0000
      5 C4         4.9116   10.0224    3.8686 C.3       1 RES1    0.0000
      6 C5         5.9094    9.2670    2.9938 C.3       1 RES1    0.0000
      7 C6         1.8360    7.8098    2.9244 C.3       1 RES1    0.0000
      8 C7         4.6689   11.4714    3.3329 C.3       1 RES1    0.0000
      9 C8         6.4470    8.0417    3.6682 C.2       1 RES1    0.0000
     10 O1         7.4607    7.3787    3.0578 O.3       1 RES1    0.0000
     11 C9         7.7855    6.3381    3.9357 C.2       1 RES1    0.0000
     12 C10        7.0350    6.3628    4.9917 C.2       1 RES1    0.0000
     13 C11        6.1474    7.4732    4.8360 C.2       1 RES1    0.0000
     14 C12        4.0220    7.0709    0.8309 C.2       1 RES1    0.0000
     15 O2         4.7967    6.0692    1.2726 O.3       1 RES1    0.0000
     16 C13        4.5783    5.0615    0.2235 C.2       1 RES1    0.0000
     17 C14        3.6785    5.4986   -0.5550 C.2       1 RES1    0.0000
     18 C15        3.3089    6.7466   -0.1835 C.2       1 RES1    0.0000
     19 O3         2.7461    9.6652    4.7566 O.2       1 RES1    0.0000
     20 N2         5.8197    9.5626    0.6698 N.2       1 RES1    0.0000
     21 O4         5.1813    9.4456   -0.3893 O.2       1 RES1    0.0000
     22 H1         3.3714    8.9571    0.7762 H         1 RES1    0.0000
     23 H2         3.9931    7.3952    2.9984 H         1 RES1    0.0000
     24 H3         5.0814   10.1783    5.0372 H         1 RES1    0.0000
     25 H4         6.6225    9.9423    2.6569 H         1 RES1    0.0000
     26 H5         1.0547    7.7112    3.6813 H         1 RES1    0.0000
     27 H6         2.0115    7.0483    2.2592 H         1 RES1    0.0000
     28 H7         1.1238    8.7108    2.7479 H         1 RES1    0.0000
     29 H8         5.6275   11.9989    3.0693 H         1 RES1    0.0000
     30 H9         3.9296   12.0194    3.8101 H         1 RES1    0.0000
     31 H10        4.7249   11.1861    2.3062 H         1 RES1    0.0000
     32 H11        8.7852    6.1041    3.9527 H         1 RES1    0.0000
     33 H12        6.5095    5.9050    5.8789 H         1 RES1    0.0000
     34 H13        5.1608    7.7153    5.3563 H         1 RES1    0.0000
     35 H14        5.0516    4.2405    0.1002 H         1 RES1    0.0000
     36 H15        3.2958    4.9671   -1.3065 H         1 RES1    0.0000
     37 H16        2.9561    7.4834   -0.5473 H         1 RES1    0.0000
@<TRIPOS>BOND
     1    1    2 1
     2    2    3 1
     3    3    4 1
     4    4    5 1
     5    5    6 1
     6    6    1 1
     7    7    3 1
     8    8    5 1
     9    9    6 1
    10   10    9 1
    11   11   10 1
    12   12   11 2
    13   13    9 2
    14   14    2 1
    15   15   14 1
    16   16   15 1
    17   17   16 2
    18   18   14 2
    19   19    4 2
    20   20    1 1
    21   21   20 2
    22   22    2 1
    23   23    3 1
    24   24    5 1
    25   25    6 1
    26   26    7 1
    27   27    7 1
    28   28    7 1
    29   29    8 1
    30   30    8 1
    31   31    8 1
    32   32   11 1
    33   33   12 1
    34   34   13 1
    35   35   16 1
    36   36   17 1
    37   37   18 1
    38   12   13 1
    39   17   18 1
@<TRIPOS>SUBSTRUCTURE
     1 RES1 1

@<TRIPOS>CRYSIN
   9.3340   20.5250    7.7080  90.0000  90.0000  90.0000  19 1

