# MOL2 file generated by ConQuest
# Please check atom types

@<TRIPOS>MOLECULE
ZEDLUS
    49    50     1
SMALL
NO_CHARGES
****
Generated from CSD

@<TRIPOS>ATOM
      1 N1        -0.3565    4.3161    3.8648 N.am      1 RES1    0.0000
      2 N2        -1.4980    3.5943    4.1854 N.2       1 RES1    0.0000
      3 N3        -1.3871    5.4705   -1.4516 N.pl3     1 RES1    0.0000
      4 N4         0.9852    3.8268    5.7367 N.am      1 RES1    0.0000
      5 O1         4.7527    7.8163    1.6376 O.2       1 RES1    0.0000
      6 O2         4.0657    6.8716    3.5210 O.3       1 RES1    0.0000
      7 O3         0.6208    5.9673    5.0972 O.2       1 RES1    0.0000
      8 O4        -2.4353    5.0139   -1.8834 O.2       1 RES1    0.0000
      9 O5        -0.5982    6.0899   -2.1326 O.2       1 RES1    0.0000
     10 C1        -2.2122    3.5673    3.0925 C.2       1 RES1    0.0000
     11 C2        -1.5968    4.2706    2.0296 C.ar      1 RES1    0.0000
     12 C3        -1.9428    4.4975    0.7092 C.ar      1 RES1    0.0000
     13 C4        -1.0737    5.2292   -0.0415 C.ar      1 RES1    0.0000
     14 C5         0.1226    5.7300    0.4650 C.ar      1 RES1    0.0000
     15 C6         0.5152    5.5087    1.7771 C.ar      1 RES1    0.0000
     16 C7        -0.4054    4.7683    2.5660 C.ar      1 RES1    0.0000
     17 C8         1.7922    5.9967    2.2887 C.2       1 RES1    0.0000
     18 C9         2.7306    6.6168    1.6326 C.2       1 RES1    0.0000
     19 C10        3.9467    7.1647    2.2322 C.2       1 RES1    0.0000
     20 C11        5.2122    7.4103    4.2053 C.3       1 RES1    0.0000
     21 C12        0.4667    4.7723    4.9560 C.2       1 RES1    0.0000
     22 C13        0.9092    2.3689    5.4709 C.3       1 RES1    0.0000
     23 C14        0.0367    1.6802    6.4957 C.3       1 RES1    0.0000
     24 C15        2.2924    1.7420    5.3879 C.3       1 RES1    0.0000
     25 C16        1.6873    4.2574    6.9640 C.3       1 RES1    0.0000
     26 C17        0.7805    5.0458    7.8891 C.3       1 RES1    0.0000
     27 C18        2.9917    4.9708    6.6568 C.3       1 RES1    0.0000
     28 H1        -3.0322    3.1347    3.0195 H         1 RES1    0.0000
     29 H2        -2.7330    4.1640    0.3488 H         1 RES1    0.0000
     30 H3         0.6752    6.2281   -0.0930 H         1 RES1    0.0000
     31 H4         1.9554    5.8461    3.1922 H         1 RES1    0.0000
     32 H5         2.6196    6.7188    0.7142 H         1 RES1    0.0000
     33 H6         5.9916    7.3069    3.6556 H         1 RES1    0.0000
     34 H7         5.3401    6.9415    5.0324 H         1 RES1    0.0000
     35 H8         5.0690    8.3422    4.3847 H         1 RES1    0.0000
     36 H9         0.4822    2.2531    4.5956 H         1 RES1    0.0000
     37 H10        0.4294    1.7769    7.3660 H         1 RES1    0.0000
     38 H11       -0.0356    0.7479    6.2781 H         1 RES1    0.0000
     39 H12       -0.8367    2.0786    6.4923 H         1 RES1    0.0000
     40 H13        2.8222    2.2176    4.7451 H         1 RES1    0.0000
     41 H14        2.2115    0.8237    5.1188 H         1 RES1    0.0000
     42 H15        2.7157    1.7871    6.2482 H         1 RES1    0.0000
     43 H16        1.9273    3.4389    7.4457 H         1 RES1    0.0000
     44 H17        0.5937    5.9041    7.4988 H         1 RES1    0.0000
     45 H18        1.2152    5.1674    8.7362 H         1 RES1    0.0000
     46 H19       -0.0414    4.5668    8.0154 H         1 RES1    0.0000
     47 H20        3.5353    4.4152    6.0937 H         1 RES1    0.0000
     48 H21        3.4586    5.1503    7.4756 H         1 RES1    0.0000
     49 H22        2.8057    5.7981    6.2067 H         1 RES1    0.0000
@<TRIPOS>BOND
     1    1    2 1
     2    2   10 2
     3    3    8 2
     4    4   21 1
     5    5   19 2
     6    6   19 1
     7    7   21 2
     8    9    3 2
     9   10   11 1
    10   11   12 ar
    11   12   13 ar
    12   13    3 1
    13   14   13 ar
    14   15   14 ar
    15   16    1 1
    16   17   15 1
    17   18   17 2
    18   19   18 1
    19   20    6 1
    20   21    1 1
    21   22    4 1
    22   23   22 1
    23   24   22 1
    24   25    4 1
    25   26   25 1
    26   27   25 1
    27   28   10 1
    28   29   12 1
    29   30   14 1
    30   31   17 1
    31   32   18 1
    32   33   20 1
    33   34   20 1
    34   35   20 1
    35   36   22 1
    36   37   23 1
    37   38   23 1
    38   39   23 1
    39   40   24 1
    40   41   24 1
    41   42   24 1
    42   43   25 1
    43   44   26 1
    44   45   26 1
    45   46   26 1
    46   47   27 1
    47   48   27 1
    48   49   27 1
    49   11   16 ar
    50   15   16 ar
@<TRIPOS>SUBSTRUCTURE
     1 RES1 1

@<TRIPOS>CRYSIN
   7.5054    7.5538   16.8470  97.0460  96.4190  91.1100   2 1

