# MOL2 file generated by ConQuest
# Please check atom types

@<TRIPOS>MOLECULE
ZEDQAA
    23    24     1
SMALL
NO_CHARGES
****
Generated from CSD

@<TRIPOS>ATOM
      1 O1         1.3758    6.0612    2.1280 O.2       1 RES1    0.0000
      2 N1         0.6416    5.2108    3.9775 N.pl3     1 RES1    0.0000
      3 N2         0.8107    5.1026    2.6503 N.2       1 RES1    0.0000
      4 N3         0.0516    4.1322    5.9376 N.ar      1 RES1    0.0000
      5 N4         2.4232    6.4435    4.8801 N.ar      1 RES1    0.0000
      6 C1        -0.0854    4.1796    4.6189 C.ar      1 RES1    0.0000
      7 C2        -0.8757    3.3247    3.8828 C.ar      1 RES1    0.0000
      8 C3        -1.5564    2.3380    4.5587 C.ar      1 RES1    0.0000
      9 C4        -1.4443    2.2668    5.9347 C.ar      1 RES1    0.0000
     10 C5        -0.6550    3.1721    6.5790 C.ar      1 RES1    0.0000
     11 C6         1.1035    6.3620    4.7050 C.ar      1 RES1    0.0000
     12 C7         0.1922    7.2687    5.1714 C.ar      1 RES1    0.0000
     13 C8         0.6594    8.3488    5.9017 C.ar      1 RES1    0.0000
     14 C9         2.0183    8.4718    6.0983 C.ar      1 RES1    0.0000
     15 C10        2.8477    7.5162    5.5631 C.ar      1 RES1    0.0000
     16 H1        -0.9611    3.4225    2.8124 H         1 RES1    0.0000
     17 H2        -2.1714    1.6298    4.0177 H         1 RES1    0.0000
     18 H3        -1.9756    1.5112    6.4857 H         1 RES1    0.0000
     19 H4        -0.5962    3.1262    7.6624 H         1 RES1    0.0000
     20 H5        -0.8632    7.1413    4.9791 H         1 RES1    0.0000
     21 H6        -0.0267    9.0822    6.3136 H         1 RES1    0.0000
     22 H7         2.4205    9.3044    6.6579 H         1 RES1    0.0000
     23 H8         3.9156    7.6302    5.6966 H         1 RES1    0.0000
@<TRIPOS>BOND
     1    1    3 2
     2    2    3 1
     3    4    6 ar
     4    5   11 ar
     5    6    2 1
     6    7    6 ar
     7    8    7 ar
     8    9    8 ar
     9   10    4 ar
    10   11    2 1
    11   12   11 ar
    12   13   12 ar
    13   14   13 ar
    14   15    5 ar
    15   16    7 1
    16   17    8 1
    17   18    9 1
    18   19   10 1
    19   20   12 1
    20   21   13 1
    21   22   14 1
    22   23   15 1
    23    9   10 ar
    24   14   15 ar
@<TRIPOS>SUBSTRUCTURE
     1 RES1 1

@<TRIPOS>CRYSIN
   8.8990   14.8160   14.3490  90.0000  90.0000  90.0000  61 1

