# MOL2 file generated by ConQuest
# Please check atom types

@<TRIPOS>MOLECULE
ZEGFIC
    53    47     2
SMALL
NO_CHARGES
****
Generated from CSD

@<TRIPOS>ATOM
      1 O1        10.3492    2.5258   10.9322 O.3       1 RES1    0.0000
      2 N1         9.6367    3.5078   11.6872 N.2       1 RES1    0.0000
      3 C1         9.8188    4.6576   11.1421 C.2       1 RES1    0.0000
      4 N2        10.6134    4.8594   10.0416 N.3       1 RES1    0.0000
      5 C2        10.5870    6.0507    9.2958 C.2       1 RES1    0.0000
      6 C3        11.5898    6.1168    8.2057 C.ar      1 RES1    0.0000
      7 C4        12.7087    5.2810    8.2096 C.ar      1 RES1    0.0000
      8 C5        13.6341    5.3137    7.1638 C.ar      1 RES1    0.0000
      9 C6        13.4671    6.1962    6.1194 C.ar      1 RES1    0.0000
     10 C7        12.3694    7.0342    6.1102 C.ar      1 RES1    0.0000
     11 C8        11.4266    6.9919    7.1299 C.ar      1 RES1    0.0000
     12 C9         9.6954    7.0038    9.5800 C.2       1 RES1    0.0000
     13 C10        8.6574    6.8375   10.6649 C.3       1 RES1    0.0000
     14 C11        9.1772    5.8733   11.7550 C.3       1 RES1    0.0000
     15 C12       10.1469    6.5814   12.6938 C.2       1 RES1    0.0000
     16 O2        10.4724    7.7430   12.6260 O.2       1 RES1    0.0000
     17 C13        7.2835    6.3929   10.1498 C.ar      1 RES1    0.0000
     18 C14        6.1969    6.4530   11.0261 C.ar      1 RES1    0.0000
     19 C15        4.9232    6.0671   10.6127 C.ar      1 RES1    0.0000
     20 C16        4.7228    5.6136    9.3258 C.ar      1 RES1    0.0000
     21 C17        5.7874    5.5527    8.4469 C.ar      1 RES1    0.0000
     22 C18        7.0709    5.9394    8.8576 C.ar      1 RES1    0.0000
     23 O3        10.7143    5.7071   13.5323 O.3       1 RES1    0.0000
     24 C19       11.5740    6.2400   14.5989 C.3       1 RES1    0.0000
     25 C20       10.7707    6.3491   15.8650 C.3       1 RES1    0.0000
     26 H1        12.8626    4.6820    8.9489 H         1 RES1    0.0000
     27 H2        14.3912    4.7385    7.1834 H         1 RES1    0.0000
     28 H3        14.1020    6.2244    5.3996 H         1 RES1    0.0000
     29 H4        12.2295    7.6362    5.3761 H         1 RES1    0.0000
     30 H5        10.6556    7.5382    7.0947 H         1 RES1    0.0000
     31 H6         9.7341    7.8173    9.1067 H         1 RES1    0.0000
     32 H7         8.5558    7.7267   11.1213 H         1 RES1    0.0000
     33 H8         8.4477    5.5549   12.3066 H         1 RES1    0.0000
     34 H9         6.3500    6.7611   11.9089 H         1 RES1    0.0000
     35 H10        4.2010    6.1175   11.2191 H         1 RES1    0.0000
     36 H11        3.8615    5.3315    9.0650 H         1 RES1    0.0000
     37 H12        5.6431    5.2692    7.5641 H         1 RES1    0.0000
     38 H13        7.8017    5.8956    8.2318 H         1 RES1    0.0000
     39 H14       12.3245    5.6366   14.7227 H         1 RES1    0.0000
     40 H15       11.8885    7.1307   14.3355 H         1 RES1    0.0000
     41 H16       11.2934    6.7047   16.5991 H         1 RES1    0.0000
     42 H17       10.4413    5.4755   16.1154 H         1 RES1    0.0000
     43 H18       10.0228    6.9333   15.7085 H         1 RES1    0.0000
     44 H19       10.9593    4.1528    9.6987 H         1 RES1    0.0000
     45 H20       10.2492    1.8452   11.4042 H         1 RES1    0.0000
     46 C21       11.2210    6.3840   14.8310 Du        2 SUP2    0.0000
     47 C22       12.6696    6.3818   14.4476 Du        2 SUP2    0.0000
     48 H21       11.0943    5.8370   15.6159 Du        2 SUP2    0.0000
     49 H22       10.9090    7.2947   15.0318 Du        2 SUP2    0.0000
     50 H23       12.9323    5.5334   14.0956 Du        2 SUP2    0.0000
     51 H24       13.2044    6.5762   15.2378 Du        2 SUP2    0.0000
     52 H25       12.8221    7.0505   13.7904 Du        2 SUP2    0.0000
     53 O4        10.4340    5.8013   13.7331 Du        2 SUP2    0.0000
@<TRIPOS>BOND
     1    1    2 1
     2    2    3 2
     3    3    4 1
     4    4    5 1
     5    5    6 1
     6    6    7 ar
     7    7    8 ar
     8    8    9 ar
     9    9   10 ar
    10   10   11 ar
    11   11    6 ar
    12   12    5 2
    13   13   12 1
    14   14    3 1
    15   15   14 1
    16   16   15 2
    17   17   13 1
    18   18   17 ar
    19   19   18 ar
    20   20   19 ar
    21   21   20 ar
    22   22   17 ar
    23   23   15 1
    24   24   23 1
    25   25   24 1
    26   26    7 1
    27   27    8 1
    28   28    9 1
    29   29   10 1
    30   30   11 1
    31   31   12 1
    32   32   13 1
    33   33   14 1
    34   34   18 1
    35   35   19 1
    36   36   20 1
    37   37   21 1
    38   38   22 1
    39   39   24 1
    40   40   24 1
    41   41   25 1
    42   42   25 1
    43   43   25 1
    44   44    4 1
    45   45    1 1
    46   13   14 1
    47   21   22 ar
@<TRIPOS>SUBSTRUCTURE
     1 RES1 1
     2 SUP2 46

@<TRIPOS>CRYSIN
  17.6423    7.4224   13.8157  90.0000 109.2988  90.0000   5 1

