# MOL2 file generated by ConQuest
# Please check atom types

@<TRIPOS>MOLECULE
ZEGMOQ
   384   404     1
SMALL
NO_CHARGES
****
Generated from CSD

@<TRIPOS>ATOM
      1 N1        10.2047   11.1032   25.4333 N.am      1 RES1    0.0000
      2 H1        10.7101   10.7256   26.0461 H         1 RES1    0.0000
      3 O1         4.5937    3.7878   25.5216 O.3       1 RES1    0.0000
      4 O2         3.6947    8.1055   25.3709 O.3       1 RES1    0.0000
      5 O3         8.8106    6.7063   18.0529 O.2       1 RES1    0.0000
      6 O4         7.5377    3.8404   32.3626 O.2       1 RES1    0.0000
      7 O5         8.0739    1.6403   28.6178 O.2       1 RES1    0.0000
      8 O6         4.8747    5.4698   21.0481 O.3       1 RES1    0.0000
      9 O7         6.9425    7.4299   32.9360 O.3       1 RES1    0.0000
     10 O8         3.8104    5.8932   29.5786 O.3       1 RES1    0.0000
     11 O9        15.9371   11.3731   16.4072 O.2       1 RES1    0.0000
     12 O10       14.5322    9.7943   16.7840 O.2       1 RES1    0.0000
     13 O11       12.8687    6.8252   33.2909 O.3       1 RES1    0.0000
     14 N2        13.0720    9.7423   19.0359 N.pl3     1 RES1    0.0000
     15 H2        13.3541    9.2072   18.3970 H         1 RES1    0.0000
     16 O12        5.5373    9.6977   28.9856 O.3       1 RES1    0.0000
     17 N3         9.0359    5.2973   21.2692 N.ar      1 RES1    0.0000
     18 N4        15.0444   10.8754   17.0888 N.pl3     1 RES1    0.0000
     19 N5        10.6111    6.0022   19.2656 N.am      1 RES1    0.0000
     20 H3        10.8123    5.6339   20.0394 H         1 RES1    0.0000
     21 O13       17.0261    0.0049   35.5992 O.2       1 RES1    0.0000
     22 N6         8.7175    3.2941   25.5748 N.ar      1 RES1    0.0000
     23 N7         7.7988    7.5308   24.9549 N.ar      1 RES1    0.0000
     24 N8         9.1183    8.3209   22.7542 N.am      1 RES1    0.0000
     25 H4         9.4236    7.8685   23.4441 H         1 RES1    0.0000
     26 N9        15.1048    7.0385   16.0905 N.pl3     1 RES1    0.0000
     27 H5        15.5639    7.7869   16.1520 H         1 RES1    0.0000
     28 N10        7.9251    5.3631   29.2114 N.ar      1 RES1    0.0000
     29 N11       10.0182    2.0513   27.4897 N.am      1 RES1    0.0000
     30 H6        10.3193    2.5163   26.8062 H         1 RES1    0.0000
     31 O14       15.4951    1.5190   35.8498 O.2       1 RES1    0.0000
     32 O15       17.2232    8.2902   15.0803 O.2       1 RES1    0.0000
     33 N12       17.3870    7.4137   14.2334 N.pl3     1 RES1    0.0000
     34 O16       18.2450    7.4935   13.3606 O.2       1 RES1    0.0000
     35 N13        9.4076    4.2318   31.1103 N.am      1 RES1    0.0000
     36 H7         9.6530    4.5807   30.3405 H         1 RES1    0.0000
     37 O17       16.1787   15.1952   18.9659 O.2       1 RES1    0.0000
     38 N14       14.1193   -0.7508   30.1137 N.pl3     1 RES1    0.0000
     39 H8        14.4694   -1.4444   29.6995 H         1 RES1    0.0000
     40 O18       11.4248    6.0324   34.8041 O.2       1 RES1    0.0000
     41 N15       16.0413    0.6286   35.1842 N.pl3     1 RES1    0.0000
     42 O19       16.3073   -2.2507   30.0191 O.2       1 RES1    0.0000
     43 O20       14.6810   15.7035   20.4406 O.2       1 RES1    0.0000
     44 O21       17.6509   -2.3435   31.7000 O.2       1 RES1    0.0000
     45 N16       13.7283    2.0405   33.9127 N.pl3     1 RES1    0.0000
     46 H9        13.9883    2.3152   34.7070 H         1 RES1    0.0000
     47 C1        11.7050    6.3008   18.4430 C.ar      1 RES1    0.0000
     48 N17       10.9058    7.6716   31.7010 N.ar      1 RES1    0.0000
     49 O22        7.2021    9.2247   21.9202 O.2       1 RES1    0.0000
     50 O23        6.0885    1.0963   22.1244 O.3       1 RES1    0.0000
     51 N18        9.4847    9.8754   27.6915 N.ar      1 RES1    0.0000
     52 N19       15.1922   14.9037   19.6514 N.pl3     1 RES1    0.0000
     53 C2        14.1245    6.2417   18.1727 C.ar      1 RES1    0.0000
     54 C3        13.6034   10.9807   19.1481 C.ar      1 RES1    0.0000
     55 O24        8.0302   11.2707   24.8271 O.2       1 RES1    0.0000
     56 C4         8.8925    4.3808   23.4617 C.ar      1 RES1    0.0000
     57 C5        13.9523    6.8470   16.9152 C.ar      1 RES1    0.0000
     58 C6        11.5772    6.9129   17.2007 C.ar      1 RES1    0.0000
     59 H10       10.7146    7.1519   16.8823 H         1 RES1    0.0000
     60 O25        9.1152    2.8954   18.4812 O.2       1 RES1    0.0000
     61 C7         8.2466    4.8967   22.3146 C.ar      1 RES1    0.0000
     62 O26        6.9965   -1.1130   26.4340 O.3       1 RES1    0.0000
     63 C8         7.9650    2.8423   26.5661 C.ar      1 RES1    0.0000
     64 C9         6.6746    4.0301   24.4689 C.ar      1 RES1    0.0000
     65 C10        9.3016    6.1923   19.0485 C.2       1 RES1    0.0000
     66 C11       13.9770    0.5803   32.0725 C.ar      1 RES1    0.0000
     67 H11       13.1983    0.9810   31.7026 H         1 RES1    0.0000
     68 N20       16.6206   -1.9085   31.1708 N.pl3     1 RES1    0.0000
     69 C12       12.9674    5.9790   18.9124 C.ar      1 RES1    0.0000
     70 H12       13.0509    5.5681   19.7645 H         1 RES1    0.0000
     71 C13       10.0764    8.6374   21.7785 C.ar      1 RES1    0.0000
     72 O27       15.7631    2.0584   12.2969 O.2       1 RES1    0.0000
     73 C14       12.6934    7.1808   16.4202 C.ar      1 RES1    0.0000
     74 C15       13.0305   -0.0395   29.4700 C.ar      1 RES1    0.0000
     75 N21       14.3611    2.6964   14.4857 N.pl3     1 RES1    0.0000
     76 H13       14.4194    2.0755   13.8648 H         1 RES1    0.0000
     77 C16        8.0924    3.8974   24.5207 C.ar      1 RES1    0.0000
     78 N22       13.1557   13.7692   21.4966 N.pl3     1 RES1    0.0000
     79 H14       13.3120   14.6325   21.5606 H         1 RES1    0.0000
     80 C17       14.5621   11.5456   18.2537 C.ar      1 RES1    0.0000
     81 C18        5.9246    3.5632   25.5977 C.ar      1 RES1    0.0000
     82 C19       12.4238    8.6891   21.1467 C.ar      1 RES1    0.0000
     83 O28       17.4026    3.2962   11.6279 O.2       1 RES1    0.0000
     84 C20       12.6222    2.6850   33.2829 C.ar      1 RES1    0.0000
     85 N23       10.2091    1.4477   21.5235 N.ar      1 RES1    0.0000
     86 C21       14.3887    1.0149   33.3227 C.ar      1 RES1    0.0000
     87 C22        8.6865    2.1210   27.6842 C.2       1 RES1    0.0000
     88 C23        7.1318    7.0810   26.0691 C.ar      1 RES1    0.0000
     89 C24       13.2039   11.7742   20.2141 C.ar      1 RES1    0.0000
     90 H15       12.5808   11.4049   20.8299 H         1 RES1    0.0000
     91 C25        8.0894    4.2611   31.3494 C.2       1 RES1    0.0000
     92 C26       10.7206    9.5485   19.6189 C.ar      1 RES1    0.0000
     93 C27        6.0607    4.5693   23.3521 C.ar      1 RES1    0.0000
     94 H16        5.1153    4.6625   23.3289 H         1 RES1    0.0000
     95 C28       11.7346   -0.2055   29.9105 C.ar      1 RES1    0.0000
     96 C29       11.3290    2.3713   33.6982 C.ar      1 RES1    0.0000
     97 C30       10.9995    1.3503   28.2084 C.ar      1 RES1    0.0000
     98 C31        5.7169    7.2528   26.2052 C.ar      1 RES1    0.0000
     99 C32        7.1985    5.9895   28.2353 C.ar      1 RES1    0.0000
    100 C33       15.5179    0.3316   33.8838 C.ar      1 RES1    0.0000
    101 C34       14.8085    4.8749   15.2147 C.ar      1 RES1    0.0000
    102 H17       14.1036    4.7571   15.8410 H         1 RES1    0.0000
    103 C35       15.4936    6.0911   15.2240 C.ar      1 RES1    0.0000
    104 C36        7.8749    6.4638   27.0850 C.ar      1 RES1    0.0000
    105 C37       12.0534    9.2848   19.9426 C.ar      1 RES1    0.0000
    106 O29       12.8144   -2.3381   26.9386 O.3       1 RES1    0.0000
    107 N24       16.4593    3.0820   12.3858 N.pl3     1 RES1    0.0000
    108 C38        5.0166    7.9264   25.1485 C.ar      1 RES1    0.0000
    109 C39        7.2708    4.9161   30.2585 C.ar      1 RES1    0.0000
    110 C40        5.7779    6.1589   28.3469 C.ar      1 RES1    0.0000
    111 C41       12.5240    7.7930   15.0683 C.3       1 RES1    0.0000
    112 H18       13.1971    8.4944   14.9407 H         1 RES1    0.0000
    113 H19       11.6283    8.1834   14.9964 H         1 RES1    0.0000
    114 H20       12.6367    7.1039   14.3808 H         1 RES1    0.0000
    115 C42       15.4714    5.8729   18.6714 C.3       1 RES1    0.0000
    116 H21       15.9136    5.2905   18.0179 H         1 RES1    0.0000
    117 H22       15.3858    5.3986   19.5248 H         1 RES1    0.0000
    118 H23       16.0063    6.6835   18.8002 H         1 RES1    0.0000
    119 C43        5.1430    5.6553   29.5307 C.ar      1 RES1    0.0000
    120 C44        9.7389    9.2105   20.5684 C.ar      1 RES1    0.0000
    121 H24        8.8254    9.3798   20.3726 H         1 RES1    0.0000
    122 C45       10.7068    0.5205   29.2791 C.ar      1 RES1    0.0000
    123 H25        9.8115    0.4426   29.5877 H         1 RES1    0.0000
    124 C46       14.6191   -0.4023   31.3155 C.ar      1 RES1    0.0000
    125 C47        6.8271    4.9782   22.2609 C.ar      1 RES1    0.0000
    126 N25       11.1987    2.1683   19.1302 N.am      1 RES1    0.0000
    127 H26       11.6541    1.9128   19.8380 H         1 RES1    0.0000
    128 C48        8.4283    5.7534   20.2038 C.ar      1 RES1    0.0000
    129 C49       10.2487    2.9023   33.0087 C.ar      1 RES1    0.0000
    130 H27        9.3617    2.7033   33.2873 H         1 RES1    0.0000
    131 C50       11.4141    8.3577   22.0480 C.ar      1 RES1    0.0000
    132 H28       11.6426    7.9296   22.8650 H         1 RES1    0.0000
    133 C51       12.8518    3.5420   32.2149 C.ar      1 RES1    0.0000
    134 C52        6.5759    2.9675   26.6414 C.ar      1 RES1    0.0000
    135 H29        6.0978    2.6474   27.3970 H         1 RES1    0.0000
    136 C53       16.5599    6.2216   14.2835 C.ar      1 RES1    0.0000
    137 C54        7.0911    8.1102   24.0091 C.ar      1 RES1    0.0000
    138 C55       16.1901   -0.6119   33.1511 C.ar      1 RES1    0.0000
    139 H30       16.9601   -1.0244   33.5249 H         1 RES1    0.0000
    140 C56       10.3833    4.3204   23.5267 C.3       1 RES1    0.0000
    141 H31       10.7460    5.2303   23.5487 H         1 RES1    0.0000
    142 H32       10.7254    3.8509   22.7377 H         1 RES1    0.0000
    143 H33       10.6552    3.8403   24.3365 H         1 RES1    0.0000
    144 C57       10.4649    3.7310   31.9031 C.ar      1 RES1    0.0000
    145 C58       13.3504    0.7757   28.3934 C.ar      1 RES1    0.0000
    146 C59        7.8116    9.2125   29.3312 C.ar      1 RES1    0.0000
    147 C60        5.8929    5.0166   30.4686 C.ar      1 RES1    0.0000
    148 H34        5.4902    4.6496   31.2467 H         1 RES1    0.0000
    149 C61       12.3112    1.4607   27.7788 C.ar      1 RES1    0.0000
    150 H35       12.5067    2.0239   27.0391 H         1 RES1    0.0000
    151 C62        5.6961    8.3350   24.0479 C.ar      1 RES1    0.0000
    152 H36        5.2489    8.7581   23.3252 H         1 RES1    0.0000
    153 C63       13.8649    8.4437   21.4950 C.3       1 RES1    0.0000
    154 H37       14.2955    7.9459   20.7695 H         1 RES1    0.0000
    155 H38       13.9159    7.9241   22.3240 H         1 RES1    0.0000
    156 H39       14.3213    9.3022   21.6187 H         1 RES1    0.0000
    157 C64        6.2300    5.4729   21.0438 C.ar      1 RES1    0.0000
    158 N26       11.0316   -0.9021   25.5648 N.ar      1 RES1    0.0000
    159 C65        9.1616    9.2906   28.8900 C.ar      1 RES1    0.0000
    160 C66        8.5242    8.1001   31.3308 C.ar      1 RES1    0.0000
    161 C67       15.0560   12.8228   18.4881 C.ar      1 RES1    0.0000
    162 H40       15.7227   13.1671   17.9064 H         1 RES1    0.0000
    163 O30       11.2541   -3.2849   28.2104 O.2       1 RES1    0.0000
    164 C68        9.3624    6.3230   26.9718 C.3       1 RES1    0.0000
    165 H41        9.5795    5.4581   26.5665 H         1 RES1    0.0000
    166 H42        9.7650    6.3761   27.8642 H         1 RES1    0.0000
    167 H43        9.7178    7.0448   26.4111 H         1 RES1    0.0000
    168 C69       14.6243   13.5957   19.5090 C.ar      1 RES1    0.0000
    169 C70       12.3835   13.1261   22.5005 C.ar      1 RES1    0.0000
    170 C71        5.0742    6.7974   27.3446 C.ar      1 RES1    0.0000
    171 H44        4.1376    6.9260   27.4379 H         1 RES1    0.0000
    172 C72        7.0402    5.8473   20.0296 C.ar      1 RES1    0.0000
    173 H45        6.6760    6.1685   19.2127 H         1 RES1    0.0000
    174 C73        6.7880    9.7789   28.4860 C.ar      1 RES1    0.0000
    175 C74        8.5226   10.3329   26.9499 C.ar      1 RES1    0.0000
    176 C75        9.8857    8.1742   30.9141 C.ar      1 RES1    0.0000
    177 C76       15.7815   -0.9782   31.8882 C.ar      1 RES1    0.0000
    178 C77        7.8218    8.6018   22.7954 C.2       1 RES1    0.0000
    179 C78        8.2363    7.4716   32.6162 C.ar      1 RES1    0.0000
    180 C79       11.7533    4.0448   31.5449 C.ar      1 RES1    0.0000
    181 H46       11.8930    4.6307   30.8100 H         1 RES1    0.0000
    182 C80       15.0879    3.8366   14.3569 C.ar      1 RES1    0.0000
    183 C81        7.5141    8.6044   30.5483 C.ar      1 RES1    0.0000
    184 H47        6.6124    8.5386   30.8381 H         1 RES1    0.0000
    185 C82       16.1262    4.0511   13.3911 C.ar      1 RES1    0.0000
    186 C83       11.6569    6.5869   33.7732 C.2       1 RES1    0.0000
    187 C84       16.8209    5.2162   13.4021 C.ar      1 RES1    0.0000
    188 H48       17.5183    5.3366   12.7684 H         1 RES1    0.0000
    189 C85       11.0919    1.4274   34.8532 C.3       1 RES1    0.0000
    190 H49       10.1416    1.1893   34.8910 H         1 RES1    0.0000
    191 H50       11.3528    1.8635   35.6907 H         1 RES1    0.0000
    192 H51       11.6265    0.6156   34.7269 H         1 RES1    0.0000
    193 C86       13.6541   13.0817   20.4465 C.ar      1 RES1    0.0000
    194 C87       10.9125   11.7621   24.4224 C.ar      1 RES1    0.0000
    195 C88       10.3254   10.2077   18.3447 C.3       1 RES1    0.0000
    196 H52       10.6830    9.6975   17.5881 H         1 RES1    0.0000
    197 H53       10.6825   11.1191   18.3230 H         1 RES1    0.0000
    198 H54        9.3470   10.2383   18.2835 H         1 RES1    0.0000
    199 C89       10.2049    8.7771   29.6848 C.ar      1 RES1    0.0000
    200 C90       11.3663   -1.1068   31.0459 C.3       1 RES1    0.0000
    201 H55       10.5549   -1.6058   30.8170 H         1 RES1    0.0000
    202 H56       11.2049   -0.5703   31.8497 H         1 RES1    0.0000
    203 H57       12.0995   -1.7355   31.2148 H         1 RES1    0.0000
    204 C91        3.7671    3.3359   26.6169 C.3       1 RES1    0.0000
    205 H58        4.1493    3.6540   27.4722 H         1 RES1    0.0000
    206 H59        3.7569    2.3454   26.6353 H         1 RES1    0.0000
    207 C92       10.9938   13.0772   22.3601 C.ar      1 RES1    0.0000
    208 C93       13.4948    2.4839   15.6267 C.ar      1 RES1    0.0000
    209 C94        8.9128   10.9538   25.6229 C.2       1 RES1    0.0000
    210 C95       14.2347    3.9067   31.7385 C.3       1 RES1    0.0000
    211 H60       14.5402    3.2443   31.0834 H         1 RES1    0.0000
    212 H61       14.8507    3.9192   32.5009 H         1 RES1    0.0000
    213 H62       14.2141    4.7930   31.3210 H         1 RES1    0.0000
    214 C96        4.1380    5.8084   19.8493 C.3       1 RES1    0.0000
    215 H63        4.6791    6.4111   19.2805 H         1 RES1    0.0000
    216 H64        3.9416    4.9866   19.3324 H         1 RES1    0.0000
    217 C97       10.5656    7.1180   32.8689 C.ar      1 RES1    0.0000
    218 C98        9.2598    6.9896   33.3406 C.ar      1 RES1    0.0000
    219 H65        9.0936    6.5616   34.1727 H         1 RES1    0.0000
    220 C99        7.1341   10.3218   27.2779 C.ar      1 RES1    0.0000
    221 H66        6.4814   10.6755   26.6858 H         1 RES1    0.0000
    222 C100      14.0997    2.1391   16.8352 C.ar      1 RES1    0.0000
    223 C101      10.1058   -0.2687   24.7730 C.ar      1 RES1    0.0000
    224 C102      13.0371   12.4888   23.5413 C.ar      1 RES1    0.0000
    225 C103       9.3333    1.8656   20.6298 C.ar      1 RES1    0.0000
    226 C104       2.9164    8.6877   24.3049 C.3       1 RES1    0.0000
    227 H67        2.9514    8.0999   23.5107 H         1 RES1    0.0000
    228 H68        3.3017    9.5651   24.0571 H         1 RES1    0.0000
    229 C105      12.2765   11.8168   24.4885 C.ar      1 RES1    0.0000
    230 H69       12.7186   11.3810   25.2073 H         1 RES1    0.0000
    231 C106       9.6894    0.9132   22.6914 C.ar      1 RES1    0.0000
    232 C107      10.2567   12.4003   23.3571 C.ar      1 RES1    0.0000
    233 H70        9.3091   12.3765   23.3062 H         1 RES1    0.0000
    234 C108       8.3210   -1.1207   26.2271 C.ar      1 RES1    0.0000
    235 C109      13.2982    2.0497   17.9772 C.ar      1 RES1    0.0000
    236 H71       13.6839    1.8040   18.8091 H         1 RES1    0.0000
    237 C110      10.6164    0.4238   23.6542 C.ar      1 RES1    0.0000
    238 C111       2.9212    6.4520   20.2181 C.3       1 RES1    0.0000
    239 H72        2.3720    6.5737   19.3918 H         1 RES1    0.0000
    240 C112       7.4026    1.2688   21.9046 C.ar      1 RES1    0.0000
    241 C113       1.5043    8.8694   24.7265 C.3       1 RES1    0.0000
    242 H73        1.5482    9.5757   25.4317 H         1 RES1    0.0000
    243 C114      12.1617    2.7838   15.5570 C.ar      1 RES1    0.0000
    244 C115       8.2773    0.7887   22.9106 C.ar      1 RES1    0.0000
    245 C116      11.9364    2.3222   17.8975 C.ar      1 RES1    0.0000
    246 C117       9.8627    2.3826   19.3018 C.2       1 RES1    0.0000
    247 C118       6.5923    6.9184   34.2314 C.3       1 RES1    0.0000
    248 H74        7.0166    7.4621   34.9410 H         1 RES1    0.0000
    249 H75        6.8980    5.9820   34.3246 H         1 RES1    0.0000
    250 C119      11.6309    8.8631   29.1851 C.3       1 RES1    0.0000
    251 H76       11.7238    8.3287   28.3691 H         1 RES1    0.0000
    252 H77       12.2389    8.5189   29.8723 H         1 RES1    0.0000
    253 H78       11.8528    9.7977   28.9910 H         1 RES1    0.0000
    254 C120       8.7281   -0.3736   25.0087 C.ar      1 RES1    0.0000
    255 C121      10.2849   13.6933   21.1958 C.3       1 RES1    0.0000
    256 H79       10.6563   14.5840   21.0213 H         1 RES1    0.0000
    257 H80        9.3297   13.7729   21.4000 H         1 RES1    0.0000
    258 H81       10.4043   13.1291   20.4041 H         1 RES1    0.0000
    259 C122       7.8375    0.1577   24.1124 C.ar      1 RES1    0.0000
    260 H82        6.9061    0.1026   24.2923 H         1 RES1    0.0000
    261 C123      14.7657    0.8971   27.9037 C.3       1 RES1    0.0000
    262 H83       15.0575    0.0381   27.5336 H         1 RES1    0.0000
    263 H84       15.3489    1.1454   28.6517 H         1 RES1    0.0000
    264 H85       14.8131    1.5861   27.2096 H         1 RES1    0.0000
    265 C124      11.5884   -2.4785   27.3260 C.2       1 RES1    0.0000
    266 C125      10.5943   -1.6403   26.5956 C.ar      1 RES1    0.0000
    267 C126       9.2480   -1.7268   26.9708 C.ar      1 RES1    0.0000
    268 H86        8.9976   -2.2125   27.7478 H         1 RES1    0.0000
    269 C127       4.4555   10.2754   28.2556 C.3       1 RES1    0.0000
    270 H87        4.4529    9.9426   27.3238 H         1 RES1    0.0000
    271 H88        4.5408   11.2618   28.2381 H         1 RES1    0.0000
    272 C128       7.9311    1.8376   20.7626 C.ar      1 RES1    0.0000
    273 H89        7.3680    2.1976   20.0868 H         1 RES1    0.0000
    274 C129       5.0665    6.9951   34.3409 C.3       1 RES1    0.0000
    275 H90        4.6244    6.5121   33.5863 H         1 RES1    0.0000
    276 C130       5.0987   -1.5546   27.8273 C.3       1 RES1    0.0000
    277 H91        4.6477   -2.0346   27.0738 H         1 RES1    0.0000
    278 C131       3.1194    5.5805   30.7920 C.3       1 RES1    0.0000
    279 H92        3.7175    5.7236   31.5685 H         1 RES1    0.0000
    280 H93        2.8393    4.6308   30.7866 H         1 RES1    0.0000
    281 C132      11.3915    2.7009   16.7057 C.ar      1 RES1    0.0000
    282 H94       10.4656    2.9131   16.6610 H         1 RES1    0.0000
    283 C133       5.1980    1.5109   21.0647 C.3       1 RES1    0.0000
    284 H95        5.4594    1.0698   20.2159 H         1 RES1    0.0000
    285 H96        5.2620    2.4899   20.9361 H         1 RES1    0.0000
    286 C134       1.8662    6.5043   30.9082 C.3       1 RES1    0.0000
    287 H97        2.1673    7.4548   30.8273 H         1 RES1    0.0000
    288 C135      12.0791    0.6162   23.5115 C.3       1 RES1    0.0000
    289 H98       12.5423   -0.2163   23.7393 H         1 RES1    0.0000
    290 H99       12.3753    1.3307   24.1137 H         1 RES1    0.0000
    291 H100      12.2878    0.8632   22.5856 H         1 RES1    0.0000
    292 C136      14.5361   12.5467   23.6642 C.3       1 RES1    0.0000
    293 H101      14.9467   12.1778   22.8548 H         1 RES1    0.0000
    294 H102      14.8206   12.0219   24.4426 H         1 RES1    0.0000
    295 H103      14.8190   13.4781   23.7789 H         1 RES1    0.0000
    296 C137       6.5526   -1.7157   27.6746 C.3       1 RES1    0.0000
    297 H104       7.0160   -1.2864   28.4380 H         1 RES1    0.0000
    298 H105       6.7831   -2.6792   27.6787 H         1 RES1    0.0000
    299 C138       2.0600    5.8913   21.2539 C.3       1 RES1    0.0000
    300 H106       1.2710    6.4604   21.3655 H         1 RES1    0.0000
    301 H107       2.5534    5.8451   22.0988 H         1 RES1    0.0000
    302 H108       1.7783    4.9897   20.9904 H         1 RES1    0.0000
    303 C139       2.4011    3.8305   26.4828 C.3       1 RES1    0.0000
    304 H109       2.4622    4.7924   26.7487 H         1 RES1    0.0000
    305 C140      15.5907    1.9507   17.0012 C.3       1 RES1    0.0000
    306 H110      15.9053    1.2704   16.3692 H         1 RES1    0.0000
    307 H111      15.7832    1.6596   17.9168 H         1 RES1    0.0000
    308 H112      16.0486    2.7981   16.8240 H         1 RES1    0.0000
    309 C141       3.1115    9.8515   28.9992 C.3       1 RES1    0.0000
    310 H113       2.9690    8.8687   28.8763 H         1 RES1    0.0000
    311 C142       3.8141    1.1409   21.4133 C.3       1 RES1    0.0000
    312 H114       3.7589    0.1505   21.5463 H         1 RES1    0.0000
    313 C143      13.9113    6.3432   34.1783 C.3       1 RES1    0.0000
    314 H115      13.8549    5.3665   34.2464 H         1 RES1    0.0000
    315 H116      13.7945    6.7399   35.0656 H         1 RES1    0.0000
    316 H117      14.7878    6.5946   33.8192 H         1 RES1    0.0000
    317 C144       4.6932   -0.1591   27.7941 C.3       1 RES1    0.0000
    318 H118       4.8684    0.2102   26.9022 H         1 RES1    0.0000
    319 H119       5.2007    0.3450   28.4618 H         1 RES1    0.0000
    320 H120       3.7353   -0.0929   27.9909 H         1 RES1    0.0000
    321 C145       0.9354    6.2160   29.7993 C.3       1 RES1    0.0000
    322 H121       1.3158    6.5474   28.9600 H         1 RES1    0.0000
    323 H122       0.0787    6.6588   29.9691 H         1 RES1    0.0000
    324 H123       0.7961    5.2475   29.7354 H         1 RES1    0.0000
    325 C146      11.5492    3.2251   14.2622 C.3       1 RES1    0.0000
    326 H124      11.8839    4.1162   14.0282 H         1 RES1    0.0000
    327 H125      10.5736    3.2580   14.3565 H         1 RES1    0.0000
    328 H126      11.7866    2.5910   13.5534 H         1 RES1    0.0000
    329 C147       4.6749   -2.2264   29.1619 C.3       1 RES1    0.0000
    330 H127       3.7026   -2.1666   29.2621 H         1 RES1    0.0000
    331 H128       5.1113   -1.7695   29.9093 H         1 RES1    0.0000
    332 H129       4.9450   -3.1692   29.1515 H         1 RES1    0.0000
    333 C148       4.6883    8.4781   34.3509 C.3       1 RES1    0.0000
    334 H130       4.2881    8.7174   33.4873 H         1 RES1    0.0000
    335 H131       5.4911    9.0198   34.4985 H         1 RES1    0.0000
    336 H132       4.0423    8.6472   35.0671 H         1 RES1    0.0000
    337 C149       1.2584    6.3257   32.2262 C.3       1 RES1    0.0000
    338 H133       0.4068    6.8083   32.2632 H         1 RES1    0.0000
    339 H134       1.8620    6.6754   32.9156 H         1 RES1    0.0000
    340 H135       1.1000    5.3712   32.3868 H         1 RES1    0.0000
    341 C150       0.7161    9.5170   23.6011 C.3       1 RES1    0.0000
    342 H136       1.1675   10.3385   23.3160 H         1 RES1    0.0000
    343 H137      -0.1864    9.7337   23.9178 H         1 RES1    0.0000
    344 H138       0.6560    8.8973   22.8444 H         1 RES1    0.0000
    345 C151       3.1017   10.1567   30.4135 C.3       1 RES1    0.0000
    346 H139       3.2676   11.1132   30.5415 H         1 RES1    0.0000
    347 H140       3.8012    9.6392   30.8632 H         1 RES1    0.0000
    348 H141       2.2278    9.9225   30.7909 H         1 RES1    0.0000
    349 C152       3.3398    7.8913   20.7493 C.3       1 RES1    0.0000
    350 H142       4.0084    7.7963   21.4599 H         1 RES1    0.0000
    351 H143       2.5498    8.3510   21.1051 H         1 RES1    0.0000
    352 H144       3.7177    8.4147   20.0128 H         1 RES1    0.0000
    353 C153       3.3444    1.8460   22.6782 C.3       1 RES1    0.0000
    354 H145       3.5087    2.8090   22.5966 H         1 RES1    0.0000
    355 H146       3.8376    1.4963   23.4507 H         1 RES1    0.0000
    356 H147       2.3857    1.6882   22.8056 H         1 RES1    0.0000
    357 C154      13.7859   -3.2217   27.5352 C.3       1 RES1    0.0000
    358 H148      13.6228   -4.1389   27.2304 H         1 RES1    0.0000
    359 H149      13.7069   -3.1825   28.5108 H         1 RES1    0.0000
    360 H150      14.6867   -2.9440   27.2681 H         1 RES1    0.0000
    361 C155       1.5170    3.2110   27.5318 C.3       1 RES1    0.0000
    362 H151       0.6493    3.6651   27.5381 H         1 RES1    0.0000
    363 H152       1.9403    3.3025   28.4114 H         1 RES1    0.0000
    364 H153       1.3872    2.2604   27.3302 H         1 RES1    0.0000
    365 C156       2.8731    1.5635   20.1916 C.3       1 RES1    0.0000
    366 H154       3.3080    1.3223   19.3456 H         1 RES1    0.0000
    367 H155       2.7222    2.5316   20.2148 H         1 RES1    0.0000
    368 H156       2.0151    1.0967   20.2614 H         1 RES1    0.0000
    369 C157       1.9943   10.6128   28.2622 C.3       1 RES1    0.0000
    370 H157       1.9223   10.2814   27.3445 H         1 RES1    0.0000
    371 H158       2.2065   11.5700   28.2500 H         1 RES1    0.0000
    372 H159       1.1433   10.4740   28.7292 H         1 RES1    0.0000
    373 C158       1.7515    3.8647   25.0917 C.3       1 RES1    0.0000
    374 H160       1.8943    4.7445   24.6860 H         1 RES1    0.0000
    375 H161       0.7898    3.6958   25.1773 H         1 RES1    0.0000
    376 H162       2.1552    3.1738   24.5258 H         1 RES1    0.0000
    377 C159       4.6376    6.4994   35.5793 C.3       1 RES1    0.0000
    378 H163       3.7294    6.1414   35.4903 H         1 RES1    0.0000
    379 H164       4.6400    7.2231   36.2397 H         1 RES1    0.0000
    380 H165       5.2421    5.7864   35.8732 H         1 RES1    0.0000
    381 C160       0.8583    7.8233   25.3374 C.3       1 RES1    0.0000
    382 H166       0.7358    7.0933   24.6939 H         1 RES1    0.0000
    383 H167      -0.0177    8.1233   25.6596 H         1 RES1    0.0000
    384 H168       1.3931    7.5051   26.0937 H         1 RES1    0.0000
@<TRIPOS>BOND
     1    1    2 1
     2    3   81 1
     3    4  108 1
     4    5   65 2
     5    6   91 2
     6    7   87 2
     7    8  157 1
     8    9  179 1
     9   10  119 1
    10   11   18 2
    11   12   18 2
    12   13  186 1
    13   14   15 1
    14   16  174 1
    15   17   61 ar
    16   18   80 1
    17   19   20 1
    18   21   41 2
    19   22   63 ar
    20   23   88 ar
    21   24   25 1
    22   26   27 1
    23   28   99 ar
    24   29   30 1
    25   31   41 2
    26   32   33 2
    27   33   34 2
    28   35   36 1
    29   37   52 2
    30   38   39 1
    31   40  186 2
    32   41  100 1
    33   42   68 2
    34   43   52 2
    35   44   68 2
    36   45   46 1
    37   47   19 1
    38   48  176 ar
    39   49  178 2
    40   50  240 1
    41   51  159 ar
    42   52  168 1
    43   53   57 ar
    44   54   14 1
    45   55  209 2
    46   56   61 ar
    47   57   26 1
    48   58   47 ar
    49   59   58 1
    50   60  246 2
    51   61  125 ar
    52   62  234 1
    53   63   87 1
    54   64   77 ar
    55   65   19 1
    56   66   67 1
    57   68  177 1
    58   69   47 ar
    59   70   69 1
    60   71   24 1
    61   72  107 2
    62   73   57 ar
    63   74   38 1
    64   75   76 1
    65   77   22 ar
    66   78   79 1
    67   80   54 ar
    68   81   64 ar
    69   82  105 ar
    70   83  107 2
    71   84   45 1
    72   85  225 ar
    73   86   45 1
    74   87   29 1
    75   88   98 ar
    76   89   54 ar
    77   90   89 1
    78   91   35 1
    79   92  105 ar
    80   93   64 ar
    81   94   93 1
    82   95   74 ar
    83   96   84 ar
    84   97   29 1
    85   98  108 ar
    86   99  104 ar
    87  100   86 ar
    88  101  102 1
    89  103   26 1
    90  104   88 ar
    91  105   14 1
    92  106  265 1
    93  107  185 1
    94  108  151 ar
    95  109   28 ar
    96  110   99 ar
    97  111   73 1
    98  112  111 1
    99  113  111 1
   100  114  111 1
   101  115   53 1
   102  116  115 1
   103  117  115 1
   104  118  115 1
   105  119  110 ar
   106  120   71 ar
   107  121  120 1
   108  122   95 ar
   109  123  122 1
   110  124   38 1
   111  125   93 ar
   112  126  127 1
   113  128   17 ar
   114  129   96 ar
   115  130  129 1
   116  131   71 ar
   117  132  131 1
   118  133   84 ar
   119  134   63 ar
   120  135  134 1
   121  136   33 1
   122  137   23 ar
   123  138  100 ar
   124  139  138 1
   125  140   56 1
   126  141  140 1
   127  142  140 1
   128  143  140 1
   129  144   35 1
   130  145   74 ar
   131  146  159 ar
   132  147  109 ar
   133  148  147 1
   134  149   97 ar
   135  150  149 1
   136  151  137 ar
   137  152  151 1
   138  153   82 1
   139  154  153 1
   140  155  153 1
   141  156  153 1
   142  157  125 ar
   143  158  223 ar
   144  159  199 ar
   145  160  176 ar
   146  161   80 ar
   147  162  161 1
   148  163  265 2
   149  164  104 1
   150  165  164 1
   151  166  164 1
   152  167  164 1
   153  168  161 ar
   154  169   78 1
   155  170   98 ar
   156  171  170 1
   157  172  128 ar
   158  173  172 1
   159  174  146 ar
   160  175   51 ar
   161  176  199 ar
   162  177  124 ar
   163  178   24 1
   164  179  160 ar
   165  180  133 ar
   166  181  180 1
   167  182   75 1
   168  183  146 ar
   169  184  183 1
   170  185  182 ar
   171  186  217 1
   172  187  136 ar
   173  188  187 1
   174  189   96 1
   175  190  189 1
   176  191  189 1
   177  192  189 1
   178  193   78 1
   179  194    1 1
   180  195   92 1
   181  196  195 1
   182  197  195 1
   183  198  195 1
   184  199  250 1
   185  200   95 1
   186  201  200 1
   187  202  200 1
   188  203  200 1
   189  204    3 1
   190  205  204 1
   191  206  204 1
   192  207  169 ar
   193  208   75 1
   194  209    1 1
   195  210  133 1
   196  211  210 1
   197  212  210 1
   198  213  210 1
   199  214    8 1
   200  215  214 1
   201  216  214 1
   202  217   48 ar
   203  218  179 ar
   204  219  218 1
   205  220  174 ar
   206  221  220 1
   207  222  208 ar
   208  223  237 ar
   209  224  169 ar
   210  225  246 1
   211  226    4 1
   212  227  226 1
   213  228  226 1
   214  229  194 ar
   215  230  229 1
   216  231   85 ar
   217  232  194 ar
   218  233  232 1
   219  234  254 ar
   220  235  222 ar
   221  236  235 1
   222  237  231 ar
   223  238  214 1
   224  239  238 1
   225  240  244 ar
   226  241  226 1
   227  242  241 1
   228  243  208 ar
   229  244  231 ar
   230  245  126 1
   231  246  126 1
   232  247    9 1
   233  248  247 1
   234  249  247 1
   235  250  251 1
   236  252  250 1
   237  253  250 1
   238  254  223 ar
   239  255  207 1
   240  256  255 1
   241  257  255 1
   242  258  255 1
   243  259  244 ar
   244  260  259 1
   245  261  145 1
   246  262  261 1
   247  263  261 1
   248  264  261 1
   249  265  266 1
   250  266  158 ar
   251  267  234 ar
   252  268  267 1
   253  269   16 1
   254  270  269 1
   255  271  269 1
   256  272  225 ar
   257  273  272 1
   258  274  247 1
   259  275  274 1
   260  276  277 1
   261  278   10 1
   262  279  278 1
   263  280  278 1
   264  281  243 ar
   265  282  281 1
   266  283   50 1
   267  284  283 1
   268  285  283 1
   269  286  278 1
   270  287  286 1
   271  288  237 1
   272  289  288 1
   273  290  288 1
   274  291  288 1
   275  292  224 1
   276  293  292 1
   277  294  292 1
   278  295  292 1
   279  296   62 1
   280  297  296 1
   281  298  296 1
   282  299  238 1
   283  300  299 1
   284  301  299 1
   285  302  299 1
   286  303  204 1
   287  304  303 1
   288  305  222 1
   289  306  305 1
   290  307  305 1
   291  308  305 1
   292  309  269 1
   293  310  309 1
   294  311  283 1
   295  312  311 1
   296  313   13 1
   297  314  313 1
   298  315  313 1
   299  316  313 1
   300  317  276 1
   301  318  317 1
   302  319  317 1
   303  320  317 1
   304  321  286 1
   305  322  321 1
   306  323  321 1
   307  324  321 1
   308  325  243 1
   309  326  325 1
   310  327  325 1
   311  328  325 1
   312  329  276 1
   313  330  329 1
   314  331  329 1
   315  332  329 1
   316  333  274 1
   317  334  333 1
   318  335  333 1
   319  336  333 1
   320  337  286 1
   321  338  337 1
   322  339  337 1
   323  340  337 1
   324  341  241 1
   325  342  341 1
   326  343  341 1
   327  344  341 1
   328  345  309 1
   329  346  345 1
   330  347  345 1
   331  348  345 1
   332  349  238 1
   333  350  349 1
   334  351  349 1
   335  352  349 1
   336  353  311 1
   337  354  353 1
   338  355  353 1
   339  356  353 1
   340  357  106 1
   341  358  357 1
   342  359  357 1
   343  360  357 1
   344  361  303 1
   345  362  361 1
   346  363  361 1
   347  364  361 1
   348  365  311 1
   349  366  365 1
   350  367  365 1
   351  368  365 1
   352  369  309 1
   353  370  369 1
   354  371  369 1
   355  372  369 1
   356  373  303 1
   357  374  373 1
   358  375  373 1
   359  376  373 1
   360  377  274 1
   361  378  377 1
   362  379  377 1
   363  380  377 1
   364  381  241 1
   365  382  381 1
   366  383  381 1
   367  384  381 1
   368   53   69 ar
   369   56   77 ar
   370   58   73 ar
   371   65  128 1
   372   66   86 ar
   373   66  124 ar
   374   81  134 ar
   375   82  131 ar
   376   89  193 ar
   377   91  109 1
   378   92  120 ar
   379   97  122 ar
   380  101  103 ar
   381  101  182 ar
   382  103  136 ar
   383  110  170 ar
   384  119  147 ar
   385  129  144 ar
   386  137  178 1
   387  138  177 ar
   388  144  180 ar
   389  145  149 ar
   390  157  172 ar
   391  160  183 ar
   392  168  193 ar
   393  175  209 1
   394  175  220 ar
   395  185  187 ar
   396  207  232 ar
   397  217  218 ar
   398  224  229 ar
   399  235  245 ar
   400  240  272 ar
   401  245  281 ar
   402  254  259 ar
   403  266  267 ar
   404  276  296 1
@<TRIPOS>SUBSTRUCTURE
     1 RES1 1

@<TRIPOS>CRYSIN
  16.0380   16.0520   33.2300  88.1500  88.1800  84.5000   2 1

