# MOL2 file generated by ConQuest
# Please check atom types

@<TRIPOS>MOLECULE
ZEHDEX
    32    34     1
SMALL
NO_CHARGES
****
Generated from CSD

@<TRIPOS>ATOM
      1 C1         4.9145   11.8970    0.2438 C.3       1 RES1    0.0000
      2 C2         3.8699   12.2333   -0.8168 C.3       1 RES1    0.0000
      3 H1         4.2604   12.8544   -1.4820 H         1 RES1    0.0000
      4 H2         3.0980   12.6834   -0.3920 H         1 RES1    0.0000
      5 C3         3.3966   10.9557   -1.5220 C.3       1 RES1    0.0000
      6 H3         2.9125   10.3857   -0.8736 H         1 RES1    0.0000
      7 H4         2.7650   11.1973   -2.2441 H         1 RES1    0.0000
      8 C4         4.5613   10.1629   -2.1163 C.3       1 RES1    0.0000
      9 H5         4.2201    9.3293   -2.5279 H         1 RES1    0.0000
     10 H6         5.0015   10.6984   -2.8237 H         1 RES1    0.0000
     11 C5         5.5727    9.8195   -1.0303 C.3       1 RES1    0.0000
     12 H7         6.3405    9.3445   -1.4346 H         1 RES1    0.0000
     13 H8         5.1520    9.2134   -0.3701 H         1 RES1    0.0000
     14 C6         6.0739   11.0790   -0.3170 C.3       1 RES1    0.0000
     15 H9         6.6794   10.8190    0.4208 H         1 RES1    0.0000
     16 H10        6.5893   11.6341   -0.9547 H         1 RES1    0.0000
     17 C7         4.1425   10.1239    3.1593 C.2       1 RES1    0.0000
     18 C8         4.2627    9.2128    4.2412 C.2       1 RES1    0.0000
     19 H11        5.0365    8.6735    4.3580 H         1 RES1    0.0000
     20 C9         3.2058    9.1520    5.1076 C.2       1 RES1    0.0000
     21 H12        3.2437    8.5435    5.8366 H         1 RES1    0.0000
     22 C10        2.0452    9.9740    4.9518 C.2       1 RES1    0.0000
     23 H13        1.3473    9.9067    5.5932 H         1 RES1    0.0000
     24 C11        1.9036   10.8574    3.9100 C.2       1 RES1    0.0000
     25 H14        1.1280   11.3975    3.8122 H         1 RES1    0.0000
     26 C12        2.9795   10.9171    2.9882 C.2       1 RES1    0.0000
     27 N1         5.5531   13.2189    0.7722 N.pl3     1 RES1    0.0000
     28 N2         4.9927   10.3669    2.1386 N.2       1 RES1    0.0000
     29 N3         4.3113   11.2570    1.4046 N.pl3     1 RES1    0.0000
     30 N4         3.1092   11.6384    1.8535 N.2       1 RES1    0.0000
     31 O1         6.0727   13.9356   -0.0684 O.2       1 RES1    0.0000
     32 O2         5.5336   13.4459    1.9713 O.2       1 RES1    0.0000
@<TRIPOS>BOND
     1    1    2 1
     2    2    3 1
     3    4    2 1
     4    5    2 1
     5    6    5 1
     6    7    5 1
     7    8    5 1
     8    9    8 1
     9   10    8 1
    10   11    8 1
    11   12   11 1
    12   13   11 1
    13   14    1 1
    14   15   14 1
    15   16   14 1
    16   17   18 1
    17   18   19 1
    18   20   18 2
    19   21   20 1
    20   22   20 1
    21   23   22 1
    22   24   22 2
    23   25   24 1
    24   26   17 1
    25   27    1 1
    26   28   17 2
    27   29    1 1
    28   30   26 2
    29   31   27 2
    30   32   27 2
    31   11   14 1
    32   24   26 1
    33   28   29 1
    34   29   30 1
@<TRIPOS>SUBSTRUCTURE
     1 RES1 1

@<TRIPOS>CRYSIN
   5.9246   11.7114   16.8980  90.0000  90.0000  90.0000  19 1

