# MOL2 file generated by ConQuest
# Please check atom types

@<TRIPOS>MOLECULE
ZEHJUR02
    38    39     1
SMALL
NO_CHARGES
****
Generated from CSD

@<TRIPOS>ATOM
      1 O1         4.6575    3.8803    1.6595 O.2       1 RES1    0.0000
      2 O2         4.5352    2.3029    3.1399 O.2       1 RES1    0.0000
      3 O3         4.8310   -8.0469   -7.8453 O.2       1 RES1    0.0000
      4 O4         4.8110   -9.6277   -6.3699 O.2       1 RES1    0.0000
      5 N1         4.6241    2.6955    1.9786 N.pl3     1 RES1    0.0000
      6 N2         4.5846   -2.4020   -1.8336 N.2       1 RES1    0.0000
      7 N3         4.5486   -3.3379   -2.8696 N.2       1 RES1    0.0000
      8 N4         4.7715   -8.4423   -6.6810 N.pl3     1 RES1    0.0000
      9 C1         4.6891    1.6933    0.9094 C.ar      1 RES1    0.0000
     10 C2         5.0825    2.0967   -0.3520 C.ar      1 RES1    0.0000
     11 H1         5.2959    3.0055   -0.5261 H         1 RES1    0.0000
     12 C3         5.1585    1.1490   -1.3518 C.ar      1 RES1    0.0000
     13 H2         5.4363    1.4089   -2.2215 H         1 RES1    0.0000
     14 C4         4.8337   -0.1866   -1.1057 C.ar      1 RES1    0.0000
     15 C5         4.4560   -0.5570    0.1913 C.ar      1 RES1    0.0000
     16 H3         4.2444   -1.4642    0.3749 H         1 RES1    0.0000
     17 C6         4.3867    0.3777    1.2069 C.ar      1 RES1    0.0000
     18 H4         4.1372    0.1221    2.0884 H         1 RES1    0.0000
     19 C7         4.8874   -1.2032   -2.1949 C.2       1 RES1    0.0000
     20 C8         5.2769   -0.7825   -3.5761 C.3       1 RES1    0.0000
     21 H5         5.2002   -1.5471   -4.1849 H         1 RES1    0.0000
     22 H6         6.2032   -0.4608   -3.5701 H         1 RES1    0.0000
     23 H7         4.6834   -0.0634   -3.8785 H         1 RES1    0.0000
     24 C9         4.7468   -4.5535   -2.5007 C.2       1 RES1    0.0000
     25 C10        5.0944   -4.9966   -1.1142 C.3       1 RES1    0.0000
     26 H8         5.0841   -4.2231   -0.5120 H         1 RES1    0.0000
     27 H9         5.9888   -5.3981   -1.1148 H         1 RES1    0.0000
     28 H10        4.4383   -5.6585   -0.8084 H         1 RES1    0.0000
     29 C11        4.6689   -5.5689   -3.5856 C.ar      1 RES1    0.0000
     30 C12        4.6544   -5.1696   -4.9288 C.ar      1 RES1    0.0000
     31 H11        4.6387   -4.2439   -5.1425 H         1 RES1    0.0000
     32 C13        4.6617   -6.1029   -5.9462 C.ar      1 RES1    0.0000
     33 H12        4.6617   -5.8290   -6.8559 H         1 RES1    0.0000
     34 C14        4.6682   -7.4433   -5.6124 C.ar      1 RES1    0.0000
     35 C15        4.6262   -7.8784   -4.3027 C.ar      1 RES1    0.0000
     36 H13        4.5902   -8.8057   -4.0982 H         1 RES1    0.0000
     37 C16        4.6374   -6.9305   -3.2949 C.ar      1 RES1    0.0000
     38 H14        4.6234   -7.2136   -2.3888 H         1 RES1    0.0000
@<TRIPOS>BOND
     1    1    5 2
     2    2    5 2
     3    3    8 2
     4    4    8 2
     5    5    9 1
     6    6    7 1
     7    7   24 2
     8    8   34 1
     9    9   10 ar
    10   10   11 1
    11   12   10 ar
    12   13   12 1
    13   14   12 ar
    14   15   14 ar
    15   16   15 1
    16   17    9 ar
    17   18   17 1
    18   19    6 2
    19   20   19 1
    20   21   20 1
    21   22   20 1
    22   23   20 1
    23   24   25 1
    24   25   26 1
    25   27   25 1
    26   28   25 1
    27   29   24 1
    28   30   29 ar
    29   31   30 1
    30   32   30 ar
    31   33   32 1
    32   34   32 ar
    33   35   34 ar
    34   36   35 1
    35   37   29 ar
    36   38   37 1
    37   14   19 1
    38   15   17 ar
    39   35   37 ar
@<TRIPOS>SUBSTRUCTURE
     1 RES1 1

@<TRIPOS>CRYSIN
  12.7612   11.5197   20.1586  90.0000  90.0000  90.0000  60 1

