# MOL2 file generated by ConQuest
# Please check atom types

@<TRIPOS>MOLECULE
ZEHJUR01
    38    39     1
SMALL
NO_CHARGES
****
Generated from CSD

@<TRIPOS>ATOM
      1 O1         6.8331    8.6988   14.9986 O.2       1 RES1    0.0000
      2 O2         6.8275   10.1701   13.4109 O.2       1 RES1    0.0000
      3 O3        -2.1858    2.1015    4.5805 O.2       1 RES1    0.0000
      4 O4        -0.7895    2.1090    2.9322 O.2       1 RES1    0.0000
      5 N1         6.5314    9.0656   13.8675 N.pl3     1 RES1    0.0000
      6 N2         3.2432    5.9500    9.3979 N.2       1 RES1    0.0000
      7 N3         2.4065    5.1997    8.6049 N.2       1 RES1    0.0000
      8 N4        -1.0941    2.3720    4.0940 N.pl3     1 RES1    0.0000
      9 C1         5.7893    8.1324   13.0114 C.ar      1 RES1    0.0000
     10 C2         5.6264    6.8324   13.4288 C.ar      1 RES1    0.0000
     11 H1         5.9672    6.5451   14.2674 H         1 RES1    0.0000
     12 C3         4.9534    5.9503   12.5980 C.ar      1 RES1    0.0000
     13 H2         4.8386    5.0468   12.8682 H         1 RES1    0.0000
     14 C4         4.4419    6.3713   11.3709 C.ar      1 RES1    0.0000
     15 C5         4.6273    7.7030   10.9938 C.ar      1 RES1    0.0000
     16 H3         4.2800    8.0043   10.1630 H         1 RES1    0.0000
     17 C6         5.3045    8.5861   11.8039 C.ar      1 RES1    0.0000
     18 H4         5.4341    9.4889   11.5369 H         1 RES1    0.0000
     19 C7         3.7059    5.4390   10.4749 C.2       1 RES1    0.0000
     20 C8         3.5645    4.0043   10.8541 C.3       1 RES1    0.0000
     21 H5         2.9757    3.5538   10.2126 H         1 RES1    0.0000
     22 H6         3.1777    3.9406   11.7526 H         1 RES1    0.0000
     23 H7         4.4452    3.5760   10.8459 H         1 RES1    0.0000
     24 C9         2.8163    4.8466    7.4443 C.2       1 RES1    0.0000
     25 C10        4.2091    5.0553    6.9366 C.3       1 RES1    0.0000
     26 H8         4.7860    5.3417    7.6748 H         1 RES1    0.0000
     27 H9         4.2029    5.7445    6.2397 H         1 RES1    0.0000
     28 H10        4.5491    4.2159    6.5627 H         1 RES1    0.0000
     29 C11        1.8031    4.2028    6.5659 C.ar      1 RES1    0.0000
     30 C12        0.5718    3.7897    7.0915 C.ar      1 RES1    0.0000
     31 H11        0.3909    3.9181    8.0151 H         1 RES1    0.0000
     32 C13       -0.3821    3.2000    6.2880 C.ar      1 RES1    0.0000
     33 H12       -1.2139    2.9179    6.6481 H         1 RES1    0.0000
     34 C14       -0.0952    3.0292    4.9409 C.ar      1 RES1    0.0000
     35 C15        1.1033    3.4206    4.3909 C.ar      1 RES1    0.0000
     36 H13        1.2748    3.2924    3.4653 H         1 RES1    0.0000
     37 C16        2.0544    4.0043    5.2094 C.ar      1 RES1    0.0000
     38 H14        2.8887    4.2743    4.8427 H         1 RES1    0.0000
@<TRIPOS>BOND
     1    1    5 2
     2    2    5 2
     3    3    8 2
     4    4    8 2
     5    5    9 1
     6    6    7 1
     7    7   24 2
     8    8   34 1
     9    9   10 ar
    10   10   11 1
    11   12   10 ar
    12   13   12 1
    13   14   12 ar
    14   15   14 ar
    15   16   15 1
    16   17    9 ar
    17   18   17 1
    18   19    6 2
    19   20   19 1
    20   21   20 1
    21   22   20 1
    22   23   20 1
    23   24   25 1
    24   25   26 1
    25   27   25 1
    26   28   25 1
    27   29   24 1
    28   30   29 ar
    29   31   30 1
    30   32   30 ar
    31   33   32 1
    32   34   32 ar
    33   35   34 ar
    34   36   35 1
    35   37   29 ar
    36   38   37 1
    37   14   19 1
    38   15   17 ar
    39   35   37 ar
@<TRIPOS>SUBSTRUCTURE
     1 RES1 1

@<TRIPOS>CRYSIN
   7.8007    8.5966   12.2240  71.1330  81.2810  74.8950   2 1

