# MOL2 file generated by ConQuest
# Please check atom types

@<TRIPOS>MOLECULE
ZEHSAG
    29    32     1
SMALL
NO_CHARGES
****
Generated from CSD

@<TRIPOS>ATOM
      1 O1         4.0599    2.1234    1.7309 O.3       1 RES1    0.0000
      2 C1         5.1766    1.8479    0.9135 C.3       1 RES1    0.0000
      3 C2         5.0526    0.3304    0.5430 C.3       1 RES1    0.0000
      4 C3         3.8911   -0.1210    1.4272 C.3       1 RES1    0.0000
      5 C4         4.1284   -1.5029    2.0671 C.2       1 RES1    0.0000
      6 N1         3.0805   -2.2910    2.2568 N.am      1 RES1    0.0000
      7 C5         1.7779   -2.0159    1.7333 C.ar      1 RES1    0.0000
      8 C6         1.4440   -2.4752    0.4689 C.ar      1 RES1    0.0000
      9 C7         0.1576   -2.3608   -0.0472 C.ar      1 RES1    0.0000
     10 C8        -0.8193   -1.6614    0.6993 C.ar      1 RES1    0.0000
     11 C9        -0.5196   -1.2353    1.9735 C.ar      1 RES1    0.0000
     12 C10        0.7976   -1.3710    2.5067 C.ar      1 RES1    0.0000
     13 C11        1.0275   -0.8149    3.8688 C.2       1 RES1    0.0000
     14 C12        2.2786   -0.0258    4.1773 C.3       1 RES1    0.0000
     15 C13        2.5728    1.0989    3.1686 C.3       1 RES1    0.0000
     16 N2         3.8997    0.8890    2.5116 N.3       1 RES1    0.0000
     17 C14        6.3415    2.9536   -0.9965 C.ar      1 RES1    0.0000
     18 C15        6.3829    3.7953   -2.1062 C.ar      1 RES1    0.0000
     19 C16        5.2678    4.5978   -2.3748 C.ar      1 RES1    0.0000
     20 C17        4.1152    4.5433   -1.5705 C.ar      1 RES1    0.0000
     21 C18        4.0987    3.6288   -0.4966 C.ar      1 RES1    0.0000
     22 C19        5.1945    2.8333   -0.2377 C.ar      1 RES1    0.0000
     23 C20        4.7991    0.1026   -0.9249 C.2       1 RES1    0.0000
     24 O2         3.7028    0.0301   -1.4540 O.2       1 RES1    0.0000
     25 O3         5.9431   -0.0009   -1.5680 O.3       1 RES1    0.0000
     26 C21        5.8852   -0.0027   -3.0205 C.3       1 RES1    0.0000
     27 O4         5.2791   -1.7889    2.4620 O.2       1 RES1    0.0000
     28 C22        3.2853   -3.5579    2.9928 C.3       1 RES1    0.0000
     29 O5         0.1462   -0.9215    4.6894 O.2       1 RES1    0.0000
@<TRIPOS>BOND
     1    1    2 1
     2    2    3 1
     3    3    4 1
     4    4    5 1
     5    5    6 1
     6    6    7 1
     7    7    8 ar
     8    8    9 ar
     9    9   10 ar
    10   10   11 ar
    11   11   12 ar
    12   12    7 ar
    13   13   12 1
    14   14   13 1
    15   15   14 1
    16   16    1 1
    17   17   18 ar
    18   18   19 ar
    19   19   20 ar
    20   20   21 ar
    21   21   22 ar
    22   22    2 1
    23   23    3 1
    24   24   23 2
    25   25   23 1
    26   26   25 1
    27   27    5 2
    28   28    6 1
    29   29   13 2
    30    4   16 1
    31   15   16 1
    32   17   22 ar
@<TRIPOS>SUBSTRUCTURE
     1 RES1 1

@<TRIPOS>CRYSIN
  14.3210    8.5430    8.3920  75.9700  90.8000  95.2100   2 1

