# MOL2 file generated by ConQuest
# Please check atom types

@<TRIPOS>MOLECULE
ZEJTUD
    37    38     1
SMALL
NO_CHARGES
****
Generated from CSD

@<TRIPOS>ATOM
      1 N1         0.0320   11.8130    4.6893 N.3       1 RES1    0.0000
      2 C1        -3.3300   13.4645    6.3603 C.ar      1 RES1    0.0000
      3 C2         1.4330   10.0491    4.3962 C.2       1 RES1    0.0000
      4 N2         0.2902   10.4824    4.8437 N.2       1 RES1    0.0000
      5 C3        -1.0727   12.3448    5.2704 C.ar      1 RES1    0.0000
      6 C4        -2.0041   11.5514    5.9967 C.ar      1 RES1    0.0000
      7 C5         1.8233    8.6762    4.5033 C.ar      1 RES1    0.0000
      8 C6        -1.2906   13.7205    5.1201 C.ar      1 RES1    0.0000
      9 O1        -4.6939   15.2931    6.8027 O.2       1 RES1    0.0000
     10 C7        -2.4446   14.2859    5.6846 C.ar      1 RES1    0.0000
     11 O2        -5.2948   13.3744    7.5880 O.2       1 RES1    0.0000
     12 C8         0.9847    7.6831    4.9723 C.ar      1 RES1    0.0000
     13 C9         2.6486    5.9586    4.7540 C.ar      1 RES1    0.0000
     14 C10        3.1079    8.2655    4.1572 C.ar      1 RES1    0.0000
     15 C11       -3.1136   12.1394    6.4989 C.ar      1 RES1    0.0000
     16 N3        -4.4971   14.0918    6.9604 N.pl3     1 RES1    0.0000
     17 N4         3.0348    4.6616    4.8453 N.3       1 RES1    0.0000
     18 C12        3.5318    6.9517    4.2941 C.ar      1 RES1    0.0000
     19 C13        1.3803    6.3609    5.1276 C.ar      1 RES1    0.0000
     20 C14        2.1430    3.6685    5.4032 C.3       1 RES1    0.0000
     21 C15        4.4229    4.2509    4.5133 C.3       1 RES1    0.0000
     22 H1         0.5940   12.3335    4.2178 H         1 RES1    0.0000
     23 H2         2.0229   10.6765    3.9687 H         1 RES1    0.0000
     24 H3        -1.8564   10.6090    6.1096 H         1 RES1    0.0000
     25 H4        -0.7099   14.2550    4.6129 H         1 RES1    0.0000
     26 H5        -2.5971   15.2312    5.6290 H         1 RES1    0.0000
     27 H6         0.0836    7.9194    5.2073 H         1 RES1    0.0000
     28 H7         3.7409    8.9238    3.8583 H         1 RES1    0.0000
     29 H8        -3.7543   11.6049    6.9762 H         1 RES1    0.0000
     30 H9         4.4140    6.7069    3.9920 H         1 RES1    0.0000
     31 H10        0.7746    5.7194    5.5061 H         1 RES1    0.0000
     32 H11        1.2756    4.0427    5.5717 H         1 RES1    0.0000
     33 H12        2.0603    2.9315    4.7930 H         1 RES1    0.0000
     34 H13        2.5239    3.3591    6.2283 H         1 RES1    0.0000
     35 H14        4.9307    4.9739    4.1339 H         1 RES1    0.0000
     36 H15        4.8450    3.9527    5.3218 H         1 RES1    0.0000
     37 H16        4.3814    3.5251    3.8866 H         1 RES1    0.0000
@<TRIPOS>BOND
     1    1    4 1
     2    2   10 ar
     3    3    4 2
     4    5    1 1
     5    6    5 ar
     6    7    3 1
     7    8    5 ar
     8    9   16 2
     9   10    8 ar
    10   11   16 2
    11   12    7 ar
    12   13   17 1
    13   14    7 ar
    14   15    2 ar
    15   16    2 1
    16   17   20 1
    17   18   13 ar
    18   19   12 ar
    19   20   32 1
    20   21   17 1
    21   22    1 1
    22   23    3 1
    23   24    6 1
    24   25    8 1
    25   26   10 1
    26   27   12 1
    27   28   14 1
    28   29   15 1
    29   30   18 1
    30   31   19 1
    31   33   20 1
    32   34   20 1
    33   35   21 1
    34   36   21 1
    35   37   21 1
    36    6   15 ar
    37   13   19 ar
    38   14   18 ar
@<TRIPOS>SUBSTRUCTURE
     1 RES1 1

@<TRIPOS>CRYSIN
   6.2810   28.1330    8.3800  90.0000  97.8700  90.0000   9 1

