# MOL2 file generated by ConQuest
# Please check atom types

@<TRIPOS>MOLECULE
ZEKMAF
   103   108     1
SMALL
NO_CHARGES
****
Generated from CSD

@<TRIPOS>ATOM
      1 C1        -1.0207    5.3900    5.5090 C.3       1 RES1    0.0000
      2 H1        -0.9443    6.3680    5.6487 H         1 RES1    0.0000
      3 H2        -0.7347    4.9503    6.3475 H         1 RES1    0.0000
      4 C2        -2.5010    5.0613    5.2851 C.3       1 RES1    0.0000
      5 H3        -2.8625    5.5305    4.4931 H         1 RES1    0.0000
      6 H4        -2.6445    4.0867    5.1829 H         1 RES1    0.0000
      7 C3        -4.4369    5.4444    6.7577 C.ar      1 RES1    0.0000
      8 C4        -4.8410    5.7209    8.0035 C.ar      1 RES1    0.0000
      9 H5        -4.1928    5.9476    8.6602 H         1 RES1    0.0000
     10 C5        -6.1514    5.6869    8.3551 C.ar      1 RES1    0.0000
     11 H6        -6.4009    5.9204    9.2417 H         1 RES1    0.0000
     12 C6        -7.1537    5.3095    7.4219 C.ar      1 RES1    0.0000
     13 C7        -6.6904    5.0149    6.1581 C.ar      1 RES1    0.0000
     14 H7        -7.3340    4.7735    5.5015 H         1 RES1    0.0000
     15 C8        -5.3467    5.0421    5.7614 C.ar      1 RES1    0.0000
     16 H8        -5.0707    4.8052    4.8838 H         1 RES1    0.0000
     17 C9        -8.5914    5.2630    7.7270 C.2       1 RES1    0.0000
     18 C10      -10.1664    5.7798    9.5453 C.ar      1 RES1    0.0000
     19 C11      -11.3994    5.4954    8.8976 C.ar      1 RES1    0.0000
     20 H9       -11.3809    5.1928    7.9975 H         1 RES1    0.0000
     21 C12      -12.5780    5.6370    9.5017 C.ar      1 RES1    0.0000
     22 H10      -13.3753    5.4829    9.0073 H         1 RES1    0.0000
     23 C13      -12.6679    6.0065   10.8466 C.ar      1 RES1    0.0000
     24 H11      -13.5116    6.1176   11.2659 H         1 RES1    0.0000
     25 C14      -11.5102    6.2014   11.5394 C.ar      1 RES1    0.0000
     26 H12      -11.5412    6.3850   12.4711 H         1 RES1    0.0000
     27 C15      -10.2988    6.1346   10.8932 C.ar      1 RES1    0.0000
     28 C16       -0.1650    5.8524    3.3135 C.3       1 RES1    0.0000
     29 H13       -0.7753    6.6094    3.4998 H         1 RES1    0.0000
     30 H14       -0.5392    5.3390    2.5546 H         1 RES1    0.0000
     31 C17        1.2335    6.4009    2.9243 C.3       1 RES1    0.0000
     32 H15        1.5877    6.9743    3.6501 H         1 RES1    0.0000
     33 H16        1.8644    5.6518    2.7815 H         1 RES1    0.0000
     34 C18        2.2104    7.3732    0.9753 C.ar      1 RES1    0.0000
     35 C19        1.9621    7.8526   -0.3291 C.ar      1 RES1    0.0000
     36 H17        1.0692    8.0238   -0.6056 H         1 RES1    0.0000
     37 C20        2.9495    8.0646   -1.1661 C.ar      1 RES1    0.0000
     38 H18        2.7602    8.4261   -2.0242 H         1 RES1    0.0000
     39 C21        4.3181    7.7654   -0.8205 C.ar      1 RES1    0.0000
     40 C22        4.5303    7.2599    0.4628 C.ar      1 RES1    0.0000
     41 H19        5.4128    7.0355    0.7318 H         1 RES1    0.0000
     42 C23        3.4699    7.0718    1.3720 C.ar      1 RES1    0.0000
     43 H20        3.6354    6.7397    2.2466 H         1 RES1    0.0000
     44 C24        5.3247    8.0272   -1.8108 C.2       1 RES1    0.0000
     45 C25        7.8152    7.8889   -2.1744 C.ar      1 RES1    0.0000
     46 C26        7.8675    8.3388   -3.5043 C.ar      1 RES1    0.0000
     47 H21        7.0403    8.5281   -3.9326 H         1 RES1    0.0000
     48 C27        9.0159    8.5269   -4.2317 C.ar      1 RES1    0.0000
     49 H22        8.9926    8.8216   -5.1333 H         1 RES1    0.0000
     50 C28       10.2198    8.2618   -3.5780 C.ar      1 RES1    0.0000
     51 H23       11.0342    8.4476   -4.0303 H         1 RES1    0.0000
     52 C29       10.2752    7.7382   -2.2916 C.ar      1 RES1    0.0000
     53 H24       11.1060    7.4820   -1.9115 H         1 RES1    0.0000
     54 C30        9.0611    7.5908   -1.5478 C.ar      1 RES1    0.0000
     55 C31       -0.0156    3.5790    4.1730 C.3       1 RES1    0.0000
     56 H25       -0.8018    3.3285    3.6276 H         1 RES1    0.0000
     57 H26       -0.0777    3.0848    5.0281 H         1 RES1    0.0000
     58 C32        1.2170    3.1302    3.4578 C.3       1 RES1    0.0000
     59 H27        2.0094    3.6118    3.8034 H         1 RES1    0.0000
     60 H28        1.3559    2.1589    3.5870 H         1 RES1    0.0000
     61 C33        2.1584    3.5042    1.2247 C.ar      1 RES1    0.0000
     62 C34        1.9173    4.0878    0.0286 C.ar      1 RES1    0.0000
     63 H29        1.0370    4.3632   -0.1984 H         1 RES1    0.0000
     64 C35        2.9430    4.2805   -0.8550 C.ar      1 RES1    0.0000
     65 H30        2.7748    4.7327   -1.6725 H         1 RES1    0.0000
     66 C36        4.2524    3.8204   -0.5725 C.ar      1 RES1    0.0000
     67 C37        4.4229    3.1755    0.7093 C.ar      1 RES1    0.0000
     68 H31        5.2841    2.8672    0.9662 H         1 RES1    0.0000
     69 C38        3.3929    3.0078    1.5358 C.ar      1 RES1    0.0000
     70 H32        3.5173    2.5363    2.3503 H         1 RES1    0.0000
     71 C39        5.2630    4.0311   -1.5313 C.2       1 RES1    0.0000
     72 C40        7.7691    3.8634   -1.8363 C.ar      1 RES1    0.0000
     73 C41        7.8271    4.3043   -3.1587 C.ar      1 RES1    0.0000
     74 H33        7.0222    4.5547   -3.5945 H         1 RES1    0.0000
     75 C42        9.0087    4.3881   -3.8485 C.ar      1 RES1    0.0000
     76 H34        9.0140    4.6783   -4.7531 H         1 RES1    0.0000
     77 C43       10.2126    4.0402   -3.2083 C.ar      1 RES1    0.0000
     78 H35       11.0350    4.0821   -3.6802 H         1 RES1    0.0000
     79 C44       10.1865    3.6345   -1.8814 C.ar      1 RES1    0.0000
     80 H36       10.9954    3.4622   -1.4141 H         1 RES1    0.0000
     81 C45        8.9916    3.4894   -1.2638 C.ar      1 RES1    0.0000
     82 N1        -0.0906    5.0115    4.4616 N.3       1 RES1    0.0000
     83 N2        -8.9332    5.7107    8.9352 N.am      1 RES1    0.0000
     84 H37       -8.2626    6.0099    9.4205 H         1 RES1    0.0000
     85 N3        -9.1049    6.3408   11.7422 N.pl3     1 RES1    0.0000
     86 N4         6.6321    7.7246   -1.4757 N.am      1 RES1    0.0000
     87 H38        6.7269    7.3653   -0.6792 H         1 RES1    0.0000
     88 N5         9.1850    7.1613   -0.2254 N.pl3     1 RES1    0.0000
     89 N6         6.5759    3.8045   -1.1195 N.am      1 RES1    0.0000
     90 H39        6.6641    3.5914   -0.2705 H         1 RES1    0.0000
     91 N7         9.0923    3.0010    0.1127 N.pl3     1 RES1    0.0000
     92 O1        -3.0765    5.5543    6.4963 O.3       1 RES1    0.0000
     93 O2        -9.3897    4.7995    6.8975 O.2       1 RES1    0.0000
     94 O3        -8.0301    6.5527   11.2268 O.2       1 RES1    0.0000
     95 O4        -9.2559    6.3612   12.9399 O.2       1 RES1    0.0000
     96 O5         1.0981    7.1432    1.7507 O.3       1 RES1    0.0000
     97 O6         5.0673    8.4884   -2.9528 O.2       1 RES1    0.0000
     98 O7         8.1939    6.7057    0.4148 O.2       1 RES1    0.0000
     99 O8        10.2582    7.2293    0.3066 O.2       1 RES1    0.0000
    100 O9         1.0272    3.4192    2.0978 O.3       1 RES1    0.0000
    101 O10        5.0372    4.4187   -2.6808 O.2       1 RES1    0.0000
    102 O11        8.1218    2.7177    0.7273 O.2       1 RES1    0.0000
    103 O12       10.1291    2.8808    0.6522 O.2       1 RES1    0.0000
@<TRIPOS>BOND
     1    1    2 1
     2    3    1 1
     3    4    1 1
     4    5    4 1
     5    6    4 1
     6    7    8 ar
     7    8    9 1
     8   10    8 ar
     9   11   10 1
    10   12   10 ar
    11   13   12 ar
    12   14   13 1
    13   15    7 ar
    14   16   15 1
    15   17   12 1
    16   18   19 ar
    17   19   20 1
    18   21   19 ar
    19   22   21 1
    20   23   21 ar
    21   24   23 1
    22   25   23 ar
    23   26   25 1
    24   27   18 ar
    25   28   29 1
    26   30   28 1
    27   31   28 1
    28   32   31 1
    29   33   31 1
    30   34   35 ar
    31   35   36 1
    32   37   35 ar
    33   38   37 1
    34   39   37 ar
    35   40   39 ar
    36   41   40 1
    37   42   34 ar
    38   43   42 1
    39   44   39 1
    40   45   46 ar
    41   46   47 1
    42   48   46 ar
    43   49   48 1
    44   50   48 ar
    45   51   50 1
    46   52   50 ar
    47   53   52 1
    48   54   45 ar
    49   55   56 1
    50   57   55 1
    51   58   55 1
    52   59   58 1
    53   60   58 1
    54   61   62 ar
    55   62   63 1
    56   64   62 ar
    57   65   64 1
    58   66   64 ar
    59   67   66 ar
    60   68   67 1
    61   69   61 ar
    62   70   69 1
    63   71   66 1
    64   72   73 ar
    65   73   74 1
    66   75   73 ar
    67   76   75 1
    68   77   75 ar
    69   78   77 1
    70   79   77 ar
    71   80   79 1
    72   81   72 ar
    73   82    1 1
    74   83   17 1
    75   84   83 1
    76   85   27 1
    77   86   44 1
    78   87   86 1
    79   88   54 1
    80   89   71 1
    81   90   89 1
    82   91   81 1
    83   92    4 1
    84   93   17 2
    85   94   85 2
    86   95   85 2
    87   96   31 1
    88   97   44 2
    89   98   88 2
    90   99   88 2
    91  100   58 1
    92  101   71 2
    93  102   91 2
    94  103   91 2
    95    7   92 1
    96   13   15 ar
    97   18   83 1
    98   25   27 ar
    99   28   82 1
   100   34   96 1
   101   40   42 ar
   102   45   86 1
   103   52   54 ar
   104   55   82 1
   105   61  100 1
   106   67   69 ar
   107   72   89 1
   108   79   81 ar
@<TRIPOS>SUBSTRUCTURE
     1 RES1 1

@<TRIPOS>CRYSIN
  23.3270   11.3330   15.2450  90.0000  99.6970  90.0000  14 1

