# MOL2 file generated by ConQuest
# Please check atom types

@<TRIPOS>MOLECULE
ZEKNIO
    37    38     1
SMALL
NO_CHARGES
****
Generated from CSD

@<TRIPOS>ATOM
      1 O1         1.0846   21.1656   15.6955 O.3       1 RES1    0.0000
      2 O2         1.1217   22.0094   17.7580 O.2       1 RES1    0.0000
      3 O3        -0.6103   14.6638   11.1715 O.2       1 RES1    0.0000
      4 O4        -1.3978   13.1582   12.5029 O.2       1 RES1    0.0000
      5 N1         0.0705   17.6019   16.6814 N.pl3     1 RES1    0.0000
      6 H1        -0.1069   17.3656   17.5571 H         1 RES1    0.0000
      7 N2         0.4392   18.8660   16.4742 N.2       1 RES1    0.0000
      8 N3         0.1160   18.1395   19.2276 N.ar      1 RES1    0.0000
      9 N4        -0.9064   14.2676   12.2954 N.pl3     1 RES1    0.0000
     10 C1         0.6965   19.6666   17.4733 C.2       1 RES1    0.0000
     11 C2         0.9986   21.0613   17.0219 C.2       1 RES1    0.0000
     12 C3         1.2499   22.5100   15.1746 C.3       1 RES1    0.0000
     13 H2         2.0587   22.9106   15.5848 H         1 RES1    0.0000
     14 H3         0.4679   23.0459   15.4459 H         1 RES1    0.0000
     15 C4         1.3589   22.3835   13.6867 C.3       1 RES1    0.0000
     16 H4         2.2058   21.8454   13.4417 H         1 RES1    0.0000
     17 H5         1.4371   23.2729   13.3141 H         1 RES1    0.0000
     18 H6         0.5815   21.9748   13.2959 H         1 RES1    0.0000
     19 C5         0.6831   19.3279   18.9158 C.ar      1 RES1    0.0000
     20 C6         1.2466   20.1383   19.9045 C.ar      1 RES1    0.0000
     21 H7         1.6643   20.9773   19.6478 H         1 RES1    0.0000
     22 C7         1.1878   19.7287   21.2209 C.ar      1 RES1    0.0000
     23 H8         1.5908   20.3043   21.9094 H         1 RES1    0.0000
     24 C8         0.5862   18.5307   21.5386 C.ar      1 RES1    0.0000
     25 H9         0.5080   18.2197   22.4560 H         1 RES1    0.0000
     26 C9         0.0775   17.7692   20.5126 C.ar      1 RES1    0.0000
     27 H10       -0.3208   16.9037   20.6681 H         1 RES1    0.0000
     28 C10       -0.1611   16.7930   15.5777 C.ar      1 RES1    0.0000
     29 C11        0.1317   17.2250   14.2844 C.ar      1 RES1    0.0000
     30 H11        0.4879   18.1023   14.1454 H         1 RES1    0.0000
     31 C12       -0.1150   16.3994   13.2103 C.ar      1 RES1    0.0000
     32 H12        0.1069   16.6767   12.3212 H         1 RES1    0.0000
     33 C13       -0.6604   15.1456   13.4317 C.ar      1 RES1    0.0000
     34 C14       -0.9518   14.6962   14.7107 C.ar      1 RES1    0.0000
     35 H13       -1.2967   13.8395   14.8423 H         1 RES1    0.0000
     36 C15       -0.6992   15.5189   15.7857 C.ar      1 RES1    0.0000
     37 H14       -0.9157   15.2332   16.7099 H         1 RES1    0.0000
@<TRIPOS>BOND
     1    1   11 1
     2    2   11 2
     3    3    9 2
     4    4    9 2
     5    5    6 1
     6    7    5 1
     7    8   19 ar
     8    9   33 1
     9   10    7 2
    10   11   10 1
    11   12    1 1
    12   13   12 1
    13   14   12 1
    14   15   12 1
    15   16   15 1
    16   17   15 1
    17   18   15 1
    18   19   10 1
    19   20   19 ar
    20   21   20 1
    21   22   20 ar
    22   23   22 1
    23   24   22 ar
    24   25   24 1
    25   26    8 ar
    26   27   26 1
    27   28    5 1
    28   29   28 ar
    29   30   29 1
    30   31   29 ar
    31   32   31 1
    32   33   31 ar
    33   34   33 ar
    34   35   34 1
    35   36   28 ar
    36   37   36 1
    37   24   26 ar
    38   34   36 ar
@<TRIPOS>SUBSTRUCTURE
     1 RES1 1

@<TRIPOS>CRYSIN
   6.6841   19.9101   22.7748  90.0000  90.0000  90.0000  61 1

