# MOL2 file generated by ConQuest
# Please check atom types

@<TRIPOS>MOLECULE
ZELNUZ
    37    40     1
SMALL
NO_CHARGES
****
Generated from CSD

@<TRIPOS>ATOM
      1 O1         6.3293    9.2889    8.8449 O.2       1 RES1    0.0000
      2 O2         5.3966    7.3646    9.5187 O.3       1 RES1    0.0000
      3 N1         5.3552    6.0868    9.0299 N.pl3     1 RES1    0.0000
      4 N2         6.0650    4.8315    7.1773 N.2       1 RES1    0.0000
      5 C1         6.1999    8.1279    8.5828 C.2       1 RES1    0.0000
      6 C2         4.6626    5.0899    9.6217 C.2       1 RES1    0.0000
      7 C3         4.6717    3.9235    8.9064 C.2       1 RES1    0.0000
      8 C4         5.3750    3.8249    7.6939 C.2       1 RES1    0.0000
      9 C5         6.0456    5.9936    7.8486 C.2       1 RES1    0.0000
     10 C6         6.6052    7.2456    7.5565 C.2       1 RES1    0.0000
     11 C7         7.4652    7.6305    6.4355 C.ar      1 RES1    0.0000
     12 C8         7.7598    6.7590    5.3855 C.ar      1 RES1    0.0000
     13 C9         8.5668    7.1642    4.3388 C.ar      1 RES1    0.0000
     14 C10        9.1082    8.4366    4.3135 C.ar      1 RES1    0.0000
     15 C11        8.8406    9.2964    5.3461 C.ar      1 RES1    0.0000
     16 C12        8.0205    8.9190    6.3850 C.ar      1 RES1    0.0000
     17 C13        3.9989    5.2817   10.9227 C.ar      1 RES1    0.0000
     18 C14        4.5318    6.0707   11.9332 C.ar      1 RES1    0.0000
     19 C15        3.9034    6.1490   13.1536 C.ar      1 RES1    0.0000
     20 C16        2.7323    5.4543   13.3920 C.ar      1 RES1    0.0000
     21 C17        2.2036    4.6653   12.4005 C.ar      1 RES1    0.0000
     22 C18        2.8235    4.5742   11.1769 C.ar      1 RES1    0.0000
     23 C19        5.3660    2.5524    6.9186 C.3       1 RES1    0.0000
     24 H1         4.1963    3.1688    9.2349 H         1 RES1    0.0000
     25 H2         7.4023    5.8788    5.3919 H         1 RES1    0.0000
     26 H3         8.7504    6.5617    3.6283 H         1 RES1    0.0000
     27 H4         9.6597    8.7111    3.5888 H         1 RES1    0.0000
     28 H5         9.2271   10.1636    5.3461 H         1 RES1    0.0000
     29 H6         7.8265    9.5397    7.0781 H         1 RES1    0.0000
     30 H7         5.3337    6.5574   11.7800 H         1 RES1    0.0000
     31 H8         4.2792    6.6861   13.8420 H         1 RES1    0.0000
     32 H9         2.2966    5.5229   14.2336 H         1 RES1    0.0000
     33 H10        1.4027    4.1797   12.5600 H         1 RES1    0.0000
     34 H11        2.4485    4.0243   10.4980 H         1 RES1    0.0000
     35 H12        4.8478    1.9039    7.3812 H         1 RES1    0.0000
     36 H13        4.9878    2.7068    6.0613 H         1 RES1    0.0000
     37 H14        6.2561    2.2351    6.8207 H         1 RES1    0.0000
@<TRIPOS>BOND
     1    1    5 2
     2    2    3 1
     3    3    6 1
     4    4    8 2
     5    5    2 1
     6    6    7 2
     7    7    8 1
     8    8   23 1
     9    9    3 1
    10   10    5 1
    11   11   10 1
    12   12   11 ar
    13   13   12 ar
    14   14   13 ar
    15   15   14 ar
    16   16   11 ar
    17   17    6 1
    18   18   17 ar
    19   19   18 ar
    20   20   19 ar
    21   21   20 ar
    22   22   17 ar
    23   23   35 1
    24   24    7 1
    25   25   12 1
    26   26   13 1
    27   27   14 1
    28   28   15 1
    29   29   16 1
    30   30   18 1
    31   31   19 1
    32   32   20 1
    33   33   21 1
    34   34   22 1
    35   36   23 1
    36   37   23 1
    37    4    9 1
    38    9   10 2
    39   15   16 ar
    40   21   22 ar
@<TRIPOS>SUBSTRUCTURE
     1 RES1 1

@<TRIPOS>CRYSIN
   8.7040   10.7200   15.8740  90.0000  95.9400  90.0000  14 1

