# MOL2 file generated by ConQuest
# Please check atom types

@<TRIPOS>MOLECULE
ZELNOT
    27    29     1
SMALL
NO_CHARGES
****
Generated from CSD

@<TRIPOS>ATOM
      1 O1         5.7626    1.9086    2.6898 O.2       1 RES1    0.0000
      2 O2         5.0190    3.9443    2.0784 O.3       1 RES1    0.0000
      3 N1         5.6226    5.1121    1.7113 N.pl3     1 RES1    0.0000
      4 N2         7.7292    6.0831    1.4819 N.2       1 RES1    0.0000
      5 C1         6.0928    3.0218    2.3707 C.2       1 RES1    0.0000
      6 C2         4.9510    6.2233    1.3851 C.2       1 RES1    0.0000
      7 C3         5.7030    7.3033    1.1006 C.2       1 RES1    0.0000
      8 C4         7.0958    7.2034    1.1677 C.2       1 RES1    0.0000
      9 C5         6.9833    5.0071    1.7763 C.2       1 RES1    0.0000
     10 C6         7.3077    3.7122    2.1744 C.2       1 RES1    0.0000
     11 C7         8.6324    3.1268    2.3545 C.ar      1 RES1    0.0000
     12 C8         9.7885    3.9030    2.2366 C.ar      1 RES1    0.0000
     13 C9        11.0412    3.3297    2.3771 C.ar      1 RES1    0.0000
     14 C10       11.1778    1.9954    2.6376 C.ar      1 RES1    0.0000
     15 C11       10.0492    1.2192    2.7788 C.ar      1 RES1    0.0000
     16 C12        8.8009    1.7723    2.6482 C.ar      1 RES1    0.0000
     17 C13        7.9521    8.4044    0.8987 C.3       1 RES1    0.0000
     18 H1         4.0029    6.2496    1.3576 H         1 RES1    0.0000
     19 H2         5.2917    8.1239    0.8564 H         1 RES1    0.0000
     20 H3         9.7128    4.8325    2.0587 H         1 RES1    0.0000
     21 H4        11.8166    3.8717    2.2909 H         1 RES1    0.0000
     22 H5        12.0412    1.6078    2.7202 H         1 RES1    0.0000
     23 H6        10.1370    0.2927    2.9680 H         1 RES1    0.0000
     24 H7         8.0346    1.2213    2.7597 H         1 RES1    0.0000
     25 H8         8.5547    8.2117    0.1899 H         1 RES1    0.0000
     26 H9         7.4011    9.1382    0.6545 H         1 RES1    0.0000
     27 H10        8.4446    8.6245    1.6810 H         1 RES1    0.0000
@<TRIPOS>BOND
     1    1    5 2
     2    2    3 1
     3    3    6 1
     4    4    8 2
     5    5    2 1
     6    6    7 2
     7    7    8 1
     8    8   17 1
     9    9    3 1
    10   10    5 1
    11   11   10 1
    12   12   11 ar
    13   13   12 ar
    14   14   13 ar
    15   15   14 ar
    16   16   11 ar
    17   17   25 1
    18   18    6 1
    19   19    7 1
    20   20   12 1
    21   21   13 1
    22   22   14 1
    23   23   15 1
    24   24   16 1
    25   26   17 1
    26   27   17 1
    27    4    9 1
    28    9   10 2
    29   15   16 ar
@<TRIPOS>SUBSTRUCTURE
     1 RES1 1

@<TRIPOS>CRYSIN
  15.3440   10.0930    7.0600  90.0000  90.3400  90.0000 231 1

