# MOL2 file generated by ConQuest
# Please check atom types

@<TRIPOS>MOLECULE
ZELQOW
    16    16     1
SMALL
NO_CHARGES
****
Generated from CSD

@<TRIPOS>ATOM
      1 C1         3.1716    3.8015    3.1225 C.2       1 RES1    0.0000
      2 C2         3.8545    4.3098    2.0096 C.2       1 RES1    0.0000
      3 C3         1.7034    1.9531    0.4647 C.3       1 RES1    0.0000
      4 N1         2.2775    2.8725    2.6549 N.pl3     1 RES1    0.0000
      5 N2         3.3314    4.1175    4.4783 N.pl3     1 RES1    0.0000
      6 N3         3.3826    3.7158    0.8996 N.2       1 RES1    0.0000
      7 N4         2.4343    2.8564    1.3331 N.pl3     1 RES1    0.0000
      8 N5         4.8332    5.2178    1.9656 N.3       1 RES1    0.0000
      9 O1         2.6255    3.5835    5.3240 O.2       1 RES1    0.0000
     10 O2         4.2043    4.9494    4.7327 O.2       1 RES1    0.0000
     11 O3         1.4350    2.1396    3.2504 O.2       1 RES1    0.0000
     12 H1         5.1409    5.5966    2.6861 H         1 RES1    0.0000
     13 H2         5.1280    5.4443    1.2365 H         1 RES1    0.0000
     14 H3         0.8228    1.8275    0.7390 H         1 RES1    0.0000
     15 H4         2.0473    1.1422    0.5401 H         1 RES1    0.0000
     16 H5         1.6503    2.7317   -0.3837 H         1 RES1    0.0000
@<TRIPOS>BOND
     1    1    2 1
     2    2    6 2
     3    3    7 1
     4    4    1 2
     5    5    1 1
     6    6    7 1
     7    7    4 1
     8    8    2 1
     9    9    5 2
    10   10    5 2
    11   11    4 1
    12   12    8 1
    13   13    8 1
    14   14    3 1
    15   15    3 1
    16   16    3 1
@<TRIPOS>SUBSTRUCTURE
     1 RES1 1

@<TRIPOS>CRYSIN
   4.6011    9.5180   14.4610  90.0000 100.6400  90.0000  14 1

