# MOL2 file generated by ConQuest
# Please check atom types

@<TRIPOS>MOLECULE
ZELSUE
    60    65     1
SMALL
NO_CHARGES
****
Generated from CSD

@<TRIPOS>ATOM
      1 O1         3.4421    4.4236   13.7144 O.3       1 RES1    0.0000
      2 C1         2.3784    3.6303   13.1244 C.3       1 RES1    0.0000
      3 C2         2.1671    4.0530   11.7142 C.ar      1 RES1    0.0000
      4 C3         1.4705    5.1994   11.3797 C.ar      1 RES1    0.0000
      5 C4         1.3433    5.6047   10.1229 C.ar      1 RES1    0.0000
      6 C5         1.8332    4.8404    9.0940 C.ar      1 RES1    0.0000
      7 C6         2.5486    3.6940    9.3901 C.ar      1 RES1    0.0000
      8 C7         2.6852    3.3061   10.6852 C.ar      1 RES1    0.0000
      9 N1         1.2255    3.9314   14.0042 N.am      1 RES1    0.0000
     10 C8         0.1497    3.0282   13.9019 C.2       1 RES1    0.0000
     11 O2         0.2432    2.0786   13.1819 O.2       1 RES1    0.0000
     12 C9        -1.1123    3.3814   14.5964 C.ar      1 RES1    0.0000
     13 C10       -1.6583    2.4781   15.4847 C.ar      1 RES1    0.0000
     14 C11       -2.8447    2.7387   16.1131 C.ar      1 RES1    0.0000
     15 C12       -3.5417    3.8967   15.8362 C.ar      1 RES1    0.0000
     16 C13       -3.0353    4.7594   14.9202 C.ar      1 RES1    0.0000
     17 C14       -1.8200    4.5336   14.2726 C.ar      1 RES1    0.0000
     18 C15        1.6676    4.4988   15.2290 C.3       1 RES1    0.0000
     19 C16        3.0681    4.9968   14.8562 C.2       1 RES1    0.0000
     20 O3         3.7453    5.7379   15.4804 O.2       1 RES1    0.0000
     21 C17        0.8639    5.5758   15.9384 C.3       1 RES1    0.0000
     22 C18        1.2213    5.4542   17.3678 C.3       1 RES1    0.0000
     23 C19        0.0839    5.8016   18.2859 C.ar      1 RES1    0.0000
     24 C20        0.0580    6.9827   18.9399 C.ar      1 RES1    0.0000
     25 C21       -1.0469    7.3707   19.7281 C.ar      1 RES1    0.0000
     26 C22       -2.0946    6.4732   19.8495 C.ar      1 RES1    0.0000
     27 C23       -2.0700    5.3152   19.1977 C.ar      1 RES1    0.0000
     28 C24       -0.9608    4.9273   18.4286 C.ar      1 RES1    0.0000
     29 N2         1.6761    4.0356   17.5254 N.3       1 RES1    0.0000
     30 C25        2.7743    3.7519   18.3243 C.ar      1 RES1    0.0000
     31 C26        3.6247    2.6808   18.0346 C.ar      1 RES1    0.0000
     32 C27        4.6193    2.3565   18.9293 C.ar      1 RES1    0.0000
     33 C28        4.8252    3.0803   20.0881 C.ar      1 RES1    0.0000
     34 C29        3.9847    4.1283   20.3480 C.ar      1 RES1    0.0000
     35 C30        2.9975    4.4699   19.4810 C.ar      1 RES1    0.0000
     36 O4         1.7942    3.4682   16.2175 O.3       1 RES1    0.0000
     37 H1         2.7644    2.7144   13.2011 H         1 RES1    0.0000
     38 H2         1.0914    5.7159   12.0465 H         1 RES1    0.0000
     39 H3         0.7821    6.3418    9.8033 H         1 RES1    0.0000
     40 H4         1.6954    5.2075    8.1290 H         1 RES1    0.0000
     41 H5         3.0061    3.0646    8.5337 H         1 RES1    0.0000
     42 H6         3.2336    2.5308   10.9814 H         1 RES1    0.0000
     43 H7        -1.4615    5.0657   13.4950 H         1 RES1    0.0000
     44 H8        -3.5368    5.5318   14.6496 H         1 RES1    0.0000
     45 H9        -4.3157    4.1410   16.3069 H         1 RES1    0.0000
     46 H10       -3.1518    2.3368   16.8480 H         1 RES1    0.0000
     47 H11       -1.0252    1.7468   15.7467 H         1 RES1    0.0000
     48 H12        0.9500    6.3441   15.5614 H         1 RES1    0.0000
     49 H13       -0.0605    5.3604   15.7680 H         1 RES1    0.0000
     50 H14        1.9843    6.0853   17.6383 H         1 RES1    0.0000
     51 H15        0.8822    7.4882   18.8206 H         1 RES1    0.0000
     52 H16       -0.9582    8.1442   20.2777 H         1 RES1    0.0000
     53 H17       -2.9108    6.6950   20.1818 H         1 RES1    0.0000
     54 H18       -2.8875    4.6245   19.2573 H         1 RES1    0.0000
     55 H19       -1.1564    4.1277   18.0196 H         1 RES1    0.0000
     56 H20        3.2672    2.1226   17.1484 H         1 RES1    0.0000
     57 H21        5.1954    1.5372   18.6353 H         1 RES1    0.0000
     58 H22        5.4660    2.8510   20.6505 H         1 RES1    0.0000
     59 H23        4.1408    4.7032   21.2469 H         1 RES1    0.0000
     60 H24        2.4288    5.1514   19.7600 H         1 RES1    0.0000
@<TRIPOS>BOND
     1    1    2 1
     2    2    3 1
     3    3    4 ar
     4    4    5 ar
     5    5    6 ar
     6    6    7 ar
     7    7    8 ar
     8    8    3 ar
     9    9    2 1
    10   10    9 1
    11   11   10 2
    12   12   10 1
    13   13   12 ar
    14   14   13 ar
    15   15   14 ar
    16   16   15 ar
    17   17   12 ar
    18   18    9 1
    19   19    1 1
    20   20   19 2
    21   21   18 1
    22   22   21 1
    23   23   22 1
    24   24   23 ar
    25   25   24 ar
    26   26   25 ar
    27   27   26 ar
    28   28   23 ar
    29   29   22 1
    30   30   29 1
    31   31   30 ar
    32   32   31 ar
    33   33   32 ar
    34   34   33 ar
    35   35   30 ar
    36   36   18 1
    37   37    2 1
    38   38    4 1
    39   39    5 1
    40   40    6 1
    41   41    7 1
    42   42    8 1
    43   43   17 1
    44   44   16 1
    45   45   15 1
    46   46   14 1
    47   47   13 1
    48   48   21 1
    49   49   21 1
    50   50   22 1
    51   51   24 1
    52   52   25 1
    53   53   26 1
    54   54   27 1
    55   55   28 1
    56   56   31 1
    57   57   32 1
    58   58   33 1
    59   59   34 1
    60   60   35 1
    61   16   17 ar
    62   18   19 1
    63   27   28 ar
    64   29   36 1
    65   34   35 ar
@<TRIPOS>SUBSTRUCTURE
     1 RES1 1

@<TRIPOS>CRYSIN
  10.0600    5.7900   21.3980  90.0000  95.4200  90.0000   4 1

