# MOL2 file generated by ConQuest
# Please check atom types

@<TRIPOS>MOLECULE
ZELTIT
    62    66     1
SMALL
NO_CHARGES
****
Generated from CSD

@<TRIPOS>ATOM
      1 O1         7.7955    3.9577   19.1870 O.3       1 RES1    0.0000
      2 C1         8.6761    3.5466   18.1198 C.3       1 RES1    0.0000
      3 C2         9.7243    4.5973   17.9410 C.ar      1 RES1    0.0000
      4 C3         9.4232    5.8315   17.4188 C.ar      1 RES1    0.0000
      5 C4        10.3783    6.8237   17.3362 C.ar      1 RES1    0.0000
      6 C5        11.6502    6.5644   17.7750 C.ar      1 RES1    0.0000
      7 C6        11.9606    5.3532   18.2938 C.ar      1 RES1    0.0000
      8 C7        11.0051    4.3720   18.3738 C.ar      1 RES1    0.0000
      9 N1         7.7774    3.3648   16.9731 N.am      1 RES1    0.0000
     10 C8         8.2865    2.6367   15.9167 C.2       1 RES1    0.0000
     11 O2         9.3855    2.1267   16.0262 O.2       1 RES1    0.0000
     12 C9         7.5361    2.5710   14.6340 C.ar      1 RES1    0.0000
     13 C10        7.0448    3.6961   14.0068 C.ar      1 RES1    0.0000
     14 C11        6.4658    3.5909   12.7473 C.ar      1 RES1    0.0000
     15 C12        6.3636    2.3955   12.1331 C.ar      1 RES1    0.0000
     16 C13        6.8656    1.2650   12.7473 C.ar      1 RES1    0.0000
     17 C14        7.4620    1.3496   13.9913 C.ar      1 RES1    0.0000
     18 C15        6.4075    3.7032   17.3032 C.3       1 RES1    0.0000
     19 C16        6.5303    4.0929   18.7635 C.2       1 RES1    0.0000
     20 O3         5.6613    4.4795   19.4890 O.2       1 RES1    0.0000
     21 C17        5.3386    2.6446   17.0911 C.3       1 RES1    0.0000
     22 C18        4.0983    3.4842   16.8201 C.3       1 RES1    0.0000
     23 C19        2.9922    2.7125   16.1490 C.ar      1 RES1    0.0000
     24 C20        1.8043    2.5062   16.8149 C.ar      1 RES1    0.0000
     25 C21        0.7527    1.8374   16.2135 C.ar      1 RES1    0.0000
     26 C22        0.9071    1.3638   14.9540 C.ar      1 RES1    0.0000
     27 C23        2.0839    1.5251   14.2804 C.ar      1 RES1    0.0000
     28 C24        3.1374    2.2168   14.8792 C.ar      1 RES1    0.0000
     29 N2         4.6654    4.5238   15.9407 N.3       1 RES1    0.0000
     30 C25        3.9598    5.8402   15.8548 C.3       1 RES1    0.0000
     31 C26        2.6247    5.5816   15.1605 C.3       1 RES1    0.0000
     32 C27        3.7244    6.5153   17.1917 C.3       1 RES1    0.0000
     33 C28        4.8261    6.7106   14.9566 C.3       1 RES1    0.0000
     34 O4         5.9602    4.8551   16.6110 O.3       1 RES1    0.0000
     35 H1         9.0838    2.6169   18.3712 H         1 RES1    0.0000
     36 H2         8.5350    6.0007   17.1556 H         1 RES1    0.0000
     37 H3        10.1012    7.7084   16.9568 H         1 RES1    0.0000
     38 H4        12.2954    7.1866   17.6795 H         1 RES1    0.0000
     39 H5        12.8595    5.1547   18.6603 H         1 RES1    0.0000
     40 H6        11.2145    3.5182   18.7506 H         1 RES1    0.0000
     41 H7         7.1142    4.5301   14.4533 H         1 RES1    0.0000
     42 H8         6.1958    4.4115   12.3369 H         1 RES1    0.0000
     43 H9         5.8725    2.3006   11.1755 H         1 RES1    0.0000
     44 H10        6.8302    0.4981   12.3886 H         1 RES1    0.0000
     45 H11        7.8616    0.5692   14.5308 H         1 RES1    0.0000
     46 H12        5.5816    2.1583   16.2652 H         1 RES1    0.0000
     47 H13        5.2219    2.0872   17.9118 H         1 RES1    0.0000
     48 H14        3.8016    3.8423   17.7027 H         1 RES1    0.0000
     49 H15        1.7164    2.8145   17.7337 H         1 RES1    0.0000
     50 H16       -0.1505    1.7472   16.7762 H         1 RES1    0.0000
     51 H17        0.2214    0.9329   14.5049 H         1 RES1    0.0000
     52 H18        2.2921    1.2096   13.3693 H         1 RES1    0.0000
     53 H19        3.9087    2.3797   14.4095 H         1 RES1    0.0000
     54 H20        2.7570    5.0915   14.2727 H         1 RES1    0.0000
     55 H21        1.9525    5.0757   15.7438 H         1 RES1    0.0000
     56 H22        2.2590    6.4829   14.9179 H         1 RES1    0.0000
     57 H23        3.1830    5.9532   17.8602 H         1 RES1    0.0000
     58 H24        3.2855    7.3605   17.0343 H         1 RES1    0.0000
     59 H25        4.6141    6.6727   17.6279 H         1 RES1    0.0000
     60 H26        4.3726    7.5423   14.7372 H         1 RES1    0.0000
     61 H27        5.6924    6.9178   15.4083 H         1 RES1    0.0000
     62 H28        5.0526    6.2299   14.0404 H         1 RES1    0.0000
@<TRIPOS>BOND
     1    1    2 1
     2    2    3 1
     3    3    4 ar
     4    4    5 ar
     5    5    6 ar
     6    6    7 ar
     7    7    8 ar
     8    8    3 ar
     9    9    2 1
    10   10    9 1
    11   11   10 2
    12   12   10 1
    13   13   12 ar
    14   14   13 ar
    15   15   14 ar
    16   16   15 ar
    17   17   12 ar
    18   18    9 1
    19   19    1 1
    20   20   19 2
    21   21   18 1
    22   22   21 1
    23   23   22 1
    24   24   23 ar
    25   25   24 ar
    26   26   25 ar
    27   27   26 ar
    28   28   23 ar
    29   29   22 1
    30   30   29 1
    31   31   30 1
    32   32   30 1
    33   33   30 1
    34   34   18 1
    35   35    2 1
    36   36    4 1
    37   37    5 1
    38   38    6 1
    39   39    7 1
    40   40    8 1
    41   41   13 1
    42   42   14 1
    43   43   15 1
    44   44   16 1
    45   45   17 1
    46   46   21 1
    47   47   21 1
    48   48   22 1
    49   49   24 1
    50   50   25 1
    51   51   26 1
    52   52   27 1
    53   53   28 1
    54   54   31 1
    55   55   31 1
    56   56   31 1
    57   57   32 1
    58   58   32 1
    59   59   32 1
    60   60   33 1
    61   61   33 1
    62   62   33 1
    63   16   17 ar
    64   18   19 1
    65   27   28 ar
    66   29   34 1
@<TRIPOS>SUBSTRUCTURE
     1 RES1 1

@<TRIPOS>CRYSIN
  12.0050    7.9060   26.7300  90.0000 105.0800  90.0000  14 1

