# MOL2 file generated by ConQuest
# Please check atom types

@<TRIPOS>MOLECULE
ZELTOZ
    53    57     1
SMALL
NO_CHARGES
****
Generated from CSD

@<TRIPOS>ATOM
      1 O1        -2.1021    4.4345    9.6948 O.3       1 RES1    0.0000
      2 C1        -2.6588    5.1288   10.8350 C.3       1 RES1    0.0000
      3 C2        -3.6893    4.2935   11.5099 C.ar      1 RES1    0.0000
      4 C3        -4.8099    3.8646   10.8284 C.ar      1 RES1    0.0000
      5 C4        -5.7591    3.1022   11.4593 C.ar      1 RES1    0.0000
      6 C5        -5.5889    2.7619   12.7839 C.ar      1 RES1    0.0000
      7 C6        -4.4944    3.1805   13.4681 C.ar      1 RES1    0.0000
      8 C7        -3.5410    3.9532   12.8344 C.ar      1 RES1    0.0000
      9 N1        -3.1824    6.3769   10.2621 N.am      1 RES1    0.0000
     10 C8        -3.3739    7.4263   11.1317 C.2       1 RES1    0.0000
     11 O2        -2.9069    7.3635   12.2540 O.2       1 RES1    0.0000
     12 C9        -4.2271    8.5655   10.7142 C.ar      1 RES1    0.0000
     13 C10       -5.4881    8.3460   10.2078 C.ar      1 RES1    0.0000
     14 C11       -6.3352    9.4174    9.9897 C.ar      1 RES1    0.0000
     15 C12       -5.9282   10.6851   10.2462 C.ar      1 RES1    0.0000
     16 C13       -4.6689   10.9160   10.7292 C.ar      1 RES1    0.0000
     17 C14       -3.8228    9.8582   10.9866 C.ar      1 RES1    0.0000
     18 C15       -3.1242    6.3720    8.8131 C.3       1 RES1    0.0000
     19 C16       -2.3220    5.1030    8.5538 C.2       1 RES1    0.0000
     20 O3        -1.9278    4.7146    7.5016 O.2       1 RES1    0.0000
     21 C17       -2.5166    7.5927    8.1382 C.3       1 RES1    0.0000
     22 C18       -3.3055    7.7251    6.8529 C.3       1 RES1    0.0000
     23 C19       -3.3136    9.1230    6.2876 C.ar      1 RES1    0.0000
     24 C20       -2.4440    9.4673    5.2794 C.ar      1 RES1    0.0000
     25 C21       -2.3960   10.7636    4.8058 C.ar      1 RES1    0.0000
     26 C22       -3.2426   11.7168    5.3075 C.ar      1 RES1    0.0000
     27 C23       -4.1103   11.3868    6.3119 C.ar      1 RES1    0.0000
     28 C24       -4.1497   10.1009    6.8061 C.ar      1 RES1    0.0000
     29 N2        -4.6437    7.3103    7.2891 N.3       1 RES1    0.0000
     30 C25       -5.4160    6.7113    6.1996 C.3       1 RES1    0.0000
     31 O4        -4.3841    6.1642    8.1934 O.3       1 RES1    0.0000
     32 H1        -1.9137    5.3253   11.4294 H         1 RES1    0.0000
     33 H2        -4.9062    4.1260    9.8661 H         1 RES1    0.0000
     34 H3        -6.4878    2.7883   10.9707 H         1 RES1    0.0000
     35 H4        -6.2875    2.2800   13.1798 H         1 RES1    0.0000
     36 H5        -4.3451    2.9431   14.3780 H         1 RES1    0.0000
     37 H6        -2.7877    4.2808   13.2734 H         1 RES1    0.0000
     38 H7        -5.7578    7.4566   10.0533 H         1 RES1    0.0000
     39 H8        -7.2242    9.2292    9.6976 H         1 RES1    0.0000
     40 H9        -6.5460   11.4433   10.0627 H         1 RES1    0.0000
     41 H10       -4.3737   11.8456   10.8677 H         1 RES1    0.0000
     42 H11       -3.0044   10.0225   11.3545 H         1 RES1    0.0000
     43 H12       -1.5471    7.4926    7.9753 H         1 RES1    0.0000
     44 H13       -2.6335    8.3723    8.6680 H         1 RES1    0.0000
     45 H14       -2.9418    7.1067    6.1780 H         1 RES1    0.0000
     46 H15       -1.8682    8.7605    4.9143 H         1 RES1    0.0000
     47 H16       -1.7917   10.9613    4.0906 H         1 RES1    0.0000
     48 H17       -3.2335   12.6475    4.9799 H         1 RES1    0.0000
     49 H18       -4.6686   12.0585    6.6835 H         1 RES1    0.0000
     50 H19       -4.7588    9.8318    7.5353 H         1 RES1    0.0000
     51 H20       -4.8464    5.9953    5.8130 H         1 RES1    0.0000
     52 H21       -5.5623    7.4805    5.6164 H         1 RES1    0.0000
     53 H22       -6.2201    6.3838    6.5150 H         1 RES1    0.0000
@<TRIPOS>BOND
     1    1    2 1
     2    2    3 1
     3    3    4 ar
     4    4    5 ar
     5    5    6 ar
     6    6    7 ar
     7    7    8 ar
     8    8    3 ar
     9    9    2 1
    10   10    9 1
    11   11   10 2
    12   12   10 1
    13   13   12 ar
    14   14   13 ar
    15   15   14 ar
    16   16   15 ar
    17   17   12 ar
    18   18    9 1
    19   19    1 1
    20   20   19 2
    21   21   18 1
    22   22   21 1
    23   23   22 1
    24   24   23 ar
    25   25   24 ar
    26   26   25 ar
    27   27   26 ar
    28   28   23 ar
    29   29   22 1
    30   30   29 1
    31   31   18 1
    32   32    2 1
    33   33    4 1
    34   34    5 1
    35   35    6 1
    36   36    7 1
    37   37    8 1
    38   38   13 1
    39   39   14 1
    40   40   15 1
    41   41   16 1
    42   42   17 1
    43   43   21 1
    44   44   21 1
    45   45   22 1
    46   46   24 1
    47   47   25 1
    48   48   26 1
    49   49   27 1
    50   50   28 1
    51   51   30 1
    52   52   30 1
    53   53   30 1
    54   16   17 ar
    55   18   19 1
    56   27   28 ar
    57   29   31 1
@<TRIPOS>SUBSTRUCTURE
     1 RES1 1

@<TRIPOS>CRYSIN
  12.1100   10.3610   10.1330  94.9100 108.2400 112.2600   2 1

