# MOL2 file generated by ConQuest
# Please check atom types

@<TRIPOS>MOLECULE
ZELTUF
    47    51     1
SMALL
NO_CHARGES
****
Generated from CSD

@<TRIPOS>ATOM
      1 O1         7.1451    7.3090    5.9477 O.3       1 RES1    0.0000
      2 C1         6.3845    6.8039    4.8380 C.3       1 RES1    0.0000
      3 C2         7.3123    6.4689    3.6996 C.ar      1 RES1    0.0000
      4 C3         7.7913    7.4460    2.8373 C.ar      1 RES1    0.0000
      5 C4         8.6853    7.1309    1.8478 C.ar      1 RES1    0.0000
      6 C5         9.1560    5.8374    1.7205 C.ar      1 RES1    0.0000
      7 C6         8.6887    4.8590    2.5595 C.ar      1 RES1    0.0000
      8 C7         7.7593    5.1754    3.5427 C.ar      1 RES1    0.0000
      9 N1         5.4180    7.8661    4.5554 N.am      1 RES1    0.0000
     10 C8         4.3621    7.5603    3.7412 C.2       1 RES1    0.0000
     11 O2         4.2086    6.4210    3.3385 O.2       1 RES1    0.0000
     12 C9         3.4647    8.6650    3.3089 C.ar      1 RES1    0.0000
     13 C10        3.9387    9.6767    2.4755 C.ar      1 RES1    0.0000
     14 C11        3.0784   10.6445    2.0215 C.ar      1 RES1    0.0000
     15 C12        1.7442   10.6312    2.4090 C.ar      1 RES1    0.0000
     16 C13        1.2786    9.6435    3.2272 C.ar      1 RES1    0.0000
     17 C14        2.1287    8.6424    3.6756 C.ar      1 RES1    0.0000
     18 C15        5.5934    9.0147    5.4193 C.3       1 RES1    0.0000
     19 C16        6.6679    8.4909    6.3808 C.2       1 RES1    0.0000
     20 O3         7.0862    9.0439    7.3455 O.2       1 RES1    0.0000
     21 C17        4.4059    9.6382    6.1294 C.3       1 RES1    0.0000
     22 C18        4.2609   11.0447    5.5297 C.3       1 RES1    0.0000
     23 N2         5.5884   11.3584    4.9533 N.3       1 RES1    0.0000
     24 O4         6.2020   10.0822    4.6371 O.3       1 RES1    0.0000
     25 C19        4.0517   12.1520    6.5425 C.3       1 RES1    0.0000
     26 C20        5.4298   12.3501    7.1502 C.3       1 RES1    0.0000
     27 C21        6.3778   12.0603    6.0053 C.3       1 RES1    0.0000
     28 H1         5.9207    6.0754    5.1399 H         1 RES1    0.0000
     29 H2         7.4219    8.3752    2.9862 H         1 RES1    0.0000
     30 H3         8.8894    7.7504    1.2169 H         1 RES1    0.0000
     31 H4         9.7328    5.6367    1.0808 H         1 RES1    0.0000
     32 H5         9.0075    3.9217    2.4498 H         1 RES1    0.0000
     33 H6         7.3713    4.5598    4.0190 H         1 RES1    0.0000
     34 H7         4.8749    9.6647    2.2817 H         1 RES1    0.0000
     35 H8         3.4242   11.3265    1.3690 H         1 RES1    0.0000
     36 H9         1.1976   11.2600    2.1136 H         1 RES1    0.0000
     37 H10        0.3542    9.5318    3.4986 H         1 RES1    0.0000
     38 H11        1.7880    7.9232    4.2512 H         1 RES1    0.0000
     39 H12        4.6050    9.6514    7.1253 H         1 RES1    0.0000
     40 H13        3.5929    9.1463    6.0205 H         1 RES1    0.0000
     41 H14        3.6098   11.0340    4.8116 H         1 RES1    0.0000
     42 H15        3.4073   11.8184    7.1814 H         1 RES1    0.0000
     43 H16        3.7953   13.0547    6.0285 H         1 RES1    0.0000
     44 H17        5.6170   13.2275    7.5897 H         1 RES1    0.0000
     45 H18        5.6002   11.6854    7.8699 H         1 RES1    0.0000
     46 H19        7.1689   11.6455    6.1726 H         1 RES1    0.0000
     47 H20        6.7472   12.8420    5.6202 H         1 RES1    0.0000
@<TRIPOS>BOND
     1    1    2 1
     2    2    3 1
     3    3    4 ar
     4    4    5 ar
     5    5    6 ar
     6    6    7 ar
     7    7    8 ar
     8    8    3 ar
     9    9    2 1
    10   10    9 1
    11   11   10 2
    12   12   10 1
    13   13   12 ar
    14   14   13 ar
    15   15   14 ar
    16   16   15 ar
    17   17   12 ar
    18   18    9 1
    19   19    1 1
    20   20   19 2
    21   21   18 1
    22   22   21 1
    23   23   22 1
    24   24   18 1
    25   25   22 1
    26   26   25 1
    27   27   23 1
    28   28    2 1
    29   29    4 1
    30   30    5 1
    31   31    6 1
    32   32    7 1
    33   33    8 1
    34   34   13 1
    35   35   14 1
    36   36   15 1
    37   37   16 1
    38   38   17 1
    39   39   21 1
    40   40   21 1
    41   41   22 1
    42   42   25 1
    43   43   25 1
    44   44   26 1
    45   45   26 1
    46   46   27 1
    47   47   27 1
    48   16   17 ar
    49   18   19 1
    50   23   24 1
    51   26   27 1
@<TRIPOS>SUBSTRUCTURE
     1 RES1 1

@<TRIPOS>CRYSIN
  16.8680   13.2940    8.0060  90.0000  90.0000  90.0000  19 1

