# MOL2 file generated by ConQuest
# Please check atom types

@<TRIPOS>MOLECULE
ZELVOB
    41    44     1
SMALL
NO_CHARGES
****
Generated from CSD

@<TRIPOS>ATOM
      1 O1         8.2950    4.1732    4.5233 O.3       1 RES1    0.0000
      2 C1         8.7254    3.5717    3.2764 C.3       1 RES1    0.0000
      3 C2        10.2073    3.4220    3.2808 C.ar      1 RES1    0.0000
      4 C3        11.0547    4.4849    3.4604 C.ar      1 RES1    0.0000
      5 C4        12.4075    4.3487    3.4734 C.ar      1 RES1    0.0000
      6 C5        12.9313    3.1016    3.2656 C.ar      1 RES1    0.0000
      7 C6        12.1258    2.0129    3.0978 C.ar      1 RES1    0.0000
      8 C7        10.7841    2.1627    3.1173 C.ar      1 RES1    0.0000
      9 N1         8.2126    4.5414    2.2730 N.am      1 RES1    0.0000
     10 C8         8.3171    4.3708    0.9179 C.2       1 RES1    0.0000
     11 O2         8.0269    5.2594    0.1505 O.2       1 RES1    0.0000
     12 C9         8.7795    3.0071    0.4589 C.ar      1 RES1    0.0000
     13 C10        7.9150    1.9454    0.4990 C.ar      1 RES1    0.0000
     14 C11        8.3417    0.6935    0.0779 C.ar      1 RES1    0.0000
     15 C12        9.6232    0.5425   -0.3745 C.ar      1 RES1    0.0000
     16 C13       10.4767    1.5956   -0.4135 C.ar      1 RES1    0.0000
     17 C14       10.0524    2.8574    0.0000 C.ar      1 RES1    0.0000
     18 C15        7.7576    5.7712    2.8824 C.3       1 RES1    0.0000
     19 C16        7.8117    5.4202    4.3675 C.2       1 RES1    0.0000
     20 O3         7.4501    6.0940    5.2756 O.2       1 RES1    0.0000
     21 C17        8.4807    7.0514    2.5036 C.3       1 RES1    0.0000
     22 C18        7.3788    7.8676    1.9667 C.2       1 RES1    0.0000
     23 C19        7.5202    9.2571    1.4212 C.3       1 RES1    0.0000
     24 N2         6.2388    7.3214    1.9916 N.2       1 RES1    0.0000
     25 O4         6.3839    6.0130    2.5696 O.3       1 RES1    0.0000
     26 H1         8.1290    2.7126    3.1173 H         1 RES1    0.0000
     27 H2        10.6009    5.3760    3.6693 H         1 RES1    0.0000
     28 H3        13.0605    5.0446    3.5503 H         1 RES1    0.0000
     29 H4        13.7492    2.9949    3.1714 H         1 RES1    0.0000
     30 H5        12.4456    1.1906    2.9658 H         1 RES1    0.0000
     31 H6        10.2073    1.4238    2.8575 H         1 RES1    0.0000
     32 H7         6.9853    2.0375    0.9200 H         1 RES1    0.0000
     33 H8         7.6125    0.0859   -0.0325 H         1 RES1    0.0000
     34 H9        10.1090   -0.1596   -0.6278 H         1 RES1    0.0000
     35 H10       11.4740    1.5465   -0.6711 H         1 RES1    0.0000
     36 H11       10.6993    3.5472    0.0108 H         1 RES1    0.0000
     37 H12        8.9406    7.3521    3.2797 H         1 RES1    0.0000
     38 H13        9.2235    6.9225    1.8293 H         1 RES1    0.0000
     39 H14        8.2397    9.3037    0.7144 H         1 RES1    0.0000
     40 H15        7.6863    9.8560    2.0890 H         1 RES1    0.0000
     41 H16        6.5671    9.4755    1.0066 H         1 RES1    0.0000
@<TRIPOS>BOND
     1    1    2 1
     2    2    3 1
     3    3    4 ar
     4    4    5 ar
     5    5    6 ar
     6    6    7 ar
     7    7    8 ar
     8    8    3 ar
     9    9    2 1
    10   10    9 1
    11   11   10 2
    12   12   10 1
    13   13   12 ar
    14   14   13 ar
    15   15   14 ar
    16   16   15 ar
    17   17   12 ar
    18   18    9 1
    19   19    1 1
    20   20   19 2
    21   21   18 1
    22   22   21 1
    23   23   22 1
    24   24   22 2
    25   25   18 1
    26   26    2 1
    27   27    4 1
    28   28    5 1
    29   29    6 1
    30   30    7 1
    31   31    8 1
    32   32   13 1
    33   33   14 1
    34   34   15 1
    35   35   16 1
    36   36   17 1
    37   37   21 1
    38   38   21 1
    39   39   23 1
    40   40   23 1
    41   41   23 1
    42   16   17 ar
    43   18   19 1
    44   24   25 1
@<TRIPOS>SUBSTRUCTURE
     1 RES1 1

@<TRIPOS>CRYSIN
  12.2980   12.2740   10.8240  90.0000  90.0000  90.0000  19 1

