# MOL2 file generated by ConQuest
# Please check atom types

@<TRIPOS>MOLECULE
ZELVAN
    50    54     1
SMALL
NO_CHARGES
****
Generated from CSD

@<TRIPOS>ATOM
      1 O1         6.2524    0.0000    1.1779 O.3       1 RES1    0.0000
      2 C1         6.0829    1.0823    2.0897 C.3       1 RES1    0.0000
      3 C2         7.0114    0.9152    3.2417 C.ar      1 RES1    0.0000
      4 C3         6.7059    0.0775    4.2813 C.ar      1 RES1    0.0000
      5 C4         7.5868   -0.0947    5.3408 C.ar      1 RES1    0.0000
      6 C5         8.7798    0.5683    5.3138 C.ar      1 RES1    0.0000
      7 C6         9.1040    1.4207    4.2860 C.ar      1 RES1    0.0000
      8 C7         8.2014    1.5842    3.2558 C.ar      1 RES1    0.0000
      9 N1         4.6583    1.0194    2.4202 N.am      1 RES1    0.0000
     10 C8         4.0037    1.9459    3.2206 C.2       1 RES1    0.0000
     11 O2         2.8353    1.8486    3.5007 O.2       1 RES1    0.0000
     12 C9         4.8770    3.0522    3.7223 C.ar      1 RES1    0.0000
     13 C10        5.2503    4.1070    2.9253 C.ar      1 RES1    0.0000
     14 C11        6.0597    5.1057    3.4070 C.ar      1 RES1    0.0000
     15 C12        6.4967    5.0541    4.6903 C.ar      1 RES1    0.0000
     16 C13        6.0865    4.0467    5.5342 C.ar      1 RES1    0.0000
     17 C14        5.2697    3.0479    5.0361 C.ar      1 RES1    0.0000
     18 C15        3.9803   -0.0603    1.7662 C.3       1 RES1    0.0000
     19 C16        5.0943   -0.6113    0.8825 C.2       1 RES1    0.0000
     20 O3         5.0245   -1.5128    0.1055 O.2       1 RES1    0.0000
     21 C17        2.6845    0.2153    1.0021 C.3       1 RES1    0.0000
     22 C18        1.7102   -0.6888    1.7428 C.3       1 RES1    0.0000
     23 N2         2.5698   -1.7771    2.1154 N.3       1 RES1    0.0000
     24 O4         3.6854   -1.0582    2.7448 O.3       1 RES1    0.0000
     25 C19        1.9663   -2.6088    3.1222 C.3       1 RES1    0.0000
     26 C20        0.7822   -3.2976    2.4249 C.3       1 RES1    0.0000
     27 C21       -0.1575   -2.2558    1.8166 C.3       1 RES1    0.0000
     28 C22        0.5520   -1.2657    0.9177 C.3       1 RES1    0.0000
     29 H1         6.3137    1.9416    1.7181 H         1 RES1    0.0000
     30 H2         5.8395   -0.4098    4.2672 H         1 RES1    0.0000
     31 H3         7.3378   -0.7482    6.0909 H         1 RES1    0.0000
     32 H4         9.4237    0.3625    6.0533 H         1 RES1    0.0000
     33 H5         9.9479    1.8744    4.2766 H         1 RES1    0.0000
     34 H6         8.4195    2.1637    2.4753 H         1 RES1    0.0000
     35 H7         4.8808    4.1397    2.0076 H         1 RES1    0.0000
     36 H8         6.3345    5.7773    2.8198 H         1 RES1    0.0000
     37 H9         7.0647    5.7239    5.0255 H         1 RES1    0.0000
     38 H10        6.4296    3.9632    6.4589 H         1 RES1    0.0000
     39 H11        4.9561    2.2687    5.6795 H         1 RES1    0.0000
     40 H12        2.3984    1.1434    1.0407 H         1 RES1    0.0000
     41 H13        2.7338   -0.0060    0.0527 H         1 RES1    0.0000
     42 H14        1.2818   -0.2015    2.4190 H         1 RES1    0.0000
     43 H15        2.5841   -3.3260    3.5007 H         1 RES1    0.0000
     44 H16        1.6203   -2.1775    3.9027 H         1 RES1    0.0000
     45 H17        1.1384   -3.9322    1.7076 H         1 RES1    0.0000
     46 H18        0.3033   -3.9640    3.0155 H         1 RES1    0.0000
     47 H19       -0.8701   -2.7182    1.3759 H         1 RES1    0.0000
     48 H20       -0.5090   -1.7917    2.5678 H         1 RES1    0.0000
     49 H21        0.8981   -1.7900    0.1231 H         1 RES1    0.0000
     50 H22       -0.0518   -0.6475    0.5743 H         1 RES1    0.0000
@<TRIPOS>BOND
     1    1    2 1
     2    2    3 1
     3    3    4 ar
     4    4    5 ar
     5    5    6 ar
     6    6    7 ar
     7    7    8 ar
     8    8    3 ar
     9    9    2 1
    10   10    9 1
    11   11   10 2
    12   12   10 1
    13   13   12 ar
    14   14   13 ar
    15   15   14 ar
    16   16   15 ar
    17   17   12 ar
    18   18    9 1
    19   19    1 1
    20   20   19 2
    21   21   18 1
    22   22   21 1
    23   23   22 1
    24   24   18 1
    25   25   23 1
    26   26   25 1
    27   27   26 1
    28   28   22 1
    29   29    2 1
    30   30    4 1
    31   31    5 1
    32   32    6 1
    33   33    7 1
    34   34    8 1
    35   35   13 1
    36   36   14 1
    37   37   15 1
    38   38   16 1
    39   39   17 1
    40   40   21 1
    41   41   21 1
    42   42   22 1
    43   43   25 1
    44   44   25 1
    45   45   26 1
    46   46   26 1
    47   47   27 1
    48   48   27 1
    49   49   28 1
    50   50   28 1
    51   16   17 ar
    52   18   19 1
    53   23   24 1
    54   27   28 1
@<TRIPOS>SUBSTRUCTURE
     1 RES1 1

@<TRIPOS>CRYSIN
   9.4080    8.6100   11.7200  90.0000  90.1900  90.0000   4 1

