# MOL2 file generated by ConQuest
# Please check atom types

@<TRIPOS>MOLECULE
ZELVIV
    48    52     1
SMALL
NO_CHARGES
****
Generated from CSD

@<TRIPOS>ATOM
      1 O1        12.5667    4.9278    3.5011 O.3       1 RES1    0.0000
      2 C1        12.8124    5.8328    4.6076 C.3       1 RES1    0.0000
      3 C2        13.4562    5.0717    5.7294 C.ar      1 RES1    0.0000
      4 C3        12.7289    4.4130    6.6932 C.ar      1 RES1    0.0000
      5 C4        13.3874    3.6599    7.6455 C.ar      1 RES1    0.0000
      6 C5        14.7567    3.5655    7.6234 C.ar      1 RES1    0.0000
      7 C6        15.4938    4.2243    6.6619 C.ar      1 RES1    0.0000
      8 C7        14.8436    4.9726    5.7156 C.ar      1 RES1    0.0000
      9 N1        11.4758    6.3844    4.9105 N.am      1 RES1    0.0000
     10 C8        11.4267    7.5084    5.6645 C.2       1 RES1    0.0000
     11 O2        12.4455    8.0441    6.0460 O.2       1 RES1    0.0000
     12 C9        10.0704    8.0233    6.0552 C.ar      1 RES1    0.0000
     13 C10        9.2481    7.3006    6.8587 C.ar      1 RES1    0.0000
     14 C11        8.0459    7.8426    7.2937 C.ar      1 RES1    0.0000
     15 C12        7.6986    9.0961    6.9213 C.ar      1 RES1    0.0000
     16 C13        8.5192    9.8300    6.1147 C.ar      1 RES1    0.0000
     17 C14        9.7019    9.3184    5.6996 C.ar      1 RES1    0.0000
     18 C15       10.4685    5.8312    4.0421 C.3       1 RES1    0.0000
     19 C16       11.2907    4.9502    3.1173 C.2       1 RES1    0.0000
     20 O3        10.8698    4.3426    2.1878 O.2       1 RES1    0.0000
     21 C17        9.5102    6.7474    3.2966 C.3       1 RES1    0.0000
     22 C18        8.1966    6.3157    3.8170 C.2       1 RES1    0.0000
     23 C19        6.8943    6.9248    3.4950 C.ar      1 RES1    0.0000
     24 C20        6.8288    8.2455    3.0738 C.ar      1 RES1    0.0000
     25 C21        5.6085    8.8131    2.7395 C.ar      1 RES1    0.0000
     26 C22        4.4799    8.0281    2.8235 C.ar      1 RES1    0.0000
     27 C23        4.5209    6.7394    3.2355 C.ar      1 RES1    0.0000
     28 C24        5.7281    6.2069    3.5713 C.ar      1 RES1    0.0000
     29 N2         8.2424    5.3147    4.6045 N.2       1 RES1    0.0000
     30 O4         9.6069    4.9134    4.7625 O.3       1 RES1    0.0000
     31 H1        13.4480    6.5235    4.2581 H         1 RES1    0.0000
     32 H2        11.6462    4.4449    6.6161 H         1 RES1    0.0000
     33 H3        12.9074    3.2298    8.4017 H         1 RES1    0.0000
     34 H4        15.0696    3.2298    8.2644 H         1 RES1    0.0000
     35 H5        16.5110    4.1891    6.5245 H         1 RES1    0.0000
     36 H6        15.3808    5.4203    5.0212 H         1 RES1    0.0000
     37 H7         9.4349    6.4116    7.1197 H         1 RES1    0.0000
     38 H8         7.4201    7.3390    7.7378 H         1 RES1    0.0000
     39 H9         6.8796    9.4495    7.1960 H         1 RES1    0.0000
     40 H10        8.2719   10.9525    5.7309 H         1 RES1    0.0000
     41 H11       10.3030    9.7533    5.2272 H         1 RES1    0.0000
     42 H12        9.6806    6.5555    2.3351 H         1 RES1    0.0000
     43 H13        9.7297    7.5948    3.4187 H         1 RES1    0.0000
     44 H14        7.6495    8.7940    3.0371 H         1 RES1    0.0000
     45 H15        5.6347    9.7213    2.4724 H         1 RES1    0.0000
     46 H16        3.8002    8.4422    2.5488 H         1 RES1    0.0000
     47 H17        3.5872    6.2517    3.4492 H         1 RES1    0.0000
     48 H18        5.7985    5.2764    3.9376 H         1 RES1    0.0000
@<TRIPOS>BOND
     1    1    2 1
     2    2    3 1
     3    3    4 ar
     4    4    5 ar
     5    5    6 ar
     6    6    7 ar
     7    7    8 ar
     8    8    3 ar
     9    9    2 1
    10   10    9 1
    11   11   10 2
    12   12   10 1
    13   13   12 ar
    14   14   13 ar
    15   15   14 ar
    16   16   15 ar
    17   17   12 ar
    18   18    9 1
    19   19    1 1
    20   20   19 2
    21   21   18 1
    22   22   21 1
    23   23   22 1
    24   24   23 ar
    25   25   24 ar
    26   26   25 ar
    27   27   26 ar
    28   28   23 ar
    29   29   22 2
    30   30   18 1
    31   31    2 1
    32   32    4 1
    33   33    5 1
    34   34    6 1
    35   35    7 1
    36   36    8 1
    37   37   13 1
    38   38   14 1
    39   39   15 1
    40   40   16 1
    41   41   17 1
    42   42   21 1
    43   43   21 1
    44   44   24 1
    45   45   25 1
    46   46   26 1
    47   47   27 1
    48   48   28 1
    49   16   17 ar
    50   18   19 1
    51   27   28 ar
    52   29   30 1
@<TRIPOS>SUBSTRUCTURE
     1 RES1 1

@<TRIPOS>CRYSIN
  16.3800   15.9890    7.6310  90.0000  90.0000  90.0000  19 1

