# MOL2 file generated by ConQuest
# Please check atom types

@<TRIPOS>MOLECULE
ZELXIX
    29    30     1
SMALL
NO_CHARGES
****
Generated from CSD

@<TRIPOS>ATOM
      1 N1        -0.5806    7.4151   11.4033 N.2       1 RES1    0.0000
      2 N2        -1.1136    7.1229   10.1888 N.am      1 RES1    0.0000
      3 C1        -1.4174    5.8857    9.7141 C.2       1 RES1    0.0000
      4 O1        -1.9228    5.7658    8.5677 O.2       1 RES1    0.0000
      5 C2        -1.1108    4.8026   10.6117 C.2       1 RES1    0.0000
      6 C3        -0.5400    5.0374   11.8100 C.2       1 RES1    0.0000
      7 C4        -0.2855    6.4134   12.1925 C.2       1 RES1    0.0000
      8 C5         0.3040    6.7907   13.5233 C.3       1 RES1    0.0000
      9 C6        -0.1693    3.8947   12.7398 C.3       1 RES1    0.0000
     10 C7         1.2097    3.3154   12.4425 C.ar      1 RES1    0.0000
     11 C8         2.2285    3.3692   13.3931 C.ar      1 RES1    0.0000
     12 C9         3.4683    2.7804   13.1523 C.ar      1 RES1    0.0000
     13 C10        3.6677    2.1436   11.9367 C.ar      1 RES1    0.0000
     14 C11        2.6800    2.0833   10.9712 C.ar      1 RES1    0.0000
     15 C12        1.4554    2.6699   11.2350 C.ar      1 RES1    0.0000
     16 N3         4.9707    1.5199   11.6671 N.pl3     1 RES1    0.0000
     17 O2         5.1290    0.9566   10.5829 O.2       1 RES1    0.0000
     18 O3         5.8464    1.5832   12.5347 O.2       1 RES1    0.0000
     19 H1        -1.2918    7.8498    9.7118 H         1 RES1    0.0000
     20 H2        -1.3149    3.9107   10.3559 H         1 RES1    0.0000
     21 H3         1.1658    6.3378   13.6397 H         1 RES1    0.0000
     22 H4        -0.3062    6.5203   14.2400 H         1 RES1    0.0000
     23 H5         0.4381    7.7611   13.5579 H         1 RES1    0.0000
     24 H6        -0.8425    3.1468   12.6188 H         1 RES1    0.0000
     25 H7        -0.1923    4.1775   13.6938 H         1 RES1    0.0000
     26 H8         2.0746    3.8148   14.2169 H         1 RES1    0.0000
     27 H9         4.1584    2.8146   13.8044 H         1 RES1    0.0000
     28 H10        2.8387    1.6472   10.1428 H         1 RES1    0.0000
     29 H11        0.7702    2.6314   10.5783 H         1 RES1    0.0000
@<TRIPOS>BOND
     1    1    2 1
     2    2    3 1
     3    3    4 2
     4    5    3 1
     5    6    5 2
     6    7    1 2
     7    8    7 1
     8    9    6 1
     9   10    9 1
    10   11   10 ar
    11   12   11 ar
    12   13   12 ar
    13   14   13 ar
    14   15   10 ar
    15   16   13 1
    16   17   16 2
    17   18   16 2
    18   19    2 1
    19   20    5 1
    20   21    8 1
    21   22    8 1
    22   23    8 1
    23   24    9 1
    24   25    9 1
    25   26   11 1
    26   27   12 1
    27   28   14 1
    28   29   15 1
    29    6    7 1
    30   14   15 ar
@<TRIPOS>SUBSTRUCTURE
     1 RES1 1

@<TRIPOS>CRYSIN
  13.3120    7.2690   11.7530  90.0000 101.3800  90.0000  14 1

