# MOL2 file generated by ConQuest
# Please check atom types

@<TRIPOS>MOLECULE
ZENHOP
    66    72     2
SMALL
NO_CHARGES
****
Generated from CSD

@<TRIPOS>ATOM
      1 C1         4.1148   10.1185    1.0342 C.3       1 RES1    0.0000
      2 N1         2.6708   10.2165    1.1923 N.3       1 RES1    0.0000
      3 C2         1.9449    8.9180    1.1128 C.3       1 RES1    0.0000
      4 C3         2.7824    7.6541    1.4354 C.3       1 RES1    0.0000
      5 C4         4.1167    7.6677    0.7144 C.ar      1 RES1    0.0000
      6 C5         4.7417    6.5350    0.2422 C.ar      1 RES1    0.0000
      7 C6         5.9921    6.6074   -0.3451 C.ar      1 RES1    0.0000
      8 C7         6.6405    7.8034   -0.4909 C.ar      1 RES1    0.0000
      9 C8         6.0169    8.9557   -0.0365 C.ar      1 RES1    0.0000
     10 C9         4.7758    8.8939    0.5751 C.ar      1 RES1    0.0000
     11 O1         3.6253   10.1728    2.3686 O.3       1 RES1    0.0000
     12 C10        0.7306    9.0296    2.0114 C.3       1 RES1    0.0000
     13 C11        1.9767    6.3812    1.1932 C.ar      1 RES1    0.0000
     14 C12        1.8527    5.4386    2.1863 C.ar      1 RES1    0.0000
     15 C13        1.1370    4.2697    1.9908 C.ar      1 RES1    0.0000
     16 C14        0.5325    4.0254    0.7930 C.ar      1 RES1    0.0000
     17 C15        0.6410    4.9544   -0.2104 C.ar      1 RES1    0.0000
     18 C16        1.3727    6.1173   -0.0224 C.ar      1 RES1    0.0000
     19 C17       -1.2783   16.0020    3.5665 C.3       2 RES2    0.0000
     20 N2        -0.0577   16.3097    4.2360 N.3       2 RES2    0.0000
     21 C18        0.6733   15.1589    4.8223 C.3       2 RES2    0.0000
     22 C19        0.3874   13.7789    4.1986 C.3       2 RES2    0.0000
     23 C20       -1.0765   13.5527    3.9256 C.ar      2 RES2    0.0000
     24 C21       -1.6495   12.2918    3.9087 C.ar      2 RES2    0.0000
     25 C22       -2.9873   12.1199    3.5758 C.ar      2 RES2    0.0000
     26 C23       -3.7701   13.2284    3.2981 C.ar      2 RES2    0.0000
     27 C24       -3.2126   14.4772    3.3047 C.ar      2 RES2    0.0000
     28 C25       -1.8795   14.6446    3.6188 C.ar      2 RES2    0.0000
     29 O2        -0.1328   16.1754    2.7389 O.3       2 RES2    0.0000
     30 C26        2.1648   15.4952    4.7690 C.3       2 RES2    0.0000
     31 C27        1.0200   12.7006    5.0580 C.ar      2 RES2    0.0000
     32 C28        2.0443   11.9057    4.5689 C.ar      2 RES2    0.0000
     33 C29        2.6875   10.9827    5.3656 C.ar      2 RES2    0.0000
     34 C30        2.2652   10.7912    6.6720 C.ar      2 RES2    0.0000
     35 C31        1.2212   11.5558    7.1489 C.ar      2 RES2    0.0000
     36 C32        0.5979   12.4985    6.3634 C.ar      2 RES2    0.0000
     37 H1         4.5031   10.9028    0.6031 H         1 RES1    0.0000
     38 H2         1.6925    8.7738    0.1564 H         1 RES1    0.0000
     39 H3         3.0007    7.6647    2.4108 H         1 RES1    0.0000
     40 H4         4.2853    5.6493    0.3249 H         1 RES1    0.0000
     41 H5         6.4303    5.7699   -0.6693 H         1 RES1    0.0000
     42 H6         7.5443    7.8461   -0.9154 H         1 RES1    0.0000
     43 H7         6.4678    9.8404   -0.1519 H         1 RES1    0.0000
     44 H8         0.2159    8.1728    1.9839 H         1 RES1    0.0000
     45 H9         1.0250    9.2113    2.9495 H         1 RES1    0.0000
     46 H10        0.1483    9.7781    1.6941 H         1 RES1    0.0000
     47 H11        2.2909    5.6004    3.0707 H         1 RES1    0.0000
     48 H12        1.0625    3.6022    2.7312 H         1 RES1    0.0000
     49 H13        0.0167    3.1811    0.6479 H         1 RES1    0.0000
     50 H14        0.1873    4.7917   -1.0862 H         1 RES1    0.0000
     51 H15        1.4650    6.7715   -0.7735 H         1 RES1    0.0000
     52 H16       -1.9912   16.8828    3.5655 H         2 RES2    0.0000
     53 H17        0.3402   15.0454    5.7585 H         2 RES2    0.0000
     54 H18        0.8102   13.7399    3.2933 H         2 RES2    0.0000
     55 H19       -1.0922   11.4935    4.1397 H         2 RES2    0.0000
     56 H20       -3.3827   11.2017    3.5373 H         2 RES2    0.0000
     57 H21       -4.7426   13.1162    3.0933 H         2 RES2    0.0000
     58 H22       -3.7741   15.2737    3.0802 H         2 RES2    0.0000
     59 H23        2.6915   14.7390    5.1574 H         2 RES2    0.0000
     60 H24        2.4405   15.6405    3.8193 H         2 RES2    0.0000
     61 H25        2.3378   16.3269    5.2972 H         2 RES2    0.0000
     62 H26        2.3235   12.0041    3.6137 H         2 RES2    0.0000
     63 H27        3.4549   10.4551    5.0027 H         2 RES2    0.0000
     64 H28        2.7090   10.1111    7.2563 H         2 RES2    0.0000
     65 H29        0.9093   11.4210    8.0897 H         2 RES2    0.0000
     66 H30       -0.1590   13.0373    6.7341 H         2 RES2    0.0000
@<TRIPOS>BOND
     1    1    2 1
     2    2    3 1
     3    3    4 1
     4    4    5 1
     5    5    6 ar
     6    6    7 ar
     7    7    8 ar
     8    8    9 ar
     9    9   10 ar
    10   10    1 1
    11   11    1 1
    12   12    3 1
    13   13    4 1
    14   14   13 ar
    15   15   14 ar
    16   16   15 ar
    17   17   16 ar
    18   18   13 ar
    19   19   20 1
    20   20   21 1
    21   21   22 1
    22   22   23 1
    23   23   24 ar
    24   24   25 ar
    25   25   26 ar
    26   26   27 ar
    27   27   28 ar
    28   28   19 1
    29   29   19 1
    30   30   21 1
    31   31   22 1
    32   32   31 ar
    33   33   32 ar
    34   34   33 ar
    35   35   34 ar
    36   36   31 ar
    37   37    1 1
    38   38    3 1
    39   39    4 1
    40   40    6 1
    41   41    7 1
    42   42    8 1
    43   43    9 1
    44   44   12 1
    45   45   12 1
    46   46   12 1
    47   47   14 1
    48   48   15 1
    49   49   16 1
    50   50   17 1
    51   51   18 1
    52   52   19 1
    53   53   21 1
    54   54   22 1
    55   55   24 1
    56   56   25 1
    57   57   26 1
    58   58   27 1
    59   59   30 1
    60   60   30 1
    61   61   30 1
    62   62   32 1
    63   63   33 1
    64   64   34 1
    65   65   35 1
    66   66   36 1
    67    2   11 1
    68    5   10 ar
    69   17   18 ar
    70   20   29 1
    71   23   28 ar
    72   35   36 ar
@<TRIPOS>SUBSTRUCTURE
     1 RES1 1
     2 RES2 19

@<TRIPOS>CRYSIN
   9.1300   15.0820    9.5060  90.0000 100.3600  90.0000   4 1

