# MOL2 file generated by ConQuest
# Please check atom types

@<TRIPOS>MOLECULE
ZENJUA
    73    81     1
SMALL
NO_CHARGES
****
Generated from CSD

@<TRIPOS>ATOM
      1 O1         1.8339   11.4040    7.9761 O.2       1 RES1    0.0000
      2 N1         1.8722   12.7984    5.6917 N.pl3     1 RES1    0.0000
      3 H1         1.2138   12.3553    6.0227 H         1 RES1    0.0000
      4 N2        -0.1431   13.0370    7.0967 N.2       1 RES1    0.0000
      5 N3        -0.2927   10.4207    7.8310 N.am      1 RES1    0.0000
      6 N4         1.4402    9.6896    6.4645 N.am      1 RES1    0.0000
      7 N5        -1.4735    2.5921    8.3125 N.pl3     1 RES1    0.0000
      8 O2        -2.6080    2.2256    8.1145 O.2       1 RES1    0.0000
      9 O3        -0.5608    1.8624    8.6866 O.2       1 RES1    0.0000
     10 C1         1.9045   14.1709    5.5872 C.2       1 RES1    0.0000
     11 C2         3.0041   12.2274    5.2079 C.2       1 RES1    0.0000
     12 N6         0.9813   20.5568    5.0329 N.pl3     1 RES1    0.0000
     13 O4        -0.0404   21.0842    4.6447 O.2       1 RES1    0.0000
     14 C3         2.5598    9.7429    5.6115 C.2       1 RES1    0.0000
     15 C4         4.5610   10.4772    4.4455 C.ar      1 RES1    0.0000
     16 C5         3.2962   10.8478    5.1619 C.2       1 RES1    0.0000
     17 C6         0.9187   14.9882    6.1798 C.2       1 RES1    0.0000
     18 C7        -0.0675   14.4021    6.9971 C.2       1 RES1    0.0000
     19 O5         2.0365   21.1491    5.1364 O.2       1 RES1    0.0000
     20 N7         8.0607    9.1994    2.4392 N.pl3     1 RES1    0.0000
     21 C8        -1.1299   11.3458    8.4287 C.2       1 RES1    0.0000
     22 C9         0.9344   16.4411    5.9614 C.ar      1 RES1    0.0000
     23 C10       -0.2266   17.1060    5.5910 C.ar      1 RES1    0.0000
     24 H2        -1.0242   16.6297    5.5387 H         1 RES1    0.0000
     25 C11       -0.8345    9.1429    7.9766 C.2       1 RES1    0.0000
     26 C12        3.7816   13.3073    4.7111 C.2       1 RES1    0.0000
     27 H3         4.6169   13.2256    4.3101 H         1 RES1    0.0000
     28 C13        3.1269   14.4685    4.9091 C.2       1 RES1    0.0000
     29 H4         3.4177   15.3134    4.6511 H         1 RES1    0.0000
     30 C14       -0.5365    6.6514    7.5718 C.ar      1 RES1    0.0000
     31 C15        4.7593   10.7958    3.1199 C.ar      1 RES1    0.0000
     32 H5         4.1164   11.2955    2.6704 H         1 RES1    0.0000
     33 C16        0.9166    8.3845    6.5041 C.2       1 RES1    0.0000
     34 C17       -0.9695   12.7296    8.1286 C.2       1 RES1    0.0000
     35 C18       -0.2278   18.4466    5.2999 C.ar      1 RES1    0.0000
     36 H6        -1.0127   18.8801    5.0534 H         1 RES1    0.0000
     37 C19       -0.1649    8.0834    7.3342 C.2       1 RES1    0.0000
     38 C20       -0.9499   14.9629    7.9996 C.2       1 RES1    0.0000
     39 H7        -1.1120   15.8667    8.1464 H         1 RES1    0.0000
     40 C21       -1.1544    4.0193    8.0647 C.ar      1 RES1    0.0000
     41 C22       -2.1415    4.8647    7.6497 C.ar      1 RES1    0.0000
     42 H8        -3.0120    4.5595    7.5360 H         1 RES1    0.0000
     43 C23        1.0578   10.6080    7.4964 C.2       1 RES1    0.0000
     44 O6         8.9072    8.6008    3.0829 O.2       1 RES1    0.0000
     45 C24       -1.9826    9.2749    8.7416 C.2       1 RES1    0.0000
     46 H9        -2.5323    8.5806    9.0263 H         1 RES1    0.0000
     47 C25        0.9575   19.1303    5.3841 C.ar      1 RES1    0.0000
     48 C26        6.8506    9.6740    3.1314 C.ar      1 RES1    0.0000
     49 C27       -1.4893   13.9350    8.6803 C.2       1 RES1    0.0000
     50 H10       -2.0935   14.0004    9.3827 H         1 RES1    0.0000
     51 C28       -2.1683   10.6164    9.0072 C.2       1 RES1    0.0000
     52 H11       -2.8746   10.9769    9.4950 H         1 RES1    0.0000
     53 C29        2.1006   17.1811    6.0738 C.ar      1 RES1    0.0000
     54 H12        2.8786   16.7672    6.3713 H         1 RES1    0.0000
     55 C30        5.5695    9.7863    5.1121 C.ar      1 RES1    0.0000
     56 H13        5.4659    9.5952    6.0163 H         1 RES1    0.0000
     57 O7         8.1404    9.4342    1.2528 O.2       1 RES1    0.0000
     58 C31        2.6873    8.4180    5.1223 C.2       1 RES1    0.0000
     59 H14        3.3384    8.1312    4.5234 H         1 RES1    0.0000
     60 C32        0.4265    5.7702    7.9906 C.ar      1 RES1    0.0000
     61 H15        1.2996    6.0703    8.1017 H         1 RES1    0.0000
     62 C33        0.1284    4.4354    8.2550 C.ar      1 RES1    0.0000
     63 H16        0.7837    3.8468    8.5526 H         1 RES1    0.0000
     64 C34        5.9026   10.3816    2.4379 C.ar      1 RES1    0.0000
     65 H17        6.0197   10.5812    1.5363 H         1 RES1    0.0000
     66 C35        1.7143    7.6248    5.6613 C.2       1 RES1    0.0000
     67 H18        1.6035    6.7176    5.4901 H         1 RES1    0.0000
     68 C36        2.1254   18.5249    5.7532 C.ar      1 RES1    0.0000
     69 H19        2.9203   19.0075    5.7877 H         1 RES1    0.0000
     70 C37       -1.8117    6.1860    7.3994 C.ar      1 RES1    0.0000
     71 H20       -2.4732    6.7713    7.1095 H         1 RES1    0.0000
     72 C38        6.7039    9.3822    4.4736 C.ar      1 RES1    0.0000
     73 H21        7.3670    8.9211    4.9333 H         1 RES1    0.0000
@<TRIPOS>BOND
     1    1   43 2
     2    2    3 1
     3    4   18 2
     4    5   21 1
     5    6   14 1
     6    7    8 2
     7    9    7 2
     8   10    2 1
     9   11    2 1
    10   12   13 2
    11   14   16 1
    12   15   16 1
    13   16   11 2
    14   17   10 2
    15   18   17 1
    16   19   12 2
    17   20   44 2
    18   21   34 2
    19   22   17 1
    20   23   22 ar
    21   24   23 1
    22   25    5 1
    23   26   11 1
    24   27   26 1
    25   28   10 1
    26   29   28 1
    27   30   37 1
    28   31   15 ar
    29   32   31 1
    30   33    6 1
    31   34    4 1
    32   35   23 ar
    33   36   35 1
    34   37   25 2
    35   38   18 1
    36   39   38 1
    37   40    7 1
    38   41   40 ar
    39   42   41 1
    40   43    5 1
    41   45   25 1
    42   46   45 1
    43   47   12 1
    44   48   20 1
    45   49   34 1
    46   50   49 1
    47   51   21 1
    48   52   51 1
    49   53   22 ar
    50   54   53 1
    51   55   15 ar
    52   56   55 1
    53   57   20 2
    54   58   14 2
    55   59   58 1
    56   60   30 ar
    57   61   60 1
    58   62   40 ar
    59   63   62 1
    60   64   31 ar
    61   65   64 1
    62   66   33 2
    63   67   66 1
    64   68   47 ar
    65   69   68 1
    66   70   30 ar
    67   71   70 1
    68   72   48 ar
    69   73   72 1
    70    6   43 1
    71   26   28 2
    72   33   37 1
    73   35   47 ar
    74   38   49 2
    75   41   70 ar
    76   45   51 2
    77   48   64 ar
    78   53   68 ar
    79   55   72 ar
    80   58   66 1
    81   60   62 ar
@<TRIPOS>SUBSTRUCTURE
     1 RES1 1

@<TRIPOS>CRYSIN
  16.1335   16.7689   13.7048  90.0000 111.2760  90.0000  14 1

