# MOL2 file generated by ConQuest
# Please check atom types

@<TRIPOS>MOLECULE
ZENKIM
    48    50     2
SMALL
NO_CHARGES
****
Generated from CSD

@<TRIPOS>ATOM
      1 C1         0.4448   -1.8187   -1.7781 C.ar      1 RES1    0.0000
      2 C2         0.5931   -0.8459   -2.7414 C.ar      1 RES1    0.0000
      3 C3         0.4745   -1.1897   -4.0722 C.ar      1 RES1    0.0000
      4 C4         0.2150   -2.4585   -4.5081 C.ar      1 RES1    0.0000
      5 C5         0.0593   -3.4266   -3.5357 C.ar      1 RES1    0.0000
      6 C6         0.1853   -3.1127   -2.1936 C.ar      1 RES1    0.0000
      7 C7         0.5709   -1.4892   -0.3196 C.ar      1 RES1    0.0000
      8 C8         1.3123   -0.4098    0.1141 C.ar      1 RES1    0.0000
      9 C9         1.4235   -0.1042    1.4631 C.ar      1 RES1    0.0000
     10 C10        0.7711   -0.8854    2.4013 C.ar      1 RES1    0.0000
     11 C11        0.0000   -1.9493    1.9859 C.ar      1 RES1    0.0000
     12 C12       -0.1038   -2.2584    0.6483 C.ar      1 RES1    0.0000
     13 N1         0.6079   -0.1126   -5.0651 N.pl3     1 RES1    0.0000
     14 O1         0.6302   -0.4098   -6.2452 O.2       1 RES1    0.0000
     15 O2         0.6969    1.0376   -4.6976 O.2       1 RES1    0.0000
     16 C13        0.6005    4.8715    1.6937 C.ar      2 RES2    0.0000
     17 C14        0.4078    3.8926    2.6958 C.ar      2 RES2    0.0000
     18 C15        0.3559    4.2497    3.9946 C.ar      2 RES2    0.0000
     19 C16        0.4967    5.5568    4.4191 C.ar      2 RES2    0.0000
     20 C17        0.6673    6.5057    3.4855 C.ar      2 RES2    0.0000
     21 C18        0.7192    6.1750    2.1388 C.ar      2 RES2    0.0000
     22 C19        0.6450    4.4989    0.2534 C.ar      2 RES2    0.0000
     23 C20        0.0371    3.3535   -0.1963 C.ar      2 RES2    0.0000
     24 C21        0.0964    2.9988   -1.5590 C.ar      2 RES2    0.0000
     25 C22        0.7636    3.7896   -2.4333 C.ar      2 RES2    0.0000
     26 C23        1.3864    4.9398   -2.0133 C.ar      2 RES2    0.0000
     27 C24        1.3197    5.2872   -0.6756 C.ar      2 RES2    0.0000
     28 N2         0.1631    3.1953    4.9920 N.pl3     2 RES2    0.0000
     29 O3        -0.0222    2.0667    4.6200 O.2       2 RES2    0.0000
     30 O4         0.1409    3.5008    6.1699 O.2       2 RES2    0.0000
     31 H1         0.7577    0.1006   -2.4743 H         1 RES1    0.0000
     32 H2         0.1972   -2.6981   -5.4874 H         1 RES1    0.0000
     33 H3        -0.2195   -4.3707   -3.7937 H         1 RES1    0.0000
     34 H4         0.0816   -3.8375   -1.5111 H         1 RES1    0.0000
     35 H5         1.7920    0.1677   -0.5455 H         1 RES1    0.0000
     36 H6         1.9929    0.6554    1.7781 H         1 RES1    0.0000
     37 H7         0.8808   -0.6817    3.3760 H         1 RES1    0.0000
     38 H8        -0.5138   -2.4801    2.6638 H         1 RES1    0.0000
     39 H9        -0.6739   -3.0456    0.3629 H         1 RES1    0.0000
     40 H10        0.3233    2.9341    2.4424 H         2 RES2    0.0000
     41 H11        0.4990    5.7976    5.3915 H         2 RES2    0.0000
     42 H12        0.7392    7.4725    3.7731 H         2 RES2    0.0000
     43 H13        0.8148    6.9082    1.4723 H         2 RES2    0.0000
     44 H14       -0.4649    2.7652    0.4588 H         2 RES2    0.0000
     45 H15       -0.3588    2.1374   -1.8854 H         2 RES2    0.0000
     46 H16        0.7659    3.5428   -3.3919 H         2 RES2    0.0000
     47 H17        1.9054    5.5137   -2.6821 H         2 RES2    0.0000
     48 H18        1.8031    6.1163   -0.3561 H         2 RES2    0.0000
@<TRIPOS>BOND
     1    1    2 ar
     2    2    3 ar
     3    3    4 ar
     4    4    5 ar
     5    5    6 ar
     6    6    1 ar
     7    7    1 1
     8    8    7 ar
     9    9    8 ar
    10   10    9 ar
    11   11   10 ar
    12   12    7 ar
    13   13    3 1
    14   14   13 2
    15   15   13 2
    16   16   17 ar
    17   17   18 ar
    18   18   19 ar
    19   19   20 ar
    20   20   21 ar
    21   21   16 ar
    22   22   16 1
    23   23   22 ar
    24   24   23 ar
    25   25   24 ar
    26   26   25 ar
    27   27   22 ar
    28   28   18 1
    29   29   28 2
    30   30   28 2
    31   31    2 1
    32   32    4 1
    33   33    5 1
    34   34    6 1
    35   35    8 1
    36   36    9 1
    37   37   10 1
    38   38   11 1
    39   39   12 1
    40   40   17 1
    41   41   19 1
    42   42   20 1
    43   43   21 1
    44   44   23 1
    45   45   24 1
    46   46   25 1
    47   47   26 1
    48   48   27 1
    49   11   12 ar
    50   26   27 ar
@<TRIPOS>SUBSTRUCTURE
     1 RES1 1
     2 RES2 16

@<TRIPOS>CRYSIN
   7.4140   11.9810   22.8260  90.0000  90.0000  90.0000  19 1

