# MOL2 file generated by ConQuest
# Please check atom types

@<TRIPOS>MOLECULE
ZENPAJ
    60    44     5
SMALL
NO_CHARGES
****
Generated from CSD

@<TRIPOS>ATOM
      1 N1         1.4989    2.5783    4.2903 N.2       1 RES1    0.0000
      2 O1         1.7696    2.6589    5.6385 O.3       1 RES1    0.0000
      3 H1         2.3583    2.0562    5.7326 H         1 RES1    0.0000
      4 O2        -0.4137    4.2415    1.9644 O.2       1 RES1    0.0000
      5 O3         0.8725    2.4158    1.7874 O.3       1 RES1    0.0000
      6 H2         0.6088    2.4866    0.8229 H         1 RES1    0.0000
      7 C1         0.3039    3.3944    2.4526 C.2       1 RES1    0.0000
      8 C2         0.6007    3.4045    3.9113 C.2       1 RES1    0.0000
      9 C3        -0.1325    4.3605    4.7778 C.3       1 RES1    0.0000
     10 H3         0.1586    4.2560    5.6867 H         1 RES1    0.0000
     11 H4        -1.0747    4.1870    4.7215 H         1 RES1    0.0000
     12 H5         0.0455    5.2575    4.4862 H         1 RES1    0.0000
     13 H6        -0.7393    4.8776    4.2429 Du        5 SUP5    0.0000
     14 H7         0.4941    4.9476    5.2081 Du        5 SUP5    0.0000
     15 H8        -0.6262    3.8761    5.4434 Du        5 SUP5    0.0000
     16 N2         4.4625   -1.6741    3.0551 N.2       2 RES2    0.0000
     17 O4         5.2723   -2.7886    2.9803 O.3       2 RES2    0.0000
     18 H9         5.1204   -3.0454    2.1232 H         2 RES2    0.0000
     19 O5         3.5292    0.6226    5.4425 O.2       2 RES2    0.0000
     20 O6         2.9169    0.4083    3.3008 O.3       2 RES2    0.0000
     21 H10        2.3572    1.1697    3.5452 H         2 RES2    0.0000
     22 C4         3.5874    0.0560    4.3749 C.2       2 RES2    0.0000
     23 C5         4.4482   -1.1535    4.2177 C.2       2 RES2    0.0000
     24 C6         5.1967   -1.6462    5.3975 C.3       2 RES2    0.0000
     25 H11        5.7043   -2.4240    5.1530 H         2 RES2    0.0000
     26 H12        4.5790   -1.8745    6.0964 H         2 RES2    0.0000
     27 H13        5.7921   -0.9609    5.7085 H         2 RES2    0.0000
     28 H14        5.0118   -1.0821    6.1527 Du        5 SUP5    0.0000
     29 H15        6.1380   -1.6316    5.2093 Du        5 SUP5    0.0000
     30 H16        4.9248   -2.5457    5.5960 Du        5 SUP5    0.0000
     31 N3         2.5613   -1.5864   -1.8797 N.2       3 RES3    0.0000
     32 O7         2.1765   -1.7355   -3.1979 O.3       3 RES3    0.0000
     33 H17        1.6329   -0.9882   -3.2938 H         3 RES3    0.0000
     34 O8         4.5844   -3.1723    0.4056 O.2       3 RES3    0.0000
     35 O9         3.3151   -1.3353    0.5626 O.3       3 RES3    0.0000
     36 H18        3.6360   -1.3316    1.4392 H         3 RES3    0.0000
     37 C7         3.8154   -2.3713   -0.0769 C.2       3 RES3    0.0000
     38 C8         3.3589   -2.5001   -1.4862 C.2       3 RES3    0.0000
     39 C9         3.8551   -3.6303   -2.3114 C.3       3 RES3    0.0000
     40 H19        3.4733   -3.5762   -3.1905 H         3 RES3    0.0000
     41 H20        3.5999   -4.4608   -1.9028 H         3 RES3    0.0000
     42 H21        4.8113   -3.5848   -2.3745 H         3 RES3    0.0000
     43 H22        4.4505   -4.1717   -1.7881 Du        5 SUP5    0.0000
     44 H23        4.3231   -3.2871   -3.0758 Du        5 SUP5    0.0000
     45 H24        3.1117   -4.1630   -2.6041 Du        5 SUP5    0.0000
     46 N4        -0.1622    2.8099   -0.7150 N.2       4 RES4    0.0000
     47 O10       -0.9550    3.9418   -0.6597 O.3       4 RES4    0.0000
     48 H25       -0.8027    4.2277    0.1676 H         4 RES4    0.0000
     49 O11        0.6443    0.4309   -3.0680 O.2       4 RES4    0.0000
     50 O12        1.2947    0.6611   -0.9386 O.3       4 RES4    0.0000
     51 H26        1.7477   -0.1759   -1.1511 H         4 RES4    0.0000
     52 C10        0.6269    1.0212   -2.0096 C.2       4 RES4    0.0000
     53 C11       -0.1850    2.2590   -1.8569 C.2       4 RES4    0.0000
     54 C12       -0.9545    2.7385   -3.0333 C.3       4 RES4    0.0000
     55 H27       -1.4296    3.5392   -2.8003 H         4 RES4    0.0000
     56 H28       -1.5793    2.0632   -3.3041 H         4 RES4    0.0000
     57 H29       -0.3504    2.9247   -3.7563 H         4 RES4    0.0000
     58 H30       -0.8097    2.1449   -3.7735 Du        5 SUP5    0.0000
     59 H31       -0.6607    3.6219   -3.2697 Du        5 SUP5    0.0000
     60 H32       -1.8898    2.7594   -2.8175 Du        5 SUP5    0.0000
@<TRIPOS>BOND
     1    1    2 1
     2    2    3 1
     3    4    7 2
     4    5    6 1
     5    7    5 1
     6    8    1 2
     7    9    8 1
     8   10    9 1
     9   11    9 1
    10   12    9 1
    11   16   17 1
    12   17   18 1
    13   19   22 2
    14   20   21 1
    15   22   20 1
    16   23   16 2
    17   24   23 1
    18   25   24 1
    19   26   24 1
    20   27   24 1
    21   31   32 1
    22   32   33 1
    23   34   37 2
    24   35   36 1
    25   37   35 1
    26   38   31 2
    27   39   38 1
    28   40   39 1
    29   41   39 1
    30   42   39 1
    31   46   47 1
    32   47   48 1
    33   49   52 2
    34   50   51 1
    35   52   50 1
    36   53   46 2
    37   54   53 1
    38   55   54 1
    39   56   54 1
    40   57   54 1
    41    7    8 1
    42   22   23 1
    43   37   38 1
    44   52   53 1
@<TRIPOS>SUBSTRUCTURE
     1 RES1 1
     2 RES2 16
     3 RES3 31
     4 RES4 46
     5 SUP5 13

@<TRIPOS>CRYSIN
   8.3130    9.7170   12.1510  70.8600  88.5600  82.1100   2 1

