# MOL2 file generated by ConQuest
# Please check atom types

@<TRIPOS>MOLECULE
ZENQDX
    22    23     1
SMALL
NO_CHARGES
****
Generated from CSD

@<TRIPOS>ATOM
      1 O1         0.1101    3.8237    3.4461 O.3       1 RES1    0.0000
      2 O2        -0.1944    0.6278    5.4614 O.3       1 RES1    0.0000
      3 N1         0.3610    4.6831    4.5157 N.2       1 RES1    0.0000
      4 N2        -0.0291    1.9386    5.0662 N.2       1 RES1    0.0000
      5 C1         0.3886    4.1657    5.7121 C.2       1 RES1    0.0000
      6 C2         0.1719    2.7446    6.0746 C.2       1 RES1    0.0000
      7 C3         0.1623    2.3682    7.4740 C.2       1 RES1    0.0000
      8 C4         0.3546    3.2747    8.4319 C.2       1 RES1    0.0000
      9 C5         0.7770    5.5877    9.2059 C.ar      1 RES1    0.0000
     10 C6         0.9839    6.9102    8.9415 C.ar      1 RES1    0.0000
     11 C7         1.0390    7.3517    7.6157 C.ar      1 RES1    0.0000
     12 C8         0.8666    6.4670    6.5705 C.ar      1 RES1    0.0000
     13 C9         0.6253    5.1209    6.8172 C.ar      1 RES1    0.0000
     14 C10        0.5947    4.6650    8.1566 C.ar      1 RES1    0.0000
     15 H1        -0.1221    2.9400    3.7881 H         1 RES1    0.0000
     16 H2        -0.5296    0.1628    4.7147 H         1 RES1    0.0000
     17 H3        -0.0206    1.4745    7.6715 H         1 RES1    0.0000
     18 H4         0.3790    2.9761    9.3476 H         1 RES1    0.0000
     19 H5         0.7017    5.1924   10.1515 H         1 RES1    0.0000
     20 H6         1.0490    7.5986    9.7564 H         1 RES1    0.0000
     21 H7         1.1071    8.3585    7.4263 H         1 RES1    0.0000
     22 H8         0.9113    6.8207    5.6412 H         1 RES1    0.0000
@<TRIPOS>BOND
     1    1    3 1
     2    2    4 1
     3    3    5 2
     4    4    6 2
     5    5    6 1
     6    6    7 1
     7    7    8 2
     8    8   14 1
     9    9   10 ar
    10   10   11 ar
    11   11   12 ar
    12   12   13 ar
    13   13    5 1
    14   14    9 ar
    15   15    1 1
    16   16    2 1
    17   17    7 1
    18   18    8 1
    19   19    9 1
    20   20   10 1
    21   21   11 1
    22   22   12 1
    23   13   14 ar
@<TRIPOS>SUBSTRUCTURE
     1 RES1 1

@<TRIPOS>CRYSIN
   7.0820    9.0460   13.8450  90.0000 100.2000  90.0000  14 1

