# MOL2 file generated by ConQuest
# Please check atom types

@<TRIPOS>MOLECULE
ZENQDX01
    22    23     1
SMALL
NO_CHARGES
****
Generated from CSD

@<TRIPOS>ATOM
      1 C1         3.1953    3.2204   -4.9426 C.2       1 RES1    0.0000
      2 C2         2.3803    1.9885   -5.0653 C.2       1 RES1    0.0000
      3 C3         1.4566    1.8633   -6.1894 C.2       1 RES1    0.0000
      4 C4         1.3843    2.8138   -7.1235 C.2       1 RES1    0.0000
      5 C5         2.0796    4.9829   -8.1048 C.ar      1 RES1    0.0000
      6 C6         2.8353    6.1195   -8.0818 C.ar      1 RES1    0.0000
      7 C7         3.7409    6.3311   -7.0278 C.ar      1 RES1    0.0000
      8 C8         3.8605    5.4016   -6.0263 C.ar      1 RES1    0.0000
      9 C9         3.0835    4.2407   -6.0277 C.ar      1 RES1    0.0000
     10 C10        2.1788    4.0169   -7.0871 C.ar      1 RES1    0.0000
     11 N1         3.9997    3.5128   -3.9493 N.2       1 RES1    0.0000
     12 N2         2.5505    1.0757   -4.1528 N.2       1 RES1    0.0000
     13 O1         4.1466    2.5767   -2.9303 O.3       1 RES1    0.0000
     14 O2         1.7693   -0.0499   -4.3402 O.3       1 RES1    0.0000
     15 H1         3.5393    1.8611   -3.1810 H         1 RES1    0.0000
     16 H2         2.0898   -0.5207   -3.7471 H         1 RES1    0.0000
     17 H3         1.3077    1.0746   -6.2676 H         1 RES1    0.0000
     18 H4         0.8366    2.7030   -7.8311 H         1 RES1    0.0000
     19 H5         1.4789    4.8189   -8.7477 H         1 RES1    0.0000
     20 H6         2.8741    6.7908   -8.7747 H         1 RES1    0.0000
     21 H7         4.2721    7.1121   -6.9955 H         1 RES1    0.0000
     22 H8         4.4671    5.5722   -5.3511 H         1 RES1    0.0000
@<TRIPOS>BOND
     1    1    2 1
     2    2    3 1
     3    3    4 2
     4    4   10 1
     5    5    6 ar
     6    6    7 ar
     7    7    8 ar
     8    8    9 ar
     9    9    1 1
    10   10    5 ar
    11   11    1 2
    12   12    2 2
    13   13   11 1
    14   14   12 1
    15   15   13 1
    16   16   14 1
    17   17    3 1
    18   18    4 1
    19   19    5 1
    20   20    6 1
    21   21    7 1
    22   22    8 1
    23    9   10 ar
@<TRIPOS>SUBSTRUCTURE
     1 RES1 1

@<TRIPOS>CRYSIN
  11.9930   11.0780   13.6320  90.0000  98.6000  90.0000  15 1

