# MOL2 file generated by ConQuest
# Please check atom types

@<TRIPOS>MOLECULE
ZENXOF
    39    40     1
SMALL
NO_CHARGES
****
Generated from CSD

@<TRIPOS>ATOM
      1 N1       -12.1986    9.8777    7.5214 N.pl3     1 RES1    0.0000
      2 N2        -1.2579   12.2761    2.6062 N.am      1 RES1    0.0000
      3 H1        -1.1103   11.7167    2.0288 H         1 RES1    0.0000
      4 O1       -13.0207    9.1810    6.9471 O.2       1 RES1    0.0000
      5 O2       -12.3824   10.3481    8.6338 O.2       1 RES1    0.0000
      6 O3        -0.3023   14.0971    3.5878 O.2       1 RES1    0.0000
      7 O4         0.7524   12.9053    1.9981 O.3       1 RES1    0.0000
      8 C1       -10.9177   10.1428    6.8632 C.ar      1 RES1    0.0000
      9 C2       -10.6455    9.5280    5.6737 C.ar      1 RES1    0.0000
     10 H2       -11.2668    8.9580    5.2816 H         1 RES1    0.0000
     11 C3        -9.4367    9.7694    5.0651 C.ar      1 RES1    0.0000
     12 H3        -9.2446    9.3512    4.2563 H         1 RES1    0.0000
     13 C4        -8.4965   10.6164    5.6265 C.ar      1 RES1    0.0000
     14 C5        -8.8098   11.2259    6.8393 C.ar      1 RES1    0.0000
     15 H4        -8.1937   11.8011    7.2328 H         1 RES1    0.0000
     16 C6       -10.0179   10.9950    7.4670 C.ar      1 RES1    0.0000
     17 H5       -10.2194   11.4040    8.2771 H         1 RES1    0.0000
     18 C7        -7.2283   10.8196    4.9181 C.2       1 RES1    0.0000
     19 H6        -7.1132   10.3328    4.1338 H         1 RES1    0.0000
     20 C8        -6.2412   11.6059    5.2625 C.2       1 RES1    0.0000
     21 H7        -6.3570   12.1099    6.0346 H         1 RES1    0.0000
     22 C9        -4.9635   11.7721    4.5477 C.ar      1 RES1    0.0000
     23 C10       -4.5348   10.9251    3.5333 C.ar      1 RES1    0.0000
     24 H8        -5.0763   10.2153    3.2760 H         1 RES1    0.0000
     25 C11       -3.3207   11.1164    2.9002 C.ar      1 RES1    0.0000
     26 H9        -3.0574   10.5359    2.2221 H         1 RES1    0.0000
     27 C12       -2.4917   12.1662    3.2688 C.ar      1 RES1    0.0000
     28 C13       -2.9101   13.0254    4.2645 C.ar      1 RES1    0.0000
     29 H10       -2.3771   13.7458    4.5137 H         1 RES1    0.0000
     30 C14       -4.1207   12.8130    4.8881 C.ar      1 RES1    0.0000
     31 H11       -4.3815   13.3949    5.5648 H         1 RES1    0.0000
     32 C15       -0.2736   13.1824    2.8162 C.2       1 RES1    0.0000
     33 C16        1.8485   13.8461    2.0192 C.3       1 RES1    0.0000
     34 H12        2.3005   13.8197    2.8770 H         1 RES1    0.0000
     35 H13        1.5236   14.7471    1.8681 H         1 RES1    0.0000
     36 C17        2.7833   13.4397    0.9245 C.3       1 RES1    0.0000
     37 H14        3.6114   14.1337    0.8973 H         1 RES1    0.0000
     38 H15        2.2822   13.4384   -0.0313 H         1 RES1    0.0000
     39 H16        3.1533   12.4476    1.1383 H         1 RES1    0.0000
@<TRIPOS>BOND
     1    1    4 2
     2    2    3 1
     3    5    1 2
     4    6   32 2
     5    7   32 1
     6    8    1 1
     7    9    8 ar
     8   10    9 1
     9   11    9 ar
    10   12   11 1
    11   13   11 ar
    12   14   13 ar
    13   15   14 1
    14   16    8 ar
    15   17   16 1
    16   18   13 1
    17   19   18 1
    18   20   18 2
    19   21   20 1
    20   22   20 1
    21   23   22 ar
    22   24   23 1
    23   25   23 ar
    24   26   25 1
    25   27    2 1
    26   28   27 ar
    27   29   28 1
    28   30   22 ar
    29   31   30 1
    30   32    2 1
    31   33    7 1
    32   34   33 1
    33   35   33 1
    34   36   33 1
    35   37   36 1
    36   38   36 1
    37   39   36 1
    38   14   16 ar
    39   25   27 ar
    40   28   30 ar
@<TRIPOS>SUBSTRUCTURE
     1 RES1 1

@<TRIPOS>CRYSIN
   8.5440   13.1930   13.6160  90.0000  90.2300  90.0000 231 1

