# MOL2 file generated by ConQuest
# Please check atom types

@<TRIPOS>MOLECULE
ZENXUL
    82    84     2
SMALL
NO_CHARGES
****
Generated from CSD

@<TRIPOS>ATOM
      1 C1         3.2241    9.7602    6.4874 C.ar      1 RES1    0.0000
      2 H1         3.6655   10.5380    6.2314 H         1 RES1    0.0000
      3 C2         1.9469    9.4896    6.0279 C.ar      1 RES1    0.0000
      4 C3         1.2508    8.3245    6.3674 C.ar      1 RES1    0.0000
      5 C4         1.9410    7.4348    7.2006 C.ar      1 RES1    0.0000
      6 H2         1.5326    6.6316    7.4303 H         1 RES1    0.0000
      7 C5         3.1999    7.7007    7.6932 C.ar      1 RES1    0.0000
      8 H3         3.6205    7.1024    8.2670 H         1 RES1    0.0000
      9 C6         3.8197    8.8665    7.3194 C.ar      1 RES1    0.0000
     10 C7        -0.0715    7.9846    5.8530 C.2       1 RES1    0.0000
     11 H4        -0.3832    8.4822    5.1318 H         1 RES1    0.0000
     12 C8        -0.8599    7.0451    6.3102 C.2       1 RES1    0.0000
     13 H5        -0.5605    6.5638    7.0474 H         1 RES1    0.0000
     14 C9        -2.1691    6.6842    5.7662 C.ar      1 RES1    0.0000
     15 C10       -2.8201    7.4399    4.7970 C.ar      1 RES1    0.0000
     16 H6        -2.4282    8.2261    4.4929 H         1 RES1    0.0000
     17 C11       -4.0297    7.0482    4.2815 C.ar      1 RES1    0.0000
     18 H7        -4.4444    7.5674    3.6300 H         1 RES1    0.0000
     19 C12       -4.6372    5.8848    4.7227 C.ar      1 RES1    0.0000
     20 C13       -4.0137    5.1175    5.6839 C.ar      1 RES1    0.0000
     21 H8        -4.4029    4.3256    5.9776 H         1 RES1    0.0000
     22 C14       -2.8050    5.5341    6.2085 C.ar      1 RES1    0.0000
     23 H9        -2.4051    5.0270    6.8783 H         1 RES1    0.0000
     24 C15       -6.7914    4.6702    4.6187 C.2       1 RES1    0.0000
     25 C16       -8.9083    3.7283    4.1100 C.3       1 RES1    0.0000
     26 H10       -9.2034    3.8945    5.0187 H         1 RES1    0.0000
     27 H11       -8.6253    2.8030    4.0392 H         1 RES1    0.0000
     28 C17      -10.0137    4.0145    3.1374 C.3       1 RES1    0.0000
     29 H12      -10.7634    3.4464    3.3294 H         1 RES1    0.0000
     30 H13       -9.7057    3.8473    2.2436 H         1 RES1    0.0000
     31 H14      -10.2804    4.9334    3.2174 H         1 RES1    0.0000
     32 O1         5.6393    8.4469    8.6716 O.2       1 RES1    0.0000
     33 O2         5.7569   10.1293    7.3446 O.2       1 RES1    0.0000
     34 O3         2.1410   11.1343    4.4255 O.2       1 RES1    0.0000
     35 O4         0.1723   10.6570    5.0987 O.2       1 RES1    0.0000
     36 O5        -6.7322    4.0610    5.6462 O.2       1 RES1    0.0000
     37 O6        -7.8188    4.6186    3.7603 O.3       1 RES1    0.0000
     38 N1         5.1698    9.1691    7.8121 N.pl3     1 RES1    0.0000
     39 N2         1.3735   10.5071    5.1341 N.pl3     1 RES1    0.0000
     40 N3        -5.8702    5.5320    4.1329 N.am      1 RES1    0.0000
     41 H15       -6.0872    5.9797    3.4106 H         1 RES1    0.0000
     42 C18       10.5960    3.9087   11.5129 C.ar      2 RES2    0.0000
     43 H16       11.2044    4.5925   11.3472 H         2 RES2    0.0000
     44 C19        9.4333    3.7914   10.7746 C.ar      2 RES2    0.0000
     45 C20        8.4722    2.7972   11.0135 C.ar      2 RES2    0.0000
     46 C21        8.7810    1.9025   12.0387 C.ar      2 RES2    0.0000
     47 H17        8.1793    1.2207   12.2318 H         2 RES2    0.0000
     48 C22        9.9335    1.9866   12.7713 C.ar      2 RES2    0.0000
     49 H18       10.1104    1.3733   13.4479 H         2 RES2    0.0000
     50 C23       10.8200    2.9868   12.4924 C.ar      2 RES2    0.0000
     51 C24        7.1920    2.7453   10.3174 C.2       2 RES2    0.0000
     52 H19        7.0335    3.4142    9.6911 H         2 RES2    0.0000
     53 C25        6.2369    1.8546   10.4786 C.2       2 RES2    0.0000
     54 H20        6.3938    1.1634   11.0809 H         2 RES2    0.0000
     55 C26        4.9489    1.8648    9.7871 C.ar      2 RES2    0.0000
     56 C27        4.4768    2.9783    9.1024 C.ar      2 RES2    0.0000
     57 H21        4.9707    3.7656    9.1184 H         2 RES2    0.0000
     58 C28        3.2939    2.9414    8.4018 C.ar      2 RES2    0.0000
     59 H22        2.9986    3.7028    7.9561 H         2 RES2    0.0000
     60 C29        2.5352    1.7790    8.3515 C.ar      2 RES2    0.0000
     61 C30        2.9719    0.6678    9.0487 C.ar      2 RES2    0.0000
     62 H23        2.4693   -0.1150    9.0453 H         2 RES2    0.0000
     63 C31        4.1591    0.7306    9.7505 C.ar      2 RES2    0.0000
     64 H24        4.4396   -0.0224   10.2191 H         2 RES2    0.0000
     65 C32        0.3100    0.9755    7.6520 C.2       2 RES2    0.0000
     66 C33       -1.8488    0.6112    6.7571 C.3       2 RES2    0.0000
     67 H25       -2.2539    0.5915    7.6383 H         2 RES2    0.0000
     68 H26       -1.6697   -0.3005    6.4782 H         2 RES2    0.0000
     69 C34       -2.7520    1.2838    5.7845 C.3       2 RES2    0.0000
     70 H27       -3.5829    0.8045    5.7342 H         2 RES2    0.0000
     71 H28       -2.3375    1.2967    4.9181 H         2 RES2    0.0000
     72 H29       -2.9191    2.1840    6.0725 H         2 RES2    0.0000
     73 O7        12.8590    3.9569   12.9485 O.2       2 RES2    0.0000
     74 O8        12.1841    2.3902   14.2480 O.2       2 RES2    0.0000
     75 O9         9.7151    5.8953    9.9094 O.2       2 RES2    0.0000
     76 O10        8.7578    4.4497    8.6556 O.2       2 RES2    0.0000
     77 O11        0.2043    0.0353    8.3732 O.2       2 RES2    0.0000
     78 O12       -0.6285    1.3798    6.7800 O.3       2 RES2    0.0000
     79 N4        12.0563    3.1110   13.2868 N.pl3     2 RES2    0.0000
     80 N5         9.2764    4.7804    9.7025 N.pl3     2 RES2    0.0000
     81 N6         1.3747    1.8085    7.5606 N.am      2 RES2    0.0000
     82 H30        1.3349    2.4896    7.0394 H         2 RES2    0.0000
@<TRIPOS>BOND
     1    1    2 1
     2    3    1 ar
     3    4    3 ar
     4    5    4 ar
     5    6    5 1
     6    7    5 ar
     7    8    7 1
     8    9    1 ar
     9   10    4 1
    10   11   10 1
    11   12   10 2
    12   13   12 1
    13   14   12 1
    14   15   14 ar
    15   16   15 1
    16   17   15 ar
    17   18   17 1
    18   19   17 ar
    19   20   19 ar
    20   21   20 1
    21   22   14 ar
    22   23   22 1
    23   24   36 2
    24   25   26 1
    25   27   25 1
    26   28   25 1
    27   29   28 1
    28   30   28 1
    29   31   28 1
    30   32   38 2
    31   33   38 2
    32   34   39 2
    33   35   39 2
    34   37   24 1
    35   38    9 1
    36   39    3 1
    37   40   19 1
    38   41   40 1
    39   42   43 1
    40   44   42 ar
    41   45   44 ar
    42   46   45 ar
    43   47   46 1
    44   48   46 ar
    45   49   48 1
    46   50   42 ar
    47   51   45 1
    48   52   51 1
    49   53   51 2
    50   54   53 1
    51   55   53 1
    52   56   55 ar
    53   57   56 1
    54   58   56 ar
    55   59   58 1
    56   60   58 ar
    57   61   60 ar
    58   62   61 1
    59   63   55 ar
    60   64   63 1
    61   65   77 2
    62   66   67 1
    63   68   66 1
    64   69   66 1
    65   70   69 1
    66   71   69 1
    67   72   69 1
    68   73   79 2
    69   74   79 2
    70   75   80 2
    71   76   80 2
    72   78   65 1
    73   79   50 1
    74   80   44 1
    75   81   60 1
    76   82   81 1
    77    7    9 ar
    78   20   22 ar
    79   24   40 1
    80   25   37 1
    81   48   50 ar
    82   61   63 ar
    83   65   81 1
    84   66   78 1
@<TRIPOS>SUBSTRUCTURE
     1 RES1 1
     2 RES2 42

@<TRIPOS>CRYSIN
   8.6070   33.9180   11.4300  90.0000  90.5400  90.0000 231 1

