# MOL2 file generated by ConQuest
# Please check atom types

@<TRIPOS>MOLECULE
ZEPFIJ
    45    47     1
SMALL
NO_CHARGES
****
Generated from CSD

@<TRIPOS>ATOM
      1 O1         0.6628    7.9558   10.8139 O.2       1 RES1    0.0000
      2 N1         1.4894    7.9317    6.8743 N.2       1 RES1    0.0000
      3 N2         1.5247    7.1231   10.3367 N.pl3     1 RES1    0.0000
      4 C1         1.6109    9.6332    8.5213 C.ar      1 RES1    0.0000
      5 C2         2.3306   10.1104    9.6161 C.ar      1 RES1    0.0000
      6 C3         2.3392   11.4587    9.8912 C.ar      1 RES1    0.0000
      7 C4         1.6299   12.3681    9.1276 C.ar      1 RES1    0.0000
      8 C5         0.8972   11.8767    8.0590 C.ar      1 RES1    0.0000
      9 C6         0.8938   10.5339    7.7502 C.ar      1 RES1    0.0000
     10 C7         1.6299    8.1994    8.1320 C.2       1 RES1    0.0000
     11 C8         1.4213    6.5900    6.4008 C.ar      1 RES1    0.0000
     12 C9         0.4818    5.6860    6.8331 C.ar      1 RES1    0.0000
     13 C10        0.3930    4.4233    6.2436 C.ar      1 RES1    0.0000
     14 C11        1.2506    4.0503    5.2273 C.ar      1 RES1    0.0000
     15 C12        2.1849    4.9740    4.8006 C.ar      1 RES1    0.0000
     16 C13        2.2651    6.2312    5.3564 C.ar      1 RES1    0.0000
     17 C14        1.9651    7.1451    9.1014 C.2       1 RES1    0.0000
     18 C15        1.9832    6.0809   11.2481 C.ar      1 RES1    0.0000
     19 C16        3.2907    5.6366   11.1995 C.ar      1 RES1    0.0000
     20 C17        3.6907    4.6460   12.0903 C.ar      1 RES1    0.0000
     21 C18        2.7926    4.1436   13.0205 C.ar      1 RES1    0.0000
     22 C19        1.5100    4.6120   13.0579 C.ar      1 RES1    0.0000
     23 C20        1.0817    5.5851   12.1727 C.ar      1 RES1    0.0000
     24 C21        1.6376   13.8481    9.4608 C.3       1 RES1    0.0000
     25 C22        1.1489    2.6823    4.5816 C.3       1 RES1    0.0000
     26 H1         2.8624    9.4259   10.0878 H         1 RES1    0.0000
     27 H2         2.8288   11.7538   10.6754 H         1 RES1    0.0000
     28 H3         0.3784   12.4197    7.4844 H         1 RES1    0.0000
     29 H4         0.4542   10.2432    7.0034 H         1 RES1    0.0000
     30 H5        -0.1301    5.8890    7.5218 H         1 RES1    0.0000
     31 H6        -0.2732    3.9033    6.5505 H         1 RES1    0.0000
     32 H7         2.7986    4.6888    4.0183 H         1 RES1    0.0000
     33 H8         2.9572    6.9608    5.0046 H         1 RES1    0.0000
     34 H9         2.6348    6.3486    8.8394 H         1 RES1    0.0000
     35 H10        3.9906    6.0689   10.5631 H         1 RES1    0.0000
     36 H11        4.5888    4.3070   12.0211 H         1 RES1    0.0000
     37 H12        3.0615    3.4447   13.6643 H         1 RES1    0.0000
     38 H13        0.8860    4.2642   13.7916 H         1 RES1    0.0000
     39 H14        0.1095    5.8901   12.1540 H         1 RES1    0.0000
     40 H15        2.0194   14.2617    8.7421 H         1 RES1    0.0000
     41 H16        0.8274   14.1289    9.2212 H         1 RES1    0.0000
     42 H17        1.6118   14.0006   10.3760 H         1 RES1    0.0000
     43 H18        1.1662    2.0383    5.1580 H         1 RES1    0.0000
     44 H19        0.4378    2.6867    3.8816 H         1 RES1    0.0000
     45 H20        1.9177    2.6461    4.0183 H         1 RES1    0.0000
@<TRIPOS>BOND
     1    1    3 1
     2    2   10 2
     3    3   17 2
     4    4    5 ar
     5    5    6 ar
     6    6    7 ar
     7    7    8 ar
     8    8    9 ar
     9    9    4 ar
    10   10    4 1
    11   11    2 1
    12   12   11 ar
    13   13   12 ar
    14   14   13 ar
    15   15   14 ar
    16   16   11 ar
    17   17   10 1
    18   18    3 1
    19   19   18 ar
    20   20   19 ar
    21   21   20 ar
    22   22   21 ar
    23   23   18 ar
    24   24    7 1
    25   25   14 1
    26   26    5 1
    27   27    6 1
    28   28    8 1
    29   29    9 1
    30   30   12 1
    31   31   13 1
    32   32   15 1
    33   33   16 1
    34   34   17 1
    35   35   19 1
    36   36   20 1
    37   37   21 1
    38   38   22 1
    39   39   23 1
    40   40   24 1
    41   41   24 1
    42   42   24 1
    43   43   25 1
    44   44   25 1
    45   45   25 1
    46   15   16 ar
    47   22   23 ar
@<TRIPOS>SUBSTRUCTURE
     1 RES1 1

@<TRIPOS>CRYSIN
   8.6190   10.9705   18.7157  90.0000  90.0000  90.0000  33 1

