# MOL2 file generated by ConQuest
# Please check atom types

@<TRIPOS>MOLECULE
ZEQPAP
   118   124     2
SMALL
NO_CHARGES
****
Generated from CSD

@<TRIPOS>ATOM
      1 O1         7.1828   10.0221    9.7292 O.2       1 RES1    0.0000
      2 O2         8.5409    8.5795    8.9045 O.2       1 RES1    0.0000
      3 O3         1.2270    6.2090    3.9659 O.3       1 RES1    0.0000
      4 N1         1.6801    8.1442    2.9839 N.am      1 RES1    0.0000
      5 C1         2.8408    7.1465    0.4892 C.ar      1 RES1    0.0000
      6 H1         1.9952    6.8049    0.6700 H         1 RES1    0.0000
      7 C2         3.3409    7.0797   -0.7895 C.ar      1 RES1    0.0000
      8 H2         2.8405    6.6817   -1.4638 H         1 RES1    0.0000
      9 C3         4.5842    7.6028   -1.0713 C.ar      1 RES1    0.0000
     10 H3         4.9238    7.5563   -1.9365 H         1 RES1    0.0000
     11 C4         5.3183    8.1925   -0.0737 C.ar      1 RES1    0.0000
     12 H4         6.1515    8.5567   -0.2684 H         1 RES1    0.0000
     13 C5         4.8330    8.2511    1.2172 C.ar      1 RES1    0.0000
     14 H5         5.3412    8.6464    1.8883 H         1 RES1    0.0000
     15 C6         3.5864    7.7195    1.5132 C.ar      1 RES1    0.0000
     16 C7         3.0495    7.7162    2.8955 C.2       1 RES1    0.0000
     17 C8         3.7555    7.3065    3.9457 C.2       1 RES1    0.0000
     18 H6         4.6228    7.0239    3.7628 H         1 RES1    0.0000
     19 C9         3.3361    7.2394    5.3930 C.3       1 RES1    0.0000
     20 H7         2.5492    7.8131    5.5043 H         1 RES1    0.0000
     21 C10        2.9631    5.7951    5.9296 C.3       1 RES1    0.0000
     22 H8         3.2923    5.7694    6.8534 H         1 RES1    0.0000
     23 C11        1.4869    5.4620    6.0221 C.2       1 RES1    0.0000
     24 N2         0.5777    5.6548    5.1493 N.2       1 RES1    0.0000
     25 C12        0.7257    7.4316    3.6463 C.2       1 RES1    0.0000
     26 O4        -0.3801    7.8136    3.8963 O.2       1 RES1    0.0000
     27 C13        1.0174    4.7878    7.2758 C.3       1 RES1    0.0000
     28 H9         1.1012    5.3930    8.0166 H         1 RES1    0.0000
     29 H10        1.5524    4.0077    7.4384 H         1 RES1    0.0000
     30 H11        0.0977    4.5307    7.1746 H         1 RES1    0.0000
     31 C14        3.6950    4.6606    5.2083 C.3       1 RES1    0.0000
     32 H12        3.4743    4.6807    4.2745 H         1 RES1    0.0000
     33 H13        3.4272    3.8186    5.5823 H         1 RES1    0.0000
     34 H14        4.6426    4.7715    5.3161 H         1 RES1    0.0000
     35 C15        4.4408    7.7831    6.2901 C.ar      1 RES1    0.0000
     36 C16        4.1408    8.6667    7.3182 C.ar      1 RES1    0.0000
     37 H15        3.2658    8.9625    7.4247 H         1 RES1    0.0000
     38 C17        5.1181    9.1175    8.1901 C.ar      1 RES1    0.0000
     39 H16        4.9081    9.7143    8.8724 H         1 RES1    0.0000
     40 C18        6.4033    8.6654    8.0281 C.ar      1 RES1    0.0000
     41 C19        6.7395    7.7946    7.0220 C.ar      1 RES1    0.0000
     42 H17        7.6166    7.4989    6.9291 H         1 RES1    0.0000
     43 C20        5.7632    7.3652    6.1522 C.ar      1 RES1    0.0000
     44 H18        5.9896    6.7868    5.4607 H         1 RES1    0.0000
     45 N3         7.4458    9.1222    8.9589 N.pl3     1 RES1    0.0000
     46 C21        1.3242    9.4028    2.3797 C.ar      1 RES1    0.0000
     47 C22        0.2713    9.4840    1.4939 C.ar      1 RES1    0.0000
     48 H19       -0.2141    8.7208    1.2757 H         1 RES1    0.0000
     49 C23       -0.0606   10.7003    0.9334 C.ar      1 RES1    0.0000
     50 H20       -0.7799   10.7459    0.3465 H         1 RES1    0.0000
     51 C24        0.6500   11.8574    1.2229 C.ar      1 RES1    0.0000
     52 C25        1.7175   11.7407    2.0911 C.ar      1 RES1    0.0000
     53 H21        2.2220   12.4955    2.2898 H         1 RES1    0.0000
     54 C26        2.0573   10.5357    2.6723 C.ar      1 RES1    0.0000
     55 H22        2.7776   10.4866    3.2580 H         1 RES1    0.0000
     56 C27        0.2550   13.1933    0.6255 C.3       1 RES1    0.0000
     57 H23       -0.1570   13.0518   -0.2294 H         1 RES1    0.0000
     58 H24        1.0373   13.7390    0.5185 H         1 RES1    0.0000
     59 H25       -0.3648   13.6347    1.2091 H         1 RES1    0.0000
     60 O5        10.1565    3.8081    1.7403 O.2       2 RES2    0.0000
     61 O6        11.5168    2.3689    2.5706 O.2       2 RES2    0.0000
     62 N4         4.6801    1.9330    8.4872 N.am      2 RES2    0.0000
     63 O7         4.2209   -0.0006    7.5070 O.3       2 RES2    0.0000
     64 C28        7.1246    2.4521    4.1545 C.ar      2 RES2    0.0000
     65 H26        6.2479    2.7450    4.0496 H         2 RES2    0.0000
     66 C29        8.0989    2.9048    3.2794 C.ar      2 RES2    0.0000
     67 H27        7.8868    3.5002    2.5973 H         2 RES2    0.0000
     68 C30        9.3808    2.4538    3.4443 C.ar      2 RES2    0.0000
     69 C31        9.7240    1.5853    4.4488 C.ar      2 RES2    0.0000
     70 H28       10.6021    1.2939    4.5406 H         2 RES2    0.0000
     71 C32        8.7495    1.1512    5.3212 C.ar      2 RES2    0.0000
     72 H29        8.9763    0.5697    6.0113 H         2 RES2    0.0000
     73 C33        7.4299    1.5720    5.1826 C.ar      2 RES2    0.0000
     74 N5        10.4233    2.9078    2.5114 N.pl3     2 RES2    0.0000
     75 C34        6.3283    1.0263    6.0785 C.3       2 RES2    0.0000
     76 H30        5.5413    1.5996    5.9677 H         2 RES2    0.0000
     77 C35        5.9528   -0.4183    5.5410 C.3       2 RES2    0.0000
     78 H31        6.2813   -0.4456    4.6186 H         2 RES2    0.0000
     79 C36        4.4745   -0.7525    5.4508 C.2       2 RES2    0.0000
     80 N6         3.5686   -0.5577    6.3254 N.2       2 RES2    0.0000
     81 C37        3.7235    1.2158    7.8264 C.2       2 RES2    0.0000
     82 C38        6.7505    1.0955    7.5247 C.2       2 RES2    0.0000
     83 H32        7.6179    0.8121    7.7046 H         2 RES2    0.0000
     84 C39        6.0500    1.5062    8.5746 C.2       2 RES2    0.0000
     85 C40        6.6840   -1.5492    6.2639 C.3       2 RES2    0.0000
     86 H33        7.6314   -1.4369    6.1582 H         2 RES2    0.0000
     87 H34        6.4186   -2.3923    5.8897 H         2 RES2    0.0000
     88 H35        6.4621   -1.5287    7.1975 H         2 RES2    0.0000
     89 C41        3.9966   -1.4265    4.1958 C.3       2 RES2    0.0000
     90 H36        3.0784   -1.6868    4.3020 H         2 RES2    0.0000
     91 H37        4.5320   -2.2049    4.0267 H         2 RES2    0.0000
     92 H38        4.0731   -0.8184    3.4577 H         2 RES2    0.0000
     93 O8         2.6144    1.6032    7.5759 O.2       2 RES2    0.0000
     94 C42        4.3255    3.1913    9.0920 C.ar      2 RES2    0.0000
     95 C43        5.0572    4.3223    8.7999 C.ar      2 RES2    0.0000
     96 H39        5.7760    4.2724    8.2116 H         2 RES2    0.0000
     97 C44        4.7238    5.5310    9.3811 C.ar      2 RES2    0.0000
     98 H40        5.2306    6.2852    9.1822 H         2 RES2    0.0000
     99 C45        3.6562    5.6466   10.2502 C.ar      2 RES2    0.0000
    100 C46        2.9480    4.4920   10.5395 C.ar      2 RES2    0.0000
    101 H41        2.2295    4.5386   11.1278 H         2 RES2    0.0000
    102 C47        3.2784    3.2751    9.9786 C.ar      2 RES2    0.0000
    103 H42        2.7941    2.5133   10.2009 H         2 RES2    0.0000
    104 C48        3.2655    6.9798   10.8463 C.3       2 RES2    0.0000
    105 H43        2.5882    7.3874   10.3018 H         2 RES2    0.0000
    106 H44        4.0349    7.5527   10.8823 H         2 RES2    0.0000
    107 H45        2.9239    6.8458   11.7335 H         2 RES2    0.0000
    108 C49        6.5921    1.5102    9.9570 C.ar      2 RES2    0.0000
    109 C50        5.8495    0.9352   10.9824 C.ar      2 RES2    0.0000
    110 H46        5.0040    0.5925   10.8043 H         2 RES2    0.0000
    111 C51        6.3568    0.8695   12.2603 C.ar      2 RES2    0.0000
    112 H47        5.8587    0.4697   12.9358 H         2 RES2    0.0000
    113 C52        7.5988    1.3935   12.5419 C.ar      2 RES2    0.0000
    114 H48        7.9390    1.3494   13.4062 H         2 RES2    0.0000
    115 C53        8.3325    1.9797   11.5456 C.ar      2 RES2    0.0000
    116 H49        9.1682    2.3395   11.7358 H         2 RES2    0.0000
    117 C54        7.8363    2.0388   10.2573 C.ar      2 RES2    0.0000
    118 H50        8.3426    2.4374    9.5860 H         2 RES2    0.0000
@<TRIPOS>BOND
     1    1   45 2
     2    2   45 2
     3    3   24 1
     4    4   16 1
     5    5    6 1
     6    7    5 ar
     7    8    7 1
     8    9    7 ar
     9   10    9 1
    10   11    9 ar
    11   12   11 1
    12   13   11 ar
    13   14   13 1
    14   15    5 ar
    15   16   15 1
    16   17   16 2
    17   18   17 1
    18   19   17 1
    19   20   19 1
    20   21   19 1
    21   22   21 1
    22   23   21 1
    23   24   23 2
    24   25    3 1
    25   26   25 2
    26   27   23 1
    27   28   27 1
    28   29   27 1
    29   30   27 1
    30   31   21 1
    31   32   31 1
    32   33   31 1
    33   34   31 1
    34   35   19 1
    35   36   35 ar
    36   37   36 1
    37   38   36 ar
    38   39   38 1
    39   40   38 ar
    40   41   40 ar
    41   42   41 1
    42   43   35 ar
    43   44   43 1
    44   45   40 1
    45   46    4 1
    46   47   46 ar
    47   48   47 1
    48   49   47 ar
    49   50   49 1
    50   51   49 ar
    51   52   51 ar
    52   53   52 1
    53   54   46 ar
    54   55   54 1
    55   56   51 1
    56   57   56 1
    57   58   56 1
    58   59   56 1
    59   60   74 2
    60   61   74 2
    61   62   81 1
    62   63   80 1
    63   64   65 1
    64   66   64 ar
    65   67   66 1
    66   68   66 ar
    67   69   68 ar
    68   70   69 1
    69   71   69 ar
    70   72   71 1
    71   73   64 ar
    72   74   68 1
    73   75   73 1
    74   76   75 1
    75   77   75 1
    76   78   77 1
    77   79   77 1
    78   80   79 2
    79   81   63 1
    80   82   75 1
    81   83   82 1
    82   84   62 1
    83   85   77 1
    84   86   85 1
    85   87   85 1
    86   88   85 1
    87   89   79 1
    88   90   89 1
    89   91   89 1
    90   92   89 1
    91   93   81 2
    92   94   62 1
    93   95   94 ar
    94   96   95 1
    95   97   95 ar
    96   98   97 1
    97   99   97 ar
    98  100   99 ar
    99  101  100 1
   100  102   94 ar
   101  103  102 1
   102  104   99 1
   103  105  104 1
   104  106  104 1
   105  107  104 1
   106  108   84 1
   107  109  108 ar
   108  110  109 1
   109  111  109 ar
   110  112  111 1
   111  113  111 ar
   112  114  113 1
   113  115  113 ar
   114  116  115 1
   115  117  108 ar
   116  118  117 1
   117    4   25 1
   118   13   15 ar
   119   41   43 ar
   120   52   54 ar
   121   71   73 ar
   122   82   84 2
   123  100  102 ar
   124  115  117 ar
@<TRIPOS>SUBSTRUCTURE
     1 RES1 1
     2 RES2 60

@<TRIPOS>CRYSIN
   8.2080   12.6230   22.9440  89.9740  89.8860  79.8240   2 1

