# MOL2 file generated by ConQuest
# Please check atom types

@<TRIPOS>MOLECULE
ZERJOX
    83    88     1
SMALL
NO_CHARGES
****
Generated from CSD

@<TRIPOS>ATOM
      1 O1        -4.1041   10.1974   16.0511 O.2       1 RES1    0.0000
      2 O2        -3.9876    8.0009   15.6846 O.3       1 RES1    0.0000
      3 C1        -1.9700    7.9056   14.4817 C.3       1 RES1    0.0000
      4 H1        -1.5267    7.6061   13.6361 H         1 RES1    0.0000
      5 O3         6.8140    6.1004   18.3531 O.2       1 RES1    0.0000
      6 O4         5.3357    6.4157   21.0294 O.2       1 RES1    0.0000
      7 O5         3.4975    4.1245   20.2850 O.2       1 RES1    0.0000
      8 O6         5.5342    3.6875   19.7281 O.2       1 RES1    0.0000
      9 O7         5.6845    4.8091   17.0369 O.2       1 RES1    0.0000
     10 N1         4.5272    4.3574   19.6905 N.pl3     1 RES1    0.0000
     11 N2         5.8030    5.5171   18.0147 N.pl3     1 RES1    0.0000
     12 C2         0.0373    8.9326   15.7717 C.3       1 RES1    0.0000
     13 C3         3.4921    8.3307   18.4948 C.3       1 RES1    0.0000
     14 H2         4.0125    8.2939   17.6412 H         1 RES1    0.0000
     15 C4        -1.0100    7.7907   15.6842 C.3       1 RES1    0.0000
     16 H3        -1.5738    7.8553   16.5078 H         1 RES1    0.0000
     17 C5        -0.6990   10.2930   15.6925 C.3       1 RES1    0.0000
     18 H4        -1.2631   10.3984   16.4999 H         1 RES1    0.0000
     19 H5        -0.0269   11.0207   15.6993 H         1 RES1    0.0000
     20 C6        -2.5755    9.3086   14.3224 C.3       1 RES1    0.0000
     21 C7         0.8110    8.7846   17.1610 C.3       1 RES1    0.0000
     22 C8         1.8996    9.8698   17.2802 C.3       1 RES1    0.0000
     23 H6         2.4599    9.8533   16.4647 H         1 RES1    0.0000
     24 H7         1.4642   10.7569   17.3299 H         1 RES1    0.0000
     25 C9         2.4883    7.1531   18.4259 C.3       1 RES1    0.0000
     26 C10       -0.3264    6.4212   15.7277 C.3       1 RES1    0.0000
     27 H8         0.2626    6.3236   14.9378 H         1 RES1    0.0000
     28 H9        -1.0140    5.7100   15.6856 H         1 RES1    0.0000
     29 C11        4.5474    8.2208   19.6423 C.3       1 RES1    0.0000
     30 C12        0.5053    6.2484   17.0063 C.3       1 RES1    0.0000
     31 H10        0.9938    5.3879   16.9600 H         1 RES1    0.0000
     32 H11       -0.1039    6.2099   17.7860 H         1 RES1    0.0000
     33 C13       -1.5798   10.4456   14.4510 C.3       1 RES1    0.0000
     34 H12       -2.0702   11.3049   14.5013 H         1 RES1    0.0000
     35 H13       -1.0063   10.4698   13.6439 H         1 RES1    0.0000
     36 C14        1.0027    8.8808   14.5571 C.3       1 RES1    0.0000
     37 H14        1.5055    9.7207   14.5033 H         1 RES1    0.0000
     38 H15        0.4858    8.7559   13.7340 H         1 RES1    0.0000
     39 H16        1.6268    8.1336   14.6677 H         1 RES1    0.0000
     40 C15        3.3006    5.8794   18.0663 C.3       1 RES1    0.0000
     41 H17        2.7158    5.0892   18.1775 H         1 RES1    0.0000
     42 H18        3.5594    5.9272   17.1126 H         1 RES1    0.0000
     43 C16        2.7969    9.6906   18.4997 C.3       1 RES1    0.0000
     44 H19        2.2521    9.7761   19.3227 H         1 RES1    0.0000
     45 H20        3.4806   10.4072   18.5103 H         1 RES1    0.0000
     46 C17        1.7692    6.8934   19.7604 C.3       1 RES1    0.0000
     47 H21        1.4016    7.7343   20.1018 H         1 RES1    0.0000
     48 H22        2.4060    6.5276   20.4091 H         1 RES1    0.0000
     49 H23        1.0419    6.2522   19.6202 H         1 RES1    0.0000
     50 C18       -3.2755    7.1308   14.7256 C.3       1 RES1    0.0000
     51 H24       -3.0842    6.2376   15.1336 H         1 RES1    0.0000
     52 C19        1.5136    7.3888   17.2121 C.3       1 RES1    0.0000
     53 H25        2.0991    7.3641   16.4021 H         1 RES1    0.0000
     54 C20       -4.1689    6.9782   13.4838 C.3       1 RES1    0.0000
     55 C21       -4.5219    8.3811   12.9498 C.3       1 RES1    0.0000
     56 H26       -4.8360    8.2954   12.0153 H         1 RES1    0.0000
     57 H27       -5.2699    8.7457   13.4854 H         1 RES1    0.0000
     58 C22        4.8734    6.7733   19.9741 C.2       1 RES1    0.0000
     59 C23        4.5643    5.6780   18.9075 C.3       1 RES1    0.0000
     60 C24       -3.3581    9.3740   12.9889 C.3       1 RES1    0.0000
     61 H28       -3.7095   10.2906   12.8629 H         1 RES1    0.0000
     62 H29       -2.7408    9.1800   12.2404 H         1 RES1    0.0000
     63 C25       -3.6207    9.2896   15.4394 C.2       1 RES1    0.0000
     64 C26        5.8574    8.9114   19.1823 C.3       1 RES1    0.0000
     65 H30        6.1780    8.4878   18.3596 H         1 RES1    0.0000
     66 H31        6.5369    8.8215   19.8825 H         1 RES1    0.0000
     67 H32        5.6845    9.8606   19.0153 H         1 RES1    0.0000
     68 C27       -0.1887    8.9458   18.3404 C.3       1 RES1    0.0000
     69 H33       -0.8822    9.5925   18.0953 H         1 RES1    0.0000
     70 H34        0.2905    9.2660   19.1328 H         1 RES1    0.0000
     71 H35       -0.6041    8.0797   18.5377 H         1 RES1    0.0000
     72 C28       -3.4182    6.1561   12.4271 C.3       1 RES1    0.0000
     73 H36       -4.0366    5.9024   11.7099 H         1 RES1    0.0000
     74 H37       -3.0505    5.3486   12.8433 H         1 RES1    0.0000
     75 H38       -2.6879    6.6923   12.0544 H         1 RES1    0.0000
     76 C29       -5.4493    6.2358   13.8782 C.3       1 RES1    0.0000
     77 H39       -5.2228    5.3296   14.1764 H         1 RES1    0.0000
     78 H40       -6.0482    6.1837   13.1036 H         1 RES1    0.0000
     79 H41       -5.8952    6.7185   14.6051 H         1 RES1    0.0000
     80 C30        4.1343    8.8871   20.9729 C.3       1 RES1    0.0000
     81 H42        4.8437    8.7589   21.6365 H         1 RES1    0.0000
     82 H43        3.3055    8.4790   21.2998 H         1 RES1    0.0000
     83 H44        3.9914    9.8461   20.8280 H         1 RES1    0.0000
@<TRIPOS>BOND
     1    1   63 2
     2    2   50 1
     3    3    4 1
     4    5   11 2
     5    6   58 2
     6    7   10 2
     7    8   10 2
     8    9   11 2
     9   10   59 1
    10   11   59 1
    11   12   15 1
    12   13   14 1
    13   15    3 1
    14   16   15 1
    15   17   12 1
    16   18   17 1
    17   19   17 1
    18   20    3 1
    19   21   12 1
    20   22   21 1
    21   23   22 1
    22   24   22 1
    23   25   13 1
    24   26   15 1
    25   27   26 1
    26   28   26 1
    27   29   13 1
    28   30   26 1
    29   31   30 1
    30   32   30 1
    31   33   17 1
    32   34   33 1
    33   35   33 1
    34   36   12 1
    35   37   36 1
    36   38   36 1
    37   39   36 1
    38   40   25 1
    39   41   40 1
    40   42   40 1
    41   43   13 1
    42   44   43 1
    43   45   43 1
    44   46   25 1
    45   47   46 1
    46   48   46 1
    47   49   46 1
    48   50    3 1
    49   51   50 1
    50   52   21 1
    51   53   52 1
    52   54   50 1
    53   55   54 1
    54   56   55 1
    55   57   55 1
    56   58   29 1
    57   59   40 1
    58   60   20 1
    59   61   60 1
    60   62   60 1
    61   63    2 1
    62   64   29 1
    63   65   64 1
    64   66   64 1
    65   67   64 1
    66   68   21 1
    67   69   68 1
    68   70   68 1
    69   71   68 1
    70   72   54 1
    71   73   72 1
    72   74   72 1
    73   75   72 1
    74   76   54 1
    75   77   76 1
    76   78   76 1
    77   79   76 1
    78   80   29 1
    79   81   80 1
    80   82   80 1
    81   83   80 1
    82   20   33 1
    83   20   63 1
    84   22   43 1
    85   25   52 1
    86   30   52 1
    87   55   60 1
    88   58   59 1
@<TRIPOS>SUBSTRUCTURE
     1 RES1 1

@<TRIPOS>CRYSIN
   9.6201   14.5738   19.5752  90.0000  90.0000  90.0000  19 1

