# MOL2 file generated by ConQuest
# Please check atom types

@<TRIPOS>MOLECULE
ZERWUR
    38    40     1
SMALL
NO_CHARGES
****
Generated from CSD

@<TRIPOS>ATOM
      1 O1        -0.1494    8.2427    7.8315 O.3       1 RES1    0.0000
      2 N1        -1.9865   13.1714    6.8407 N.2       1 RES1    0.0000
      3 C1         0.0785    9.0565    6.7520 C.2       1 RES1    0.0000
      4 O2         0.3261    8.5257    5.6972 O.2       1 RES1    0.0000
      5 C2        -0.0354   10.4709    6.9993 C.2       1 RES1    0.0000
      6 H1         0.0147   11.0649    6.2602 H         1 RES1    0.0000
      7 C3        -0.2099   10.9911    8.2326 C.2       1 RES1    0.0000
      8 O3        -0.6052   13.1076    7.0825 O.3       1 RES1    0.0000
      9 O4        -3.9820   14.3435    4.3050 O.2       1 RES1    0.0000
     10 C4        -0.3088   10.0992    9.3830 C.ar      1 RES1    0.0000
     11 C5        -0.4624   10.4825   10.7724 C.ar      1 RES1    0.0000
     12 C6        -0.2872   11.8015   11.2662 C.ar      1 RES1    0.0000
     13 H2        -0.0221   12.4896   10.6666 H         1 RES1    0.0000
     14 C7        -0.4919   12.1075   12.5948 C.ar      1 RES1    0.0000
     15 H3        -0.3746   13.0019   12.8955 H         1 RES1    0.0000
     16 C8        -0.8716   11.1139   13.5066 C.ar      1 RES1    0.0000
     17 H4        -1.0417   11.3394   14.4137 H         1 RES1    0.0000
     18 C9        -0.9957    9.8222   13.0866 C.ar      1 RES1    0.0000
     19 H5        -1.2329    9.1473   13.7126 H         1 RES1    0.0000
     20 C10       -0.7769    9.4705   11.7307 C.ar      1 RES1    0.0000
     21 C11       -0.8423    8.1114   11.3346 C.ar      1 RES1    0.0000
     22 H6        -1.0512    7.4462   11.9791 H         1 RES1    0.0000
     23 C12       -0.6108    7.7480   10.0483 C.ar      1 RES1    0.0000
     24 H7        -0.6266    6.8315    9.7972 H         1 RES1    0.0000
     25 C13       -0.3469    8.7435    9.0899 C.ar      1 RES1    0.0000
     26 C14       -0.3765   12.4921    8.3503 C.3       1 RES1    0.0000
     27 H8        -1.1392   12.6887    8.9498 H         1 RES1    0.0000
     28 H9         0.4385   12.8801    8.7575 H         1 RES1    0.0000
     29 C15       -2.2179   13.5809    5.6523 C.2       1 RES1    0.0000
     30 C16       -1.1850   13.8975    4.6250 C.3       1 RES1    0.0000
     31 H10       -0.4948   14.4691    5.0209 H         1 RES1    0.0000
     32 H11       -1.6047   14.3647    3.8735 H         1 RES1    0.0000
     33 H12       -0.7768   13.0657    4.3051 H         1 RES1    0.0000
     34 C17       -3.6689   13.7541    5.3224 C.2       1 RES1    0.0000
     35 C18       -4.6835   13.2186    6.2791 C.3       1 RES1    0.0000
     36 H13       -5.5833   13.4272    5.9509 H         1 RES1    0.0000
     37 H14       -4.5535   13.6301    7.1588 H         1 RES1    0.0000
     38 H15       -4.5795   12.2480    6.3553 H         1 RES1    0.0000
@<TRIPOS>BOND
     1    1    3 1
     2    2    8 1
     3    3    4 2
     4    5    3 1
     5    6    5 1
     6    7    5 2
     7    8   26 1
     8    9   34 2
     9   10    7 1
    10   11   10 ar
    11   12   11 ar
    12   13   12 1
    13   14   12 ar
    14   15   14 1
    15   16   14 ar
    16   17   16 1
    17   18   16 ar
    18   19   18 1
    19   20   11 ar
    20   21   20 ar
    21   22   21 1
    22   23   21 ar
    23   24   23 1
    24   25    1 1
    25   26    7 1
    26   27   26 1
    27   28   26 1
    28   29    2 2
    29   30   29 1
    30   31   30 1
    31   32   30 1
    32   33   30 1
    33   34   29 1
    34   35   34 1
    35   36   35 1
    36   37   35 1
    37   38   35 1
    38   10   25 ar
    39   18   20 ar
    40   23   25 ar
@<TRIPOS>SUBSTRUCTURE
     1 RES1 1

@<TRIPOS>CRYSIN
   7.1714   19.3308   10.6997  90.0000 102.4205  90.0000  14 1

