# MOL2 file generated by ConQuest
# Please check atom types

@<TRIPOS>MOLECULE
ZESCEF
    42    45     1
SMALL
NO_CHARGES
****
Generated from CSD

@<TRIPOS>ATOM
      1 O1        13.9267    4.7961    5.3079 O.3       1 RES1    0.0000
      2 O2        12.2374   -1.0524    2.9713 O.2       1 RES1    0.0000
      3 O3        12.6067    2.1531   -0.3569 O.2       1 RES1    0.0000
      4 N1        12.2672   -0.4529    1.8304 N.3       1 RES1    0.0000
      5 N2        12.4009    1.0395    0.2624 N.pl3     1 RES1    0.0000
      6 C1        13.5227    3.7695    4.5129 C.ar      1 RES1    0.0000
      7 C2        13.5180    2.4190    4.8588 C.ar      1 RES1    0.0000
      8 C3        13.1579    1.4891    3.9046 C.ar      1 RES1    0.0000
      9 C4        12.8235    1.8582    2.6078 C.ar      1 RES1    0.0000
     10 C5        12.8127    3.2200    2.2729 C.ar      1 RES1    0.0000
     11 C6        13.1695    4.1547    3.2348 C.ar      1 RES1    0.0000
     12 C7        12.5010    0.8541    1.5932 C.2       1 RES1    0.0000
     13 C8        12.2420   -1.2297    0.5754 C.3       1 RES1    0.0000
     14 C9        11.3224   -2.4093    0.6874 C.3       1 RES1    0.0000
     15 C10       13.6545   -1.7599    0.3349 C.3       1 RES1    0.0000
     16 C11       11.8617   -0.1628   -0.4216 C.3       1 RES1    0.0000
     17 C12       12.4213   -0.2434   -1.7986 C.3       1 RES1    0.0000
     18 C13       10.3542    0.0290   -0.5062 C.3       1 RES1    0.0000
     19 C14       14.1654    4.4883    6.6804 C.3       1 RES1    0.0000
     20 C15       12.9001    4.4045    7.4052 C.1       1 RES1    0.0000
     21 C16       11.8234    4.4158    7.9344 C.1       1 RES1    0.0000
     22 C16A      10.6001    4.4158    8.5361 C.1       1 RES1    0.0000
     23 C15A       9.5233    4.4045    9.0654 C.1       1 RES1    0.0000
     24 C14A       8.2581    4.4883    9.7901 C.3       1 RES1    0.0000
     25 O1A        8.4968    4.7961   11.1626 O.3       1 RES1    0.0000
     26 C1A        8.9008    3.7695   11.9576 C.ar      1 RES1    0.0000
     27 C2A        8.9055    2.4190   11.6117 C.ar      1 RES1    0.0000
     28 C3A        9.2656    1.4891   12.5659 C.ar      1 RES1    0.0000
     29 C4A        9.6000    1.8582   13.8627 C.ar      1 RES1    0.0000
     30 C5A        9.6107    3.2200   14.1976 C.ar      1 RES1    0.0000
     31 C6A        9.2540    4.1547   13.2357 C.ar      1 RES1    0.0000
     32 C7A        9.9224    0.8541   14.8773 C.2       1 RES1    0.0000
     33 N1A       10.1563   -0.4529   14.6401 N.pl3     1 RES1    0.0000
     34 O2A       10.1861   -1.0524   13.4992 O.2       1 RES1    0.0000
     35 C8A       10.1814   -1.2297   15.8952 C.3       1 RES1    0.0000
     36 C9A       11.1010   -2.4093   15.7832 C.3       1 RES1    0.0000
     37 C10A       8.7690   -1.7599   16.1356 C.3       1 RES1    0.0000
     38 C11A      10.5617   -0.1628   16.8922 C.3       1 RES1    0.0000
     39 N2A       10.0226    1.0395   16.2081 N.3       1 RES1    0.0000
     40 O3A        9.8168    2.1531   16.8274 O.2       1 RES1    0.0000
     41 C12A      10.0022   -0.2434   18.2691 C.3       1 RES1    0.0000
     42 C13A      12.0693    0.0290   16.9767 C.3       1 RES1    0.0000
@<TRIPOS>BOND
     1    1    6 1
     2    2    4 1
     3    3    5 1
     4    4   12 1
     5    5   12 2
     6    6    7 ar
     7    7    8 ar
     8    8    9 ar
     9    9   10 ar
    10   10   11 ar
    11   11    6 ar
    12   12    9 1
    13   13    4 1
    14   14   13 1
    15   15   13 1
    16   16    5 1
    17   17   16 1
    18   18   16 1
    19   19    1 1
    20   20   19 1
    21   21   20 3
    22   22   21 1
    23   23   22 3
    24   24   23 1
    25   25   24 1
    26   26   25 1
    27   27   26 ar
    28   28   27 ar
    29   29   28 ar
    30   30   29 ar
    31   31   26 ar
    32   32   29 1
    33   33   32 2
    34   34   33 1
    35   35   33 1
    36   36   35 1
    37   37   35 1
    38   38   35 1
    39   39   32 1
    40   40   39 1
    41   41   38 1
    42   42   38 1
    43   13   16 1
    44   30   31 ar
    45   38   39 1
@<TRIPOS>SUBSTRUCTURE
     1 RES1 1

@<TRIPOS>CRYSIN
  16.5700   16.1160   13.1000  90.0000 123.0500  90.0000  15 1

