# MOL2 file generated by ConQuest
# Please check atom types

@<TRIPOS>MOLECULE
ZESNOA
    37    38     1
SMALL
NO_CHARGES
****
Generated from CSD

@<TRIPOS>ATOM
      1 O1         6.3721   12.3257    5.8046 O.2       1 RES1    0.0000
      2 O2         5.7838   13.4169    4.0592 O.2       1 RES1    0.0000
      3 O3         3.8751   11.7775    2.7383 O.2       1 RES1    0.0000
      4 O4         3.8045    9.8146    3.6560 O.2       1 RES1    0.0000
      5 O5         1.3354    8.9340    2.9431 O.2       1 RES1    0.0000
      6 O6         0.6843    9.4945    4.9405 O.2       1 RES1    0.0000
      7 O7         1.6148   11.7882    1.3927 O.2       1 RES1    0.0000
      8 O8        -0.1397   11.6007    2.6418 O.2       1 RES1    0.0000
      9 N1         5.5692   12.9694    5.1635 N.pl3     1 RES1    0.0000
     10 N2         3.3055   10.8474    3.2872 N.pl3     1 RES1    0.0000
     11 N3         1.2391    9.7014    3.8769 N.pl3     1 RES1    0.0000
     12 N4         1.0542   11.5494    2.4359 N.pl3     1 RES1    0.0000
     13 C1         4.2426   13.2984    5.8700 C.3       1 RES1    0.0000
     14 C2         3.6762   12.0198    6.4297 C.2       1 RES1    0.0000
     15 C3         2.5634   11.4875    5.9923 C.2       1 RES1    0.0000
     16 C4         1.7587   12.0481    4.8493 C.3       1 RES1    0.0000
     17 C5         2.1351   13.4894    4.5030 C.ar      1 RES1    0.0000
     18 C6         1.2243   14.2586    3.7933 C.ar      1 RES1    0.0000
     19 C7         1.4556   15.6079    3.5381 C.ar      1 RES1    0.0000
     20 C8         2.6282   16.1667    4.0377 C.ar      1 RES1    0.0000
     21 C9         3.5470   15.4452    4.7689 C.ar      1 RES1    0.0000
     22 C10        3.3063   14.0676    4.9984 C.ar      1 RES1    0.0000
     23 C11        1.8593   11.0985    3.6421 C.3       1 RES1    0.0000
     24 C12        0.4339   16.4408    2.8090 C.3       1 RES1    0.0000
     25 C13        4.7634   16.1384    5.3211 C.3       1 RES1    0.0000
     26 H1         4.4637   13.8855    6.6495 H         1 RES1    0.0000
     27 H2         4.1463   11.5813    7.1298 H         1 RES1    0.0000
     28 H3         2.2448   10.7006    6.4201 H         1 RES1    0.0000
     29 H4         0.8016   12.0552    5.1399 H         1 RES1    0.0000
     30 H5         0.4254   13.8554    3.4738 H         1 RES1    0.0000
     31 H6         2.8025   17.0845    3.8673 H         1 RES1    0.0000
     32 H7        -0.2940   16.6742    3.4223 H         1 RES1    0.0000
     33 H8         0.0732   15.9280    2.0553 H         1 RES1    0.0000
     34 H9         0.8564   17.2596    2.4756 H         1 RES1    0.0000
     35 H10        5.5706   15.7405    4.9330 H         1 RES1    0.0000
     36 H11        4.7835   16.0359    6.2957 H         1 RES1    0.0000
     37 H12        4.7278   17.0916    5.0938 H         1 RES1    0.0000
@<TRIPOS>BOND
     1    1    9 2
     2    2    9 2
     3    3   10 2
     4    4   10 2
     5    5   11 2
     6    6   11 2
     7    7   12 2
     8    8   12 2
     9    9   13 1
    10   10   23 1
    11   11   23 1
    12   12   23 1
    13   13   14 1
    14   14   15 2
    15   15   16 1
    16   16   17 1
    17   17   18 ar
    18   18   19 ar
    19   19   20 ar
    20   20   21 ar
    21   21   22 ar
    22   22   13 1
    23   23   16 1
    24   24   19 1
    25   25   21 1
    26   26   13 1
    27   27   14 1
    28   28   15 1
    29   29   16 1
    30   30   18 1
    31   31   20 1
    32   32   24 1
    33   33   24 1
    34   34   24 1
    35   35   25 1
    36   36   25 1
    37   37   25 1
    38   17   22 ar
@<TRIPOS>SUBSTRUCTURE
     1 RES1 1

@<TRIPOS>CRYSIN
   7.8810   17.6840   10.9730  90.0000 102.2900  90.0000  14 1

