# MOL2 file generated by ConQuest
# Please check atom types

@<TRIPOS>MOLECULE
ZESNIU
    37    40     1
SMALL
NO_CHARGES
****
Generated from CSD

@<TRIPOS>ATOM
      1 O1         2.3667    8.0130    0.4669 O.2       1 RES1    0.0000
      2 O2         3.0629   10.0014    1.0027 O.2       1 RES1    0.0000
      3 O3        -0.8566    8.6379    0.1163 O.2       1 RES1    0.0000
      4 O4         0.2890   10.3991   -0.4321 O.2       1 RES1    0.0000
      5 O5         1.7456   10.7424    3.2795 O.3       1 RES1    0.0000
      6 O6        -0.4175   10.8583    2.8126 O.3       1 RES1    0.0000
      7 O7        -0.9996    6.3843    4.1318 O.2       1 RES1    0.0000
      8 O8        -0.9133    7.9538    5.6251 O.2       1 RES1    0.0000
      9 N1         2.2396    9.1090    0.9742 N.pl3     1 RES1    0.0000
     10 N2        -0.0028    9.4854    0.3102 N.pl3     1 RES1    0.0000
     11 N3         0.8657   10.7163    2.1850 N.3       1 RES1    0.0000
     12 N4        -0.8874    7.5656    4.4642 N.pl3     1 RES1    0.0000
     13 C1         0.4480    8.1645    2.4644 C.3       1 RES1    0.0000
     14 C2        -0.7572    8.6024    3.3602 C.3       1 RES1    0.0000
     15 C3        -0.3567    9.9375    3.9411 C.3       1 RES1    0.0000
     16 C4         1.1170   10.0251    4.4135 C.3       1 RES1    0.0000
     17 C5         1.8233    8.6924    4.4713 C.ar      1 RES1    0.0000
     18 C6         2.7587    8.3467    5.4233 C.ar      1 RES1    0.0000
     19 C7         3.4439    7.1466    5.3323 C.ar      1 RES1    0.0000
     20 C8         3.1899    6.2849    4.2925 C.ar      1 RES1    0.0000
     21 C9         2.2367    6.6045    3.3388 C.ar      1 RES1    0.0000
     22 C10        1.5697    7.8023    3.4211 C.ar      1 RES1    0.0000
     23 C11        0.8427    9.3575    1.5891 C.3       1 RES1    0.0000
     24 C12       -2.1600    8.6213    2.7239 C.3       1 RES1    0.0000
     25 C13        1.2913   10.9128    5.6220 C.3       1 RES1    0.0000
     26 H1         0.1993    7.3786    1.8985 H         1 RES1    0.0000
     27 H2        -0.9845   10.2145    4.6676 H         1 RES1    0.0000
     28 H3         2.9334    8.9362    6.1474 H         1 RES1    0.0000
     29 H4         4.0918    6.9193    5.9892 H         1 RES1    0.0000
     30 H5         3.6683    5.4659    4.2284 H         1 RES1    0.0000
     31 H6         2.0472    6.0009    2.6306 H         1 RES1    0.0000
     32 H7        -2.1881    9.3007    2.0172 H         1 RES1    0.0000
     33 H8        -2.8266    8.8368    3.4101 H         1 RES1    0.0000
     34 H9        -2.3582    7.7431    2.3401 H         1 RES1    0.0000
     35 H10        0.9677   10.4441    6.4197 H         1 RES1    0.0000
     36 H11        0.7793   11.7389    5.4977 H         1 RES1    0.0000
     37 H12        2.2403   11.1282    5.7336 H         1 RES1    0.0000
@<TRIPOS>BOND
     1    1    9 2
     2    2    9 2
     3    3   10 2
     4    4   10 2
     5    5   11 1
     6    6   11 1
     7    7   12 2
     8    8   12 2
     9    9   23 1
    10   10   23 1
    11   11   23 1
    12   12   14 1
    13   13   14 1
    14   14   15 1
    15   15    6 1
    16   16    5 1
    17   17   16 1
    18   18   17 ar
    19   19   18 ar
    20   20   19 ar
    21   21   20 ar
    22   22   13 1
    23   23   13 1
    24   24   14 1
    25   25   16 1
    26   26   13 1
    27   27   15 1
    28   28   18 1
    29   29   19 1
    30   30   20 1
    31   31   21 1
    32   32   24 1
    33   33   24 1
    34   34   24 1
    35   35   25 1
    36   36   25 1
    37   37   25 1
    38   15   16 1
    39   17   22 ar
    40   21   22 ar
@<TRIPOS>SUBSTRUCTURE
     1 RES1 1

@<TRIPOS>CRYSIN
   7.5940   23.6720    8.1790  90.0000 104.6300  90.0000  14 1

