# MOL2 file generated by ConQuest
# Please check atom types

@<TRIPOS>MOLECULE
ZETXOO
    27    28     1
SMALL
NO_CHARGES
****
Generated from CSD

@<TRIPOS>ATOM
      1 O1         4.5422    6.0549    7.6439 O.3       1 RES1    0.0000
      2 O2         3.1406    7.0592    9.0938 O.2       1 RES1    0.0000
      3 O3         7.2500    4.4530    7.6466 O.3       1 RES1    0.0000
      4 O4         3.7232    6.4721    2.8348 O.2       1 RES1    0.0000
      5 O5         1.7717    7.1629    2.1980 O.2       1 RES1    0.0000
      6 O6        -0.6995   10.0730    5.1652 O.2       1 RES1    0.0000
      7 O7        -0.6169    9.6100    7.2843 O.2       1 RES1    0.0000
      8 N1         2.6348    6.9939    3.0495 N.pl3     1 RES1    0.0000
      9 N2        -0.2001    9.5123    6.1398 N.pl3     1 RES1    0.0000
     10 C1         2.7480    7.3126    6.7616 C.ar      1 RES1    0.0000
     11 C2         3.0982    6.9427    5.4660 C.ar      1 RES1    0.0000
     12 H1         3.8385    6.3700    5.3036 H         1 RES1    0.0000
     13 C3         2.3349    7.4339    4.4193 C.ar      1 RES1    0.0000
     14 C4         1.2627    8.2877    4.5967 C.ar      1 RES1    0.0000
     15 H2         0.7590    8.6184    3.8624 H         1 RES1    0.0000
     16 C5         0.9618    8.6363    5.9070 C.ar      1 RES1    0.0000
     17 C6         1.6703    8.1635    6.9922 C.ar      1 RES1    0.0000
     18 H3         1.4284    8.4126    7.8759 H         1 RES1    0.0000
     19 C7         3.4834    6.8039    7.9668 C.2       1 RES1    0.0000
     20 C8         5.2894    5.5188    8.7757 C.3       1 RES1    0.0000
     21 H4         4.6720    5.3085    9.5200 H         1 RES1    0.0000
     22 H5         5.9471    6.1861    9.0951 H         1 RES1    0.0000
     23 C9         5.9900    4.2870    8.3314 C.3       1 RES1    0.0000
     24 H6         5.4337    3.5940    7.9773 H         1 RES1    0.0000
     25 C10        7.2328    3.9153    8.9935 C.3       1 RES1    0.0000
     26 H7         7.5793    4.4821    9.6348 H         1 RES1    0.0000
     27 H8         7.4721    2.9881    9.0453 H         1 RES1    0.0000
@<TRIPOS>BOND
     1    1   19 1
     2    2   19 2
     3    3   23 1
     4    4    8 2
     5    5    8 2
     6    6    9 2
     7    7    9 2
     8    8   13 1
     9    9   16 1
    10   10   11 ar
    11   11   12 1
    12   13   11 ar
    13   14   13 ar
    14   15   14 1
    15   16   14 ar
    16   17   10 ar
    17   18   17 1
    18   19   10 1
    19   20    1 1
    20   21   20 1
    21   22   20 1
    22   23   20 1
    23   24   23 1
    24   25    3 1
    25   26   25 1
    26   27   25 1
    27   16   17 ar
    28   23   25 1
@<TRIPOS>SUBSTRUCTURE
     1 RES1 1

@<TRIPOS>CRYSIN
   5.3640   10.4478   19.1395  90.0000  90.0000  90.0000  19 1

