# MOL2 file generated by ConQuest
# Please check atom types

@<TRIPOS>MOLECULE
ZETYIJ
    68    75     1
SMALL
NO_CHARGES
****
Generated from CSD

@<TRIPOS>ATOM
      1 N1         4.3411   10.3989    2.3152 N.ar      1 RES1    0.0000
      2 N2         7.1116    9.8670    1.8440 N.ar      1 RES1    0.0000
      3 N3         2.8274    7.6695    2.0790 N.3       1 RES1    0.0000
      4 N4         7.7539    6.6165    5.6755 N.pl3     1 RES1    0.0000
      5 H1         8.2374    5.9102    5.5914 H         1 RES1    0.0000
      6 N5        -0.7820    7.4899    8.8627 N.pl3     1 RES1    0.0000
      7 N6         3.3839    5.4404    5.0114 N.1       1 RES1    0.0000
      8 O1         4.4855    9.7300    5.5321 O.2       1 RES1    0.0000
      9 O2        -1.3493    6.4225    8.9233 O.2       1 RES1    0.0000
     10 O3        -0.8339    8.3384    9.7420 O.2       1 RES1    0.0000
     11 C1         4.1145    7.9166    2.6863 C.3       1 RES1    0.0000
     12 C2         5.1717    6.8889    2.3128 C.ar      1 RES1    0.0000
     13 C3         5.0406    5.5200    2.2497 C.ar      1 RES1    0.0000
     14 H2         4.2075    5.1204    2.3511 H         1 RES1    0.0000
     15 C4         6.1647    4.7546    2.0333 C.ar      1 RES1    0.0000
     16 H3         6.0893    3.8296    1.9863 H         1 RES1    0.0000
     17 C5         7.3992    5.3469    1.8873 C.ar      1 RES1    0.0000
     18 H4         8.1538    4.8112    1.8007 H         1 RES1    0.0000
     19 C6         7.5406    6.7158    1.8650 C.ar      1 RES1    0.0000
     20 H5         8.3699    7.1085    1.7154 H         1 RES1    0.0000
     21 C7         6.4029    7.4957    2.0741 C.ar      1 RES1    0.0000
     22 C8         6.1982    8.9217    2.0877 C.ar      1 RES1    0.0000
     23 C9         4.8664    9.2094    2.3536 C.ar      1 RES1    0.0000
     24 C10        5.2335   11.4063    1.9850 C.ar      1 RES1    0.0000
     25 C11        6.5973   11.1409    1.7785 C.ar      1 RES1    0.0000
     26 C12        7.4679   12.2063    1.4631 C.ar      1 RES1    0.0000
     27 H6         8.3756   12.0438    1.3419 H         1 RES1    0.0000
     28 C13        6.9832   13.4610    1.3394 C.ar      1 RES1    0.0000
     29 H7         7.5613   14.1560    1.1267 H         1 RES1    0.0000
     30 C14        5.6407   13.7227    1.5237 C.ar      1 RES1    0.0000
     31 H8         5.3241   14.5916    1.4285 H         1 RES1    0.0000
     32 C15        4.7721   12.7183    1.8453 C.ar      1 RES1    0.0000
     33 H9         3.8695   12.9081    1.9714 H         1 RES1    0.0000
     34 C16        3.7302    7.8904    4.2310 C.3       1 RES1    0.0000
     35 C17        2.3723    8.6340    4.2236 C.3       1 RES1    0.0000
     36 H10        2.5821    9.5908    4.2669 H         1 RES1    0.0000
     37 C18        1.7959    8.3842    2.8396 C.3       1 RES1    0.0000
     38 H11        0.9894    7.8487    2.9015 H         1 RES1    0.0000
     39 H12        1.5770    9.2252    2.4068 H         1 RES1    0.0000
     40 C19        2.7703    7.8708    0.6406 C.3       1 RES1    0.0000
     41 H13        2.9400    8.7942    0.4391 H         1 RES1    0.0000
     42 H14        1.9004    7.6275    0.3178 H         1 RES1    0.0000
     43 H15        3.4348    7.3229    0.2140 H         1 RES1    0.0000
     44 C20        4.7797    8.6290    5.1413 C.2       1 RES1    0.0000
     45 C21        6.0361    8.0224    5.4727 C.2       1 RES1    0.0000
     46 C22        6.5360    6.7799    5.1487 C.2       1 RES1    0.0000
     47 H16        6.0910    6.1449    4.6354 H         1 RES1    0.0000
     48 C23        8.1161    7.7487    6.3780 C.ar      1 RES1    0.0000
     49 C24        7.0379    8.6547    6.2927 C.ar      1 RES1    0.0000
     50 C25        7.1221    9.8618    6.9766 C.ar      1 RES1    0.0000
     51 H17        6.4261   10.4777    6.9445 H         1 RES1    0.0000
     52 C26        8.2607   10.1189    7.7026 C.ar      1 RES1    0.0000
     53 H18        8.3216   10.9110    8.1862 H         1 RES1    0.0000
     54 C27        9.3246    9.2207    7.7311 C.ar      1 RES1    0.0000
     55 H19       10.0959    9.4419    8.1998 H         1 RES1    0.0000
     56 C28        9.2548    8.0247    7.0867 C.ar      1 RES1    0.0000
     57 H20        9.9568    7.4176    7.1250 H         1 RES1    0.0000
     58 C29        1.4970    8.3386    5.4059 C.ar      1 RES1    0.0000
     59 C30        0.6700    7.2249    5.4702 C.ar      1 RES1    0.0000
     60 H21        0.6222    6.6504    4.7405 H         1 RES1    0.0000
     61 C31       -0.0844    6.9530    6.5982 C.ar      1 RES1    0.0000
     62 H22       -0.6374    6.2058    6.6291 H         1 RES1    0.0000
     63 C32       -0.0023    7.7990    7.6606 C.ar      1 RES1    0.0000
     64 C33        0.7731    8.9138    7.6358 C.ar      1 RES1    0.0000
     65 H23        0.7930    9.4960    8.3618 H         1 RES1    0.0000
     66 C34        1.5306    9.1616    6.5066 C.ar      1 RES1    0.0000
     67 H24        2.0817    9.9113    6.4906 H         1 RES1    0.0000
     68 C35        3.5490    6.5035    4.6564 C.1       1 RES1    0.0000
@<TRIPOS>BOND
     1    1   23 ar
     2    2   22 ar
     3    3   11 1
     4    4    5 1
     5    6    9 2
     6    7   68 3
     7    8   44 2
     8   10    6 2
     9   11   12 1
    10   12   13 ar
    11   13   14 1
    12   15   13 ar
    13   16   15 1
    14   17   15 ar
    15   18   17 1
    16   19   17 ar
    17   20   19 1
    18   21   12 ar
    19   22   21 1
    20   23   11 1
    21   24    1 ar
    22   25    2 ar
    23   26   25 ar
    24   27   26 1
    25   28   26 ar
    26   29   28 1
    27   30   28 ar
    28   31   30 1
    29   32   24 ar
    30   33   32 1
    31   34   11 1
    32   35   34 1
    33   36   35 1
    34   37    3 1
    35   38   37 1
    36   39   37 1
    37   40    3 1
    38   41   40 1
    39   42   40 1
    40   43   40 1
    41   44   34 1
    42   45   44 1
    43   46    4 1
    44   47   46 1
    45   48    4 1
    46   49   45 1
    47   50   49 ar
    48   51   50 1
    49   52   50 ar
    50   53   52 1
    51   54   52 ar
    52   55   54 1
    53   56   48 ar
    54   57   56 1
    55   58   35 1
    56   59   58 ar
    57   60   59 1
    58   61   59 ar
    59   62   61 1
    60   63    6 1
    61   64   63 ar
    62   65   64 1
    63   66   58 ar
    64   67   66 1
    65   68   34 1
    66   19   21 ar
    67   22   23 ar
    68   24   25 ar
    69   30   32 ar
    70   35   37 1
    71   45   46 2
    72   48   49 ar
    73   54   56 ar
    74   61   63 ar
    75   64   66 ar
@<TRIPOS>SUBSTRUCTURE
     1 RES1 1

@<TRIPOS>CRYSIN
  13.1928   22.5666   12.9306  90.0000 106.9680  90.0000  14 1

