# MOL2 file generated by ConQuest
# Please check atom types

@<TRIPOS>MOLECULE
ZEVGIT
    25    27     1
SMALL
NO_CHARGES
****
Generated from CSD

@<TRIPOS>ATOM
      1 O1         3.6121    4.5619    4.3775 O.3       1 RES1    0.0000
      2 N1         2.2316    3.3917    2.9593 N.pl3     1 RES1    0.0000
      3 N2         4.8268    5.3013    4.3609 N.2       1 RES1    0.0000
      4 N3         1.9058    2.9349    1.7138 N.2       1 RES1    0.0000
      5 C1         3.4045    4.1161    3.1303 C.2       1 RES1    0.0000
      6 C2         1.2977    3.0573    3.9014 C.2       1 RES1    0.0000
      7 H1         1.3155    3.2694    4.8068 H         1 RES1    0.0000
      8 C3         5.2583    5.2389    3.1223 C.2       1 RES1    0.0000
      9 C4         7.0015    5.8955    1.4654 C.ar      1 RES1    0.0000
     10 H2         6.5334    5.4341    0.8074 H         1 RES1    0.0000
     11 C5         6.5194    5.9230    2.7681 C.ar      1 RES1    0.0000
     12 C6         0.7559    2.3066    1.8973 C.2       1 RES1    0.0000
     13 H3         0.2805    1.8853    1.2176 H         1 RES1    0.0000
     14 C7         0.3334    2.3490    3.2445 C.2       1 RES1    0.0000
     15 H4        -0.4363    1.9737    3.6064 H         1 RES1    0.0000
     16 C8         4.3859    4.4850    2.2883 C.2       1 RES1    0.0000
     17 H5         4.4729    4.2942    1.3823 H         1 RES1    0.0000
     18 C9         8.1819    6.5563    1.1412 C.ar      1 RES1    0.0000
     19 H6         8.4998    6.5346    0.2670 H         1 RES1    0.0000
     20 C10        7.2418    6.6204    3.7456 C.ar      1 RES1    0.0000
     21 H7         6.9309    6.6399    4.6216 H         1 RES1    0.0000
     22 C11        8.4096    7.2791    3.4206 C.ar      1 RES1    0.0000
     23 H8         8.8777    7.7447    4.0747 H         1 RES1    0.0000
     24 C12        8.8869    7.2465    2.1150 C.ar      1 RES1    0.0000
     25 H9         9.6767    7.6858    1.8958 H         1 RES1    0.0000
@<TRIPOS>BOND
     1    1    3 1
     2    2    4 1
     3    3    8 2
     4    4   12 2
     5    5    1 1
     6    6    2 1
     7    7    6 1
     8    8   11 1
     9    9   10 1
    10   11    9 ar
    11   12   13 1
    12   14    6 2
    13   15   14 1
    14   16    5 2
    15   17   16 1
    16   18    9 ar
    17   19   18 1
    18   20   11 ar
    19   21   20 1
    20   22   20 ar
    21   23   22 1
    22   24   18 ar
    23   25   24 1
    24    2    5 1
    25    8   16 1
    26   12   14 1
    27   22   24 ar
@<TRIPOS>SUBSTRUCTURE
     1 RES1 1

@<TRIPOS>CRYSIN
   6.6661   14.0379   10.8986  90.0000  98.9650  90.0000  14 1

