# MOL2 file generated by ConQuest
# Please check atom types

@<TRIPOS>MOLECULE
ZEVKUI
   188   200     4
SMALL
NO_CHARGES
****
Generated from CSD

@<TRIPOS>ATOM
      1 O1         9.1235    1.9708   11.3215 O.3       1 RES1    0.0000
      2 O2         5.2194    1.8434   10.9199 O.2       1 RES1    0.0000
      3 O3         6.5774    0.4456   11.8517 O.2       1 RES1    0.0000
      4 N1         9.5044    0.8219   15.9450 N.1       1 RES1    0.0000
      5 N2         6.1858    1.5640   11.6285 N.pl3     1 RES1    0.0000
      6 C1        11.7442    1.1116   11.6564 C.ar      1 RES1    0.0000
      7 H1        11.6283    1.8838   11.1168 H         1 RES1    0.0000
      8 C2        12.9532    0.4161   11.6223 C.ar      1 RES1    0.0000
      9 H2        13.6629    0.7167   11.0657 H         1 RES1    0.0000
     10 C3        13.1113   -0.7002   12.3960 C.ar      1 RES1    0.0000
     11 H3        13.9464   -1.1513   12.4053 H         1 RES1    0.0000
     12 C4        12.0598   -1.1809   13.1681 C.ar      1 RES1    0.0000
     13 H4        12.1646   -1.9814   13.6689 H         1 RES1    0.0000
     14 C5        10.8594   -0.4921   13.2068 C.ar      1 RES1    0.0000
     15 H5        10.1381   -0.8194   13.7325 H         1 RES1    0.0000
     16 C6        10.7138    0.6821   12.4735 C.ar      1 RES1    0.0000
     17 C7         9.4548    1.4645   12.5401 C.2       1 RES1    0.0000
     18 C8         8.7237    1.6904   13.6410 C.2       1 RES1    0.0000
     19 C9         9.1723    1.2020   14.9186 C.1       1 RES1    0.0000
     20 C10        7.3946    2.4299   13.6410 C.3       1 RES1    0.0000
     21 H6         6.7099    1.8458   14.0751 H         1 RES1    0.0000
     22 C11        8.6150    4.4564   14.6240 C.ar      1 RES1    0.0000
     23 H7         9.4412    4.1002   14.3170 H         1 RES1    0.0000
     24 C12        8.5890    5.6807   15.3139 C.ar      1 RES1    0.0000
     25 H8         9.4003    6.1461   15.4798 H         1 RES1    0.0000
     26 C13        7.3892    6.2125   15.7527 C.ar      1 RES1    0.0000
     27 H9         7.3748    7.0408   16.2194 H         1 RES1    0.0000
     28 C14        6.2081    5.5263   15.5077 C.ar      1 RES1    0.0000
     29 H10        5.3820    5.8901   15.8039 H         1 RES1    0.0000
     30 C15        6.2198    4.3099   14.8302 C.ar      1 RES1    0.0000
     31 H11        5.4063    3.8481   14.6658 H         1 RES1    0.0000
     32 C16        7.4329    3.7700   14.3930 C.ar      1 RES1    0.0000
     33 C17        6.9515    2.6914   12.1835 C.3       1 RES1    0.0000
     34 H12        6.3494    3.4903   12.1913 H         1 RES1    0.0000
     35 C18        8.1391    3.0221   11.2920 C.3       1 RES1    0.0000
     36 H13        8.5643    3.8593   11.6347 H         1 RES1    0.0000
     37 C19        7.7703    3.2364    9.8346 C.ar      1 RES1    0.0000
     38 C20        7.3680    4.5039    9.4284 C.ar      1 RES1    0.0000
     39 H14        7.3770    5.2270   10.0424 H         1 RES1    0.0000
     40 C21        6.9490    4.7090    8.1074 C.ar      1 RES1    0.0000
     41 H15        6.6561    5.5692    7.8283 H         1 RES1    0.0000
     42 C22        6.9624    3.6618    7.2097 C.ar      1 RES1    0.0000
     43 H16        6.6785    3.8012    6.3135 H         1 RES1    0.0000
     44 C23        7.3903    2.4003    7.6159 C.ar      1 RES1    0.0000
     45 H17        7.4119    1.6837    6.9926 H         1 RES1    0.0000
     46 C24        7.7843    2.1898    8.9260 C.ar      1 RES1    0.0000
     47 H18        8.0664    1.3259    9.2020 H         1 RES1    0.0000
     48 O4         3.8559    6.4696   12.2735 O.3       2 RES2    0.0000
     49 O5         1.3247    8.0025   11.7913 O.2       2 RES2    0.0000
     50 O6        -0.0391    6.5981   12.6750 O.2       2 RES2    0.0000
     51 N3         4.2540    7.5314    7.6345 N.1       2 RES2    0.0000
     52 N4         0.9320    6.8826   11.9913 N.pl3     2 RES2    0.0000
     53 C25        6.4230    7.2899   12.1510 C.ar      2 RES2    0.0000
     54 H19        6.1735    6.6185   12.7758 H         2 RES2    0.0000
     55 C26        7.6541    7.8839   12.2595 C.ar      2 RES2    0.0000
     56 H20        8.2458    7.6238   12.9557 H         2 RES2    0.0000
     57 C27        8.0355    8.8570   11.3633 C.ar      2 RES2    0.0000
     58 H21        8.8942    9.2576   11.4331 H         2 RES2    0.0000
     59 C28        7.1675    9.2516   10.3617 C.ar      2 RES2    0.0000
     60 H22        7.4275    9.9234    9.7431 H         2 RES2    0.0000
     61 C29        5.9065    8.6594   10.2625 C.ar      2 RES2    0.0000
     62 H23        5.3011    8.9469    9.5896 H         2 RES2    0.0000
     63 C30        5.5351    7.6479   11.1478 C.ar      2 RES2    0.0000
     64 C31        4.2434    6.9343   11.0703 C.2       2 RES2    0.0000
     65 C32        3.4766    6.7275    9.9540 C.2       2 RES2    0.0000
     66 C33        3.9412    7.1701    8.6779 C.1       2 RES2    0.0000
     67 C34        2.1535    5.9877    9.9664 C.3       2 RES2    0.0000
     68 H24        1.4688    6.5638    9.5183 H         2 RES2    0.0000
     69 C35        2.1959    4.6467    9.2392 C.ar      2 RES2    0.0000
     70 C36        0.9843    4.0738    8.8020 C.ar      2 RES2    0.0000
     71 H25        0.1687    4.5439    8.9291 H         2 RES2    0.0000
     72 C37        0.9748    2.8417    8.1957 C.ar      2 RES2    0.0000
     73 H26        0.1508    2.4557    7.9213 H         2 RES2    0.0000
     74 C38        2.1706    2.1574    7.9802 C.ar      2 RES2    0.0000
     75 H27        2.1621    1.3079    7.5539 H         2 RES2    0.0000
     76 C39        3.3697    2.7154    8.3849 C.ar      2 RES2    0.0000
     77 H28        4.1860    2.2534    8.2361 H         2 RES2    0.0000
     78 C40        3.3784    3.9534    9.0113 C.ar      2 RES2    0.0000
     79 H29        4.2042    4.3325    9.2873 H         2 RES2    0.0000
     80 C41        1.6968    5.7312   11.4099 C.3       2 RES2    0.0000
     81 H30        1.0934    4.9325   11.4052 H         2 RES2    0.0000
     82 C42        2.8886    5.4121   12.2983 C.3       2 RES2    0.0000
     83 H31        3.3268    4.5859   11.9432 H         2 RES2    0.0000
     84 C43        2.5189    5.1587   13.7542 C.ar      2 RES2    0.0000
     85 C44        2.6150    6.1570   14.6999 C.ar      2 RES2    0.0000
     86 H32        2.9260    7.0202   14.4503 H         2 RES2    0.0000
     87 C45        2.2588    5.9006   16.0116 C.ar      2 RES2    0.0000
     88 H33        2.3346    6.5883   16.6644 H         2 RES2    0.0000
     89 C46        1.7887    4.6358   16.3853 C.ar      2 RES2    0.0000
     90 H34        1.5403    4.4601   17.2846 H         2 RES2    0.0000
     91 C47        1.6887    3.6525   15.4333 C.ar      2 RES2    0.0000
     92 H35        1.3528    2.7956   15.6705 H         2 RES2    0.0000
     93 C48        2.0794    3.9073   14.1154 C.ar      2 RES2    0.0000
     94 H36        2.0409    3.2128   13.4673 H         2 RES2    0.0000
     95 O7         8.9597   10.7836    5.9646 O.3       3 RES3    0.0000
     96 O8         4.9474   10.8716    5.8421 O.2       3 RES3    0.0000
     97 O9         6.3534   10.7443    7.4887 O.2       3 RES3    0.0000
     98 N5         9.5548    6.8385    8.5601 N.1       3 RES3    0.0000
     99 N6         5.9809   10.4707    6.3600 N.pl3     3 RES3    0.0000
    100 C49       11.5671   10.9290    6.8112 C.ar      3 RES3    0.0000
    101 H37       11.3994   11.1657    5.9073 H         3 RES3    0.0000
    102 C50       12.7628   11.3029    7.4050 C.ar      3 RES3    0.0000
    103 H38       13.4152   11.7792    6.9058 H         3 RES3    0.0000
    104 C51       13.0021   10.9756    8.7338 C.ar      3 RES3    0.0000
    105 H39       13.8182   11.2289    9.1493 H         3 RES3    0.0000
    106 C52       12.0496   10.2816    9.4501 C.ar      3 RES3    0.0000
    107 H40       12.2073   10.0665   10.3617 H         3 RES3    0.0000
    108 C53       10.8650    9.8976    8.8469 C.ar      3 RES3    0.0000
    109 H41       10.2206    9.4121    9.3493 H         3 RES3    0.0000
    110 C54       10.6076   10.2100    7.5244 C.ar      3 RES3    0.0000
    111 C55        9.3729    9.8207    6.8344 C.2       3 RES3    0.0000
    112 C56        8.6654    8.6624    6.9848 C.2       3 RES3    0.0000
    113 C57        9.1801    7.6542    7.8655 C.1       3 RES3    0.0000
    114 C58        7.3524    8.3676    6.2964 C.3       3 RES3    0.0000
    115 H42        6.6772    8.1589    7.0050 H         3 RES3    0.0000
    116 C59        7.3835    7.1931    5.3227 C.ar      3 RES3    0.0000
    117 C60        8.5674    6.7011    4.7832 C.ar      3 RES3    0.0000
    118 H43        9.4005    7.0800    5.0375 H         3 RES3    0.0000
    119 C61        8.5285    5.6456    3.8653 C.ar      3 RES3    0.0000
    120 H44        9.3359    5.2957    3.5087 H         3 RES3    0.0000
    121 C62        7.3100    5.1112    3.4808 C.ar      3 RES3    0.0000
    122 H45        7.2855    4.4023    2.8482 H         3 RES3    0.0000
    123 C63        6.1363    5.5976    4.0048 C.ar      3 RES3    0.0000
    124 H46        5.3046    5.2303    3.7289 H         3 RES3    0.0000
    125 C64        6.1655    6.6258    4.9398 C.ar      3 RES3    0.0000
    126 H47        5.3544    6.9429    5.3196 H         3 RES3    0.0000
    127 C65        6.8576    9.6068    5.5274 C.3       3 RES3    0.0000
    128 H48        6.3100    9.2810    4.7568 H         3 RES3    0.0000
    129 C66        8.0231   10.4225    4.9475 C.3       3 RES3    0.0000
    130 H49        8.4965    9.8550    4.2746 H         3 RES3    0.0000
    131 C67        7.5965   11.7049    4.2669 C.ar      3 RES3    0.0000
    132 C68        7.3737   11.7153    2.9056 C.ar      3 RES3    0.0000
    133 H50        7.4996   10.9211    2.4001 H         3 RES3    0.0000
    134 C69        6.9659   12.8801    2.2683 C.ar      3 RES3    0.0000
    135 H51        6.8191   12.8846    1.3287 H         3 RES3    0.0000
    136 C70        6.7739   14.0329    3.0048 C.ar      3 RES3    0.0000
    137 H52        6.4875   14.8280    2.5691 H         3 RES3    0.0000
    138 C71        6.9965   14.0432    4.3770 C.ar      3 RES3    0.0000
    139 H53        6.8741   14.8418    4.8778 H         3 RES3    0.0000
    140 C72        7.4015   12.8687    5.0095 C.ar      3 RES3    0.0000
    141 H54        7.5446   12.8618    5.9491 H         3 RES3    0.0000
    142 O10        3.8299    8.4952    2.2854 O.3       4 RES4    0.0000
    143 O11       -0.1304    8.1481    2.2017 O.2       4 RES4    0.0000
    144 O12        1.3506    8.3527    0.6434 O.2       4 RES4    0.0000
    145 N7         4.3097   12.4027   -0.4047 N.1       4 RES4    0.0000
    146 N8         0.8998    8.6237    1.7303 N.pl3     4 RES4    0.0000
    147 C73        6.4040    8.3037    1.4931 C.ar      4 RES4    0.0000
    148 H55        6.1791    8.0230    2.3722 H         4 RES4    0.0000
    149 C74        7.6185    7.9359    0.9411 C.ar      4 RES4    0.0000
    150 H56        8.2352    7.4224    1.4497 H         4 RES4    0.0000
    151 C75        7.9367    8.3138   -0.3504 C.ar      4 RES4    0.0000
    152 H57        8.7666    8.0475   -0.7287 H         4 RES4    0.0000
    153 C76        7.0688    9.0668   -1.0869 C.ar      4 RES4    0.0000
    154 H58        7.3035    9.3392   -1.9660 H         4 RES4    0.0000
    155 C77        5.8335    9.4386   -0.5458 C.ar      4 RES4    0.0000
    156 H59        5.2191    9.9332   -1.0745 H         4 RES4    0.0000
    157 C78        5.4972    9.0930    0.7535 C.ar      4 RES4    0.0000
    158 C79        4.2166    9.4481    1.4047 C.2       4 RES4    0.0000
    159 C80        3.4930   10.5704    1.2078 C.2       4 RES4    0.0000
    160 C81        3.9600   11.5839    0.3163 C.1       4 RES4    0.0000
    161 C82        2.1366   10.8236    1.8326 C.3       4 RES4    0.0000
    162 H60        1.4821   11.0060    1.0993 H         4 RES4    0.0000
    163 C83        2.0991   11.9927    2.8141 C.ar      4 RES4    0.0000
    164 C84        3.2287   12.4844    3.4637 C.ar      4 RES4    0.0000
    165 H61        4.0833   12.1175    3.2699 H         4 RES4    0.0000
    166 C85        3.1130   13.5038    4.3894 C.ar      4 RES4    0.0000
    167 H62        3.8939   13.8391    4.8157 H         4 RES4    0.0000
    168 C86        1.8832   14.0458    4.7057 C.ar      4 RES4    0.0000
    169 H63        1.8146   14.7401    5.3506 H         4 RES4    0.0000
    170 C87        0.7516   13.5680    4.0715 C.ar      4 RES4    0.0000
    171 H64       -0.0990   13.9328    4.2886 H         4 RES4    0.0000
    172 C88        0.8436   12.5614    3.1242 C.ar      4 RES4    0.0000
    173 H65        0.0611   12.2534    2.6823 H         4 RES4    0.0000
    174 C89        1.6579    9.5743    2.6110 C.3       4 RES4    0.0000
    175 H66        1.0454    9.8787    3.3397 H         4 RES4    0.0000
    176 C90        2.8338    8.8451    3.2544 C.3       4 RES4    0.0000
    177 H67        3.2527    9.4584    3.9242 H         4 RES4    0.0000
    178 C91        2.4285    7.5627    3.9723 C.ar      4 RES4    0.0000
    179 C92        2.0620    7.6256    5.2979 C.ar      4 RES4    0.0000
    180 H68        2.1023    8.4517    5.7662 H         4 RES4    0.0000
    181 C93        1.6301    6.4656    5.9553 C.ar      4 RES4    0.0000
    182 H69        1.3840    6.5008    6.8717 H         4 RES4    0.0000
    183 C94        1.5622    5.2708    5.2654 C.ar      4 RES4    0.0000
    184 H70        1.2500    4.4878    5.7057 H         4 RES4    0.0000
    185 C95        1.9450    5.2081    3.9428 C.ar      4 RES4    0.0000
    186 H71        1.9132    4.3798    3.4777 H         4 RES4    0.0000
    187 C96        2.3760    6.3529    3.2870 C.ar      4 RES4    0.0000
    188 H72        2.6337    6.3107    2.3738 H         4 RES4    0.0000
@<TRIPOS>BOND
     1    1   17 1
     2    2    5 2
     3    3    5 2
     4    4   19 3
     5    5   33 1
     6    6    7 1
     7    8    6 ar
     8    9    8 1
     9   10    8 ar
    10   11   10 1
    11   12   10 ar
    12   13   12 1
    13   14   12 ar
    14   15   14 1
    15   16    6 ar
    16   17   16 1
    17   18   17 2
    18   19   18 1
    19   20   18 1
    20   21   20 1
    21   22   23 1
    22   24   22 ar
    23   25   24 1
    24   26   24 ar
    25   27   26 1
    26   28   26 ar
    27   29   28 1
    28   30   28 ar
    29   31   30 1
    30   32   20 1
    31   33   20 1
    32   34   33 1
    33   35    1 1
    34   36   35 1
    35   37   35 1
    36   38   37 ar
    37   39   38 1
    38   40   38 ar
    39   41   40 1
    40   42   40 ar
    41   43   42 1
    42   44   42 ar
    43   45   44 1
    44   46   37 ar
    45   47   46 1
    46   48   64 1
    47   49   52 2
    48   50   52 2
    49   51   66 3
    50   52   80 1
    51   53   54 1
    52   55   53 ar
    53   56   55 1
    54   57   55 ar
    55   58   57 1
    56   59   57 ar
    57   60   59 1
    58   61   59 ar
    59   62   61 1
    60   63   53 ar
    61   64   63 1
    62   65   64 2
    63   66   65 1
    64   67   65 1
    65   68   67 1
    66   69   67 1
    67   70   69 ar
    68   71   70 1
    69   72   70 ar
    70   73   72 1
    71   74   72 ar
    72   75   74 1
    73   76   74 ar
    74   77   76 1
    75   78   69 ar
    76   79   78 1
    77   80   67 1
    78   81   80 1
    79   82   48 1
    80   83   82 1
    81   84   82 1
    82   85   84 ar
    83   86   85 1
    84   87   85 ar
    85   88   87 1
    86   89   87 ar
    87   90   89 1
    88   91   89 ar
    89   92   91 1
    90   93   84 ar
    91   94   93 1
    92   95  111 1
    93   96   99 2
    94   97   99 2
    95   98  113 3
    96   99  127 1
    97  100  101 1
    98  102  100 ar
    99  103  102 1
   100  104  102 ar
   101  105  104 1
   102  106  104 ar
   103  107  106 1
   104  108  106 ar
   105  109  108 1
   106  110  100 ar
   107  111  110 1
   108  112  111 2
   109  113  112 1
   110  114  112 1
   111  115  114 1
   112  116  114 1
   113  117  116 ar
   114  118  117 1
   115  119  117 ar
   116  120  119 1
   117  121  119 ar
   118  122  121 1
   119  123  121 ar
   120  124  123 1
   121  125  116 ar
   122  126  125 1
   123  127  114 1
   124  128  127 1
   125  129   95 1
   126  130  129 1
   127  131  129 1
   128  132  131 ar
   129  133  132 1
   130  134  132 ar
   131  135  134 1
   132  136  134 ar
   133  137  136 1
   134  138  136 ar
   135  139  138 1
   136  140  131 ar
   137  141  140 1
   138  142  158 1
   139  143  146 2
   140  144  146 2
   141  145  160 3
   142  146  174 1
   143  147  148 1
   144  149  147 ar
   145  150  149 1
   146  151  149 ar
   147  152  151 1
   148  153  151 ar
   149  154  153 1
   150  155  153 ar
   151  156  155 1
   152  157  147 ar
   153  158  157 1
   154  159  158 2
   155  160  159 1
   156  161  159 1
   157  162  161 1
   158  163  161 1
   159  164  163 ar
   160  165  164 1
   161  166  164 ar
   162  167  166 1
   163  168  166 ar
   164  169  168 1
   165  170  168 ar
   166  171  170 1
   167  172  163 ar
   168  173  172 1
   169  174  161 1
   170  175  174 1
   171  176  142 1
   172  177  176 1
   173  178  176 1
   174  179  178 ar
   175  180  179 1
   176  181  179 ar
   177  182  181 1
   178  183  181 ar
   179  184  183 1
   180  185  183 ar
   181  186  185 1
   182  187  178 ar
   183  188  187 1
   184   14   16 ar
   185   22   32 ar
   186   30   32 ar
   187   33   35 1
   188   44   46 ar
   189   61   63 ar
   190   76   78 ar
   191   80   82 1
   192   91   93 ar
   193  108  110 ar
   194  123  125 ar
   195  127  129 1
   196  138  140 ar
   197  155  157 ar
   198  170  172 ar
   199  174  176 1
   200  185  187 ar
@<TRIPOS>SUBSTRUCTURE
     1 RES1 1
     2 RES2 48
     3 RES3 95
     4 RES4 142

@<TRIPOS>CRYSIN
  10.5610   12.0730   15.7410  84.6100  80.7000  77.6400   1 1

