# MOL2 file generated by ConQuest
# Please check atom types

@<TRIPOS>MOLECULE
ZEVQUM
    15    15     1
SMALL
NO_CHARGES
****
Generated from CSD

@<TRIPOS>ATOM
      1 O1         5.9767    0.6092    5.3363 O.2       1 RES1    0.0000
      2 O2         5.6328    1.7036   -0.7017 O.2       1 RES1    0.0000
      3 O3         4.0601    1.7036    0.7303 O.2       1 RES1    0.0000
      4 N1         5.8493    1.7036    4.8096 N.pl3     1 RES1    0.0000
      5 N2         5.4859    1.7036    3.4831 N.3       1 RES1    0.0000
      6 N3         5.2312    1.7036    0.4327 N.pl3     1 RES1    0.0000
      7 C1         5.9609    2.7885    2.5921 C.3       1 RES1    0.0000
      8 C2         6.2416    1.7036    1.5499 C.3       1 RES1    0.0000
      9 H1         6.7314    3.2492    2.9021 H         1 RES1    0.0000
     10 H2         5.2944    3.4175    2.3411 H         1 RES1    0.0000
     11 H3         7.0558    1.7036    1.0612 H         1 RES1    0.0000
     12 O1G        5.9767    2.7980    5.3363 O.2       1 RES1    0.0000
     13 C1G        5.9609    0.6188    2.5921 C.3       1 RES1    0.0000
     14 H1G        6.7314    0.1581    2.9021 H         1 RES1    0.0000
     15 H2G        5.2944   -0.0102    2.3411 H         1 RES1    0.0000
@<TRIPOS>BOND
     1    1    4 2
     2    2    6 2
     3    3    6 2
     4    4    5 1
     5    5    7 1
     6    6    8 1
     7    7    8 1
     8    8   11 1
     9    9    7 1
    10   10    7 1
    11   12    4 2
    12   13    5 1
    13   14   13 1
    14   15   13 1
    15    8   13 1
@<TRIPOS>SUBSTRUCTURE
     1 RES1 1

@<TRIPOS>CRYSIN
   9.2950    6.8145    9.5088  90.0000  90.0000  90.0000  62 1

