# MOL2 file generated by ConQuest
# Please check atom types

@<TRIPOS>MOLECULE
ZEXKEU
    10    10     1
SMALL
NO_CHARGES
****
Generated from CSD

@<TRIPOS>ATOM
      1 O1        -1.4804    0.2291    4.6745 O.3       1 RES1    0.0000
      2 N1        -1.3700    0.9346    3.5206 N.pl3     1 RES1    0.0000
      3 N2        -2.3958    1.0523    2.6472 N.2       1 RES1    0.0000
      4 N3        -1.9137    1.6803    1.6283 N.2       1 RES1    0.0000
      5 N4        -0.5820    1.9514    1.8135 N.2       1 RES1    0.0000
      6 N5         0.9314    1.4479    3.6167 N.3       1 RES1    0.0000
      7 C1        -0.2544    1.4526    3.0045 C.2       1 RES1    0.0000
      8 H1         1.0409    0.9991    4.3732 H         1 RES1    0.0000
      9 H2         1.5560    1.8859    3.2753 H         1 RES1    0.0000
     10 H3        -1.9462    0.8434    5.3223 H         1 RES1    0.0000
@<TRIPOS>BOND
     1    1    2 1
     2    2    3 1
     3    3    4 2
     4    4    5 1
     5    5    7 2
     6    6    7 1
     7    7    2 1
     8    8    6 1
     9    9    6 1
    10   10    1 1
@<TRIPOS>SUBSTRUCTURE
     1 RES1 1

@<TRIPOS>CRYSIN
  11.7600    3.6198   10.2360  90.0000 114.6300  90.0000   9 1

