# MOL2 file generated by ConQuest
# Please check atom types

@<TRIPOS>MOLECULE
ZEYBAJ
    72    74     2
SMALL
NO_CHARGES
****
Generated from CSD

@<TRIPOS>ATOM
      1 O1         9.0527    2.4644    5.2249 O.3       1 RES1    0.0000
      2 N1         8.8442    2.4510    3.8397 N.am      1 RES1    0.0000
      3 C1         9.5879    3.3661    3.1762 C.2       1 RES1    0.0000
      4 N2         9.5554    3.5238    1.8915 N.2       1 RES1    0.0000
      5 C2         8.6553    2.7076    1.2460 C.2       1 RES1    0.0000
      6 C3         7.8370    1.8005    1.8516 C.2       1 RES1    0.0000
      7 C4         7.8830    1.6236    3.2854 C.2       1 RES1    0.0000
      8 O2         7.2140    0.8408    3.9671 O.2       1 RES1    0.0000
      9 C5         6.8822    0.9392    1.0875 C.3       1 RES1    0.0000
     10 C6        10.4115    4.1056    4.2032 C.3       1 RES1    0.0000
     11 C7        10.3498    3.1263    5.3692 C.3       1 RES1    0.0000
     12 N3        11.7562    4.4158    3.7902 N.am      1 RES1    0.0000
     13 C8        11.9988    5.6088    3.1963 C.2       1 RES1    0.0000
     14 O3        13.2686    5.6549    2.7371 O.3       1 RES1    0.0000
     15 C9        13.8032    6.9280    2.2232 C.3       1 RES1    0.0000
     16 C10       15.2161    6.5643    1.8105 C.3       1 RES1    0.0000
     17 C11       13.0237    7.4491    1.0408 C.3       1 RES1    0.0000
     18 C12       13.8207    7.9343    3.3609 C.3       1 RES1    0.0000
     19 O4        11.1861    6.5080    3.1147 O.2       1 RES1    0.0000
     20 H1         8.6078    2.7930    0.3028 H         1 RES1    0.0000
     21 H2         5.9786    1.1277    1.3489 H         1 RES1    0.0000
     22 H3         7.0789    0.0102    1.2701 H         1 RES1    0.0000
     23 H4         6.9388    1.1091    0.0976 H         1 RES1    0.0000
     24 H5         9.9384    4.9519    4.4334 H         1 RES1    0.0000
     25 H6        10.3818    3.5765    6.2477 H         1 RES1    0.0000
     26 H7        11.0794    2.4437    5.2905 H         1 RES1    0.0000
     27 H8        15.6706    7.3379    1.4590 H         1 RES1    0.0000
     28 H9        15.7336    6.2390    2.5602 H         1 RES1    0.0000
     29 H10       15.1876    5.8930    1.1324 H         1 RES1    0.0000
     30 H11       13.5035    8.2045    0.6557 H         1 RES1    0.0000
     31 H12       12.9769    6.7087    0.4167 H         1 RES1    0.0000
     32 H13       12.1187    7.7059    1.3039 H         1 RES1    0.0000
     33 H14       14.1262    8.7878    2.9944 H         1 RES1    0.0000
     34 H15       14.4280    7.6432    4.0655 H         1 RES1    0.0000
     35 H16       12.9372    8.0603    3.7376 H         1 RES1    0.0000
     36 H17       12.3314    3.7749    3.7076 H         1 RES1    0.0000
     37 O5         5.2440    5.7363    4.3013 O.3       2 RES2    0.0000
     38 C13        6.4450    5.7177    3.6957 C.2       2 RES2    0.0000
     39 O6         7.2723    4.8348    3.7801 O.2       2 RES2    0.0000
     40 N4         6.6099    6.8408    2.9469 N.am      2 RES2    0.0000
     41 C14        7.9198    7.1593    2.4362 C.3       2 RES2    0.0000
     42 C15        8.7792    7.9591    3.3836 C.2       2 RES2    0.0000
     43 N5         9.4489    8.8782    2.6601 N.am      2 RES2    0.0000
     44 O7         9.1729    8.8063    1.2885 O.3       2 RES2    0.0000
     45 C16        7.8958    8.0939    1.2203 C.3       2 RES2    0.0000
     46 C17       10.4054    9.7614    3.1421 C.2       2 RES2    0.0000
     47 O8        11.0110   10.5313    2.3915 O.2       2 RES2    0.0000
     48 C18       10.5376    9.6320    4.5736 C.2       2 RES2    0.0000
     49 C19        9.7914    8.7051    5.2357 C.2       2 RES2    0.0000
     50 N6         8.8869    7.8383    4.6714 N.2       2 RES2    0.0000
     51 C20       11.5039   10.5549    5.2598 C.3       2 RES2    0.0000
     52 C21        4.7162    4.5001    4.9285 C.3       2 RES2    0.0000
     53 C22        5.6035    4.0402    6.0716 C.3       2 RES2    0.0000
     54 C23        3.3636    4.9710    5.4532 C.3       2 RES2    0.0000
     55 C24        4.5438    3.4332    3.8665 C.3       2 RES2    0.0000
     56 H18        8.4056    6.3238    2.1685 H         2 RES2    0.0000
     57 H19        7.1576    8.7302    1.3827 H         2 RES2    0.0000
     58 H20        7.8376    7.6194    0.3241 H         2 RES2    0.0000
     59 H21        9.9012    8.6369    6.1589 H         2 RES2    0.0000
     60 H22       11.5385   10.3853    6.2315 H         2 RES2    0.0000
     61 H23       12.4032   10.4345    4.9126 H         2 RES2    0.0000
     62 H24       11.2325   11.4741    5.1291 H         2 RES2    0.0000
     63 H25        5.1869    3.3120    6.5293 H         2 RES2    0.0000
     64 H26        5.7548    4.7806    6.6682 H         2 RES2    0.0000
     65 H27        6.4718    3.7580    5.7810 H         2 RES2    0.0000
     66 H28        2.9120    4.2379    5.8861 H         2 RES2    0.0000
     67 H29        3.5256    5.6997    6.0713 H         2 RES2    0.0000
     68 H30        2.8109    5.2808    4.7299 H         2 RES2    0.0000
     69 H31        4.1048    2.7032    4.3145 H         2 RES2    0.0000
     70 H32        5.4290    3.1560    3.5662 H         2 RES2    0.0000
     71 H33        3.9818    3.7749    3.1483 H         2 RES2    0.0000
     72 H34        6.0169    7.4498    2.9844 H         2 RES2    0.0000
@<TRIPOS>BOND
     1    1    2 1
     2    2    3 1
     3    3    4 2
     4    4    5 1
     5    5    6 2
     6    6    7 1
     7    7    2 1
     8    8    7 2
     9    9    6 1
    10   10    3 1
    11   11    1 1
    12   12   10 1
    13   13   12 1
    14   14   13 1
    15   15   14 1
    16   16   15 1
    17   17   15 1
    18   18   15 1
    19   19   13 2
    20   20    5 1
    21   21    9 1
    22   22    9 1
    23   23    9 1
    24   24   10 1
    25   25   11 1
    26   26   11 1
    27   27   16 1
    28   28   16 1
    29   29   16 1
    30   30   17 1
    31   31   17 1
    32   32   17 1
    33   33   18 1
    34   34   18 1
    35   35   18 1
    36   36   12 1
    37   37   38 1
    38   38   39 2
    39   40   38 1
    40   41   40 1
    41   42   41 1
    42   43   42 1
    43   44   43 1
    44   45   41 1
    45   46   43 1
    46   47   46 2
    47   48   46 1
    48   49   48 2
    49   50   42 2
    50   51   48 1
    51   52   37 1
    52   53   52 1
    53   54   52 1
    54   55   52 1
    55   56   41 1
    56   57   45 1
    57   58   45 1
    58   59   49 1
    59   60   51 1
    60   61   51 1
    61   62   51 1
    62   63   53 1
    63   64   53 1
    64   65   53 1
    65   66   54 1
    66   67   54 1
    67   68   54 1
    68   69   55 1
    69   70   55 1
    70   71   55 1
    71   72   40 1
    72   10   11 1
    73   44   45 1
    74   49   50 1
@<TRIPOS>SUBSTRUCTURE
     1 RES1 1
     2 RES2 37

@<TRIPOS>CRYSIN
  12.2760   16.9584   12.5157  90.0000  91.1934  90.0000  14 1

