# MOL2 file generated by ConQuest
# Please check atom types

@<TRIPOS>MOLECULE
ZEYRUS
   100   106     2
SMALL
NO_CHARGES
****
Generated from CSD

@<TRIPOS>ATOM
      1 C1         0.0894    4.7243   -0.8497 C.3       1 RES1    0.0000
      2 H1         0.4427    3.9509   -0.3629 H         1 RES1    0.0000
      3 H2        -0.1241    4.4623   -1.7687 H         1 RES1    0.0000
      4 H3        -0.7225    5.0472   -0.4043 H         1 RES1    0.0000
      5 O1         1.0774    5.7745   -0.8662 O.3       1 RES1    0.0000
      6 C2         1.3671    6.3221    0.3494 C.ar      1 RES1    0.0000
      7 C3         2.2187    7.4479    0.3386 C.ar      1 RES1    0.0000
      8 O2         2.6047    7.8741   -0.9030 O.3       1 RES1    0.0000
      9 C4         3.3078    9.1175   -0.9457 C.3       1 RES1    0.0000
     10 H4         2.7674    9.8132   -0.5168 H         1 RES1    0.0000
     11 H5         3.4799    9.3641   -1.8790 H         1 RES1    0.0000
     12 H6         4.1601    9.0283   -0.4686 H         1 RES1    0.0000
     13 C5         2.5803    8.0256    1.5372 C.ar      1 RES1    0.0000
     14 H7         3.1770    8.7660    1.5298 H         1 RES1    0.0000
     15 C6         2.0987    7.5583    2.7641 C.ar      1 RES1    0.0000
     16 C7         2.5166    8.2632    4.0428 C.3       1 RES1    0.0000
     17 H8         2.5596    9.2396    3.8798 H         1 RES1    0.0000
     18 H9         3.4211    7.9566    4.3047 H         1 RES1    0.0000
     19 C8         1.5368    7.9819    5.1792 C.3       1 RES1    0.0000
     20 H10        1.9340    8.2585    6.0436 H         1 RES1    0.0000
     21 H11        0.7026    8.4962    5.0398 H         1 RES1    0.0000
     22 N1         1.2438    6.5570    5.2008 N.am      1 RES1    0.0000
     23 C9         1.8959    5.6753    5.9848 C.2       1 RES1    0.0000
     24 O3         2.6417    5.9524    6.9096 O.2       1 RES1    0.0000
     25 C10        1.5285    4.2745    5.5104 C.3       1 RES1    0.0000
     26 H12        1.0808    3.7698    6.2342 H         1 RES1    0.0000
     27 H13        2.3395    3.7792    5.2327 H         1 RES1    0.0000
     28 C11        0.5752    4.4628    4.3153 C.3       1 RES1    0.0000
     29 H14        0.9293    3.9792    3.5145 H         1 RES1    0.0000
     30 C12       -0.8871    4.0643    4.5682 C.3       1 RES1    0.0000
     31 H15       -1.0733    4.1264    5.5497 H         1 RES1    0.0000
     32 C13       -1.2438    2.6630    4.0881 C.3       1 RES1    0.0000
     33 H16       -2.2220    2.5302    4.1623 H         1 RES1    0.0000
     34 H17       -0.9939    2.5698    3.1355 H         1 RES1    0.0000
     35 N2        -0.5412    1.6143    4.8866 N.pl3     1 RES1    0.0000
     36 O4        -0.6132    1.6677    6.1111 O.2       1 RES1    0.0000
     37 O5         0.0273    0.7279    4.2969 O.2       1 RES1    0.0000
     38 C14       -1.7420    5.1083    3.8340 C.3       1 RES1    0.0000
     39 H18       -1.7511    4.8887    2.8576 H         1 RES1    0.0000
     40 C15       -3.1770    5.1772    4.3353 C.3       1 RES1    0.0000
     41 H19       -3.6346    4.3340    4.1347 H         1 RES1    0.0000
     42 H20       -3.6429    5.9151    3.8912 H         1 RES1    0.0000
     43 H21       -3.1787    5.3264    5.3039 H         1 RES1    0.0000
     44 C16       -0.9550    6.4077    4.0408 C.3       1 RES1    0.0000
     45 H22       -1.2041    6.8302    4.9019 H         1 RES1    0.0000
     46 H23       -1.1437    7.0472    3.3078 H         1 RES1    0.0000
     47 C17        0.5478    6.0119    4.0435 C.3       1 RES1    0.0000
     48 C18        1.2364    6.4721    2.7629 C.ar      1 RES1    0.0000
     49 C19        0.8838    5.8628    1.5565 C.ar      1 RES1    0.0000
     50 H24        0.2987    5.1151    1.5689 H         1 RES1    0.0000
     51 C20        6.7545   14.0970    1.6307 C.3       2 RES2    0.0000
     52 H25        6.7430   14.7660    2.3453 H         2 RES2    0.0000
     53 H26        7.3893   13.3849    1.8583 H         2 RES2    0.0000
     54 H27        5.8583   13.7151    1.5253 H         2 RES2    0.0000
     55 O6         7.1561   14.7177    0.4015 O.3       2 RES2    0.0000
     56 C21        6.2729   15.6162   -0.1270 C.ar      2 RES2    0.0000
     57 C22        6.4757   15.9536   -1.4855 C.ar      2 RES2    0.0000
     58 O7         7.5271   15.3343   -2.0986 O.3       2 RES2    0.0000
     59 C23        7.7609   15.6515   -3.4700 C.3       2 RES2    0.0000
     60 H28        6.9474   15.4773   -3.9877 H         2 RES2    0.0000
     61 H29        8.4916   15.0962   -3.8131 H         2 RES2    0.0000
     62 H30        8.0025   16.5981   -3.5490 H         2 RES2    0.0000
     63 C24        5.5910   16.8234   -2.0975 C.ar      2 RES2    0.0000
     64 H31        5.7118   17.0339   -3.0161 H         2 RES2    0.0000
     65 C25        4.5185   17.4026   -1.3975 C.ar      2 RES2    0.0000
     66 C26        3.5817   18.3302   -2.1459 C.3       2 RES2    0.0000
     67 H32        3.4211   17.9717   -3.0551 H         2 RES2    0.0000
     68 H33        4.0046   19.2207   -2.2373 H         2 RES2    0.0000
     69 C27        2.2477   18.4736   -1.4120 C.3       2 RES2    0.0000
     70 H34        1.7263   19.2226   -1.7963 H         2 RES2    0.0000
     71 H35        1.7172   17.6434   -1.5046 H         2 RES2    0.0000
     72 N3         2.5332   18.7309   -0.0124 N.am      2 RES2    0.0000
     73 C28        2.6465   19.9860    0.5040 C.2       2 RES2    0.0000
     74 O8         2.2294   20.9934   -0.0425 O.2       2 RES2    0.0000
     75 C29        3.3574   19.9028    1.8349 C.3       2 RES2    0.0000
     76 H36        2.8013   20.3000    2.5520 H         2 RES2    0.0000
     77 H37        4.2222   20.3830    1.7986 H         2 RES2    0.0000
     78 C30        3.5809   18.3983    2.0899 C.3       2 RES2    0.0000
     79 H38        4.5416   18.2245    2.3086 H         2 RES2    0.0000
     80 C31        2.6747   17.7953    3.1700 C.3       2 RES2    0.0000
     81 H39        1.8140   18.3037    3.1883 H         2 RES2    0.0000
     82 C32        3.2614   17.7704    4.5728 C.3       2 RES2    0.0000
     83 H40        2.6275   17.3132    5.1799 H         2 RES2    0.0000
     84 H41        4.1022   17.2471    4.5620 H         2 RES2    0.0000
     85 N4         3.5436   19.1379    5.1029 N.pl3     2 RES2    0.0000
     86 O9         4.5872   19.6660    4.7823 O.2       2 RES2    0.0000
     87 O10        2.7533   19.6479    5.8352 O.2       2 RES2    0.0000
     88 C33        2.3933   16.3602    2.6832 C.3       2 RES2    0.0000
     89 H42        3.2126   15.8056    2.8254 H         2 RES2    0.0000
     90 C34        1.2165   15.6736    3.3553 C.3       2 RES2    0.0000
     91 H43        0.4204   16.2396    3.2779 H         2 RES2    0.0000
     92 H44        1.4217   15.5264    4.3024 H         2 RES2    0.0000
     93 H45        1.0477   14.8113    2.9196 H         2 RES2    0.0000
     94 C35        2.1889   16.5573    1.1812 C.3       2 RES2    0.0000
     95 H46        1.2579   16.8358    0.9900 H         2 RES2    0.0000
     96 H47        2.3759   15.7170    0.6914 H         2 RES2    0.0000
     97 C36        3.1894   17.6719    0.7580 C.3       2 RES2    0.0000
     98 C37        4.3571   17.1039   -0.0489 C.ar      2 RES2    0.0000
     99 C38        5.2269   16.1905    0.5639 C.ar      2 RES2    0.0000
    100 H48        5.0920   15.9622    1.4770 H         2 RES2    0.0000
@<TRIPOS>BOND
     1    1    2 1
     2    3    1 1
     3    4    1 1
     4    5    1 1
     5    6    5 1
     6    7    6 ar
     7    8    7 1
     8    9    8 1
     9   10    9 1
    10   11    9 1
    11   12    9 1
    12   13    7 ar
    13   14   13 1
    14   15   13 ar
    15   16   15 1
    16   17   16 1
    17   18   16 1
    18   19   16 1
    19   20   19 1
    20   21   19 1
    21   22   19 1
    22   23   22 1
    23   24   23 2
    24   25   23 1
    25   26   25 1
    26   27   25 1
    27   28   25 1
    28   29   28 1
    29   30   28 1
    30   31   30 1
    31   32   30 1
    32   33   32 1
    33   34   32 1
    34   35   32 1
    35   36   35 2
    36   37   35 2
    37   38   30 1
    38   39   38 1
    39   40   38 1
    40   41   40 1
    41   42   40 1
    42   43   40 1
    43   44   38 1
    44   45   44 1
    45   46   44 1
    46   47   22 1
    47   48   15 ar
    48   49    6 ar
    49   50   49 1
    50   51   52 1
    51   53   51 1
    52   54   51 1
    53   55   51 1
    54   56   55 1
    55   57   56 ar
    56   58   57 1
    57   59   58 1
    58   60   59 1
    59   61   59 1
    60   62   59 1
    61   63   57 ar
    62   64   63 1
    63   65   63 ar
    64   66   65 1
    65   67   66 1
    66   68   66 1
    67   69   66 1
    68   70   69 1
    69   71   69 1
    70   72   69 1
    71   73   72 1
    72   74   73 2
    73   75   73 1
    74   76   75 1
    75   77   75 1
    76   78   75 1
    77   79   78 1
    78   80   78 1
    79   81   80 1
    80   82   80 1
    81   83   82 1
    82   84   82 1
    83   85   82 1
    84   86   85 2
    85   87   85 2
    86   88   80 1
    87   89   88 1
    88   90   88 1
    89   91   90 1
    90   92   90 1
    91   93   90 1
    92   94   88 1
    93   95   94 1
    94   96   94 1
    95   97   72 1
    96   98   65 ar
    97   99   56 ar
    98  100   99 1
    99   28   47 1
   100   44   47 1
   101   47   48 1
   102   48   49 ar
   103   78   97 1
   104   94   97 1
   105   97   98 1
   106   98   99 ar
@<TRIPOS>SUBSTRUCTURE
     1 RES1 1
     2 RES2 51

@<TRIPOS>CRYSIN
   8.2756   18.8679   22.9707  90.0000  90.0000  90.0000  19 1

