# MOL2 file generated by ConQuest
# Please check atom types

@<TRIPOS>MOLECULE
ZEZMEW
    10    11     1
SMALL
NO_CHARGES
****
Generated from CSD

@<TRIPOS>ATOM
      1 C1         2.0787   -0.5991    8.6628 C.3       1 RES1    0.0000
      2 C2         1.6371   -0.1290    7.3105 C.3       1 RES1    0.0000
      3 C3         0.6881   -0.0674    8.4610 C.3       1 RES1    0.0000
      4 N1         2.9966    0.2754    9.3756 N.pl3     1 RES1    0.0000
      5 O1         2.9617    1.5386    9.2023 O.2       1 RES1    0.0000
      6 N1D        3.8474   -0.2754   10.2079 N.pl3     1 RES1    0.0000
      7 C1D        4.7653    0.5991   10.9207 C.3       1 RES1    0.0000
      8 C2D        5.2070    0.1290   12.2730 C.3       1 RES1    0.0000
      9 C3D        6.1560    0.0674   11.1224 C.3       1 RES1    0.0000
     10 O1D        3.8823   -1.5386   10.3812 O.2       1 RES1    0.0000
@<TRIPOS>BOND
     1    1    2 1
     2    2    3 1
     3    3    1 1
     4    4    1 1
     5    5    4 2
     6    6    4 1
     7    7    6 1
     8    8    7 1
     9    9    7 1
    10   10    6 2
    11    8    9 1
@<TRIPOS>SUBSTRUCTURE
     1 RES1 1

@<TRIPOS>CRYSIN
   8.7080    8.3210    9.8360  90.0000  95.4370  90.0000  15 1

