# MOL2 file generated by ConQuest
# Please check atom types

@<TRIPOS>MOLECULE
ZEZMIA
    13    13     2
SMALL
NO_CHARGES
****
Generated from CSD

@<TRIPOS>ATOM
      1 C1        -1.0122    5.0734   -0.5187 C.3       1 RES1    0.0000
      2 C2        -2.3127    5.0590    0.2274 C.3       1 RES1    0.0000
      3 C3        -1.4030    6.2403    0.3390 C.3       1 RES1    0.0000
      4 C4        -0.9557    5.1588   -2.0156 C.3       1 RES1    0.0000
      5 N1         0.0541    4.2454    0.0669 N.pl3     1 RES1    0.0000
      6 O1         1.0582    4.7567    0.6554 O.2       1 RES1    0.0000
      7 O2         5.8176    2.6642    4.3393 Du        2 SUP2    0.0000
      8 N1B       -0.0541    2.9356   -0.0669 N.pl3     1 RES1    0.0000
      9 C1B        1.0122    2.1076    0.5187 C.3       1 RES1    0.0000
     10 C2B        2.3127    2.1220   -0.2274 C.3       1 RES1    0.0000
     11 C3B        1.4030    0.9407   -0.3390 C.3       1 RES1    0.0000
     12 C4B        0.9557    2.0222    2.0156 C.3       1 RES1    0.0000
     13 O1B       -1.0582    2.4243   -0.6554 O.2       1 RES1    0.0000
@<TRIPOS>BOND
     1    1    2 1
     2    2    3 1
     3    3    1 1
     4    4    1 1
     5    5    1 1
     6    6    5 2
     7    8    5 1
     8    9    8 1
     9   10    9 1
    10   11    9 1
    11   12    9 1
    12   13    8 2
    13   10   11 1
@<TRIPOS>SUBSTRUCTURE
     1 RES1 1
     2 SUP2 7

@<TRIPOS>CRYSIN
  10.7270    7.1810    5.9690  90.0000  90.5200  90.0000 231 1

