# MOL2 file generated by ConQuest
# Please check atom types

@<TRIPOS>MOLECULE
ZIBSAE
    40    43     1
SMALL
NO_CHARGES
****
Generated from CSD

@<TRIPOS>ATOM
      1 O1         1.2889    0.0000    3.8758 O.2       1 RES1    0.0000
      2 N1         0.0715    0.0000    4.2342 N.pl3     1 RES1    0.0000
      3 C1        -1.0153    0.0000    3.2261 C.3       1 RES1    0.0000
      4 C2        -1.8959    1.2569    3.2368 C.3       1 RES1    0.0000
      5 C3        -2.4689    1.2336    1.8069 C.3       1 RES1    0.0000
      6 C4        -1.8433    0.0000    1.1689 C.3       1 RES1    0.0000
      7 C5        -0.4569    0.0000    1.8127 C.3       1 RES1    0.0000
      8 H1        -2.5876    1.1545    3.9196 H         1 RES1    0.0000
      9 H2        -1.3513    2.0708    3.4063 H         1 RES1    0.0000
     10 H3        -3.4536    1.2275    1.7708 H         1 RES1    0.0000
     11 H4        -2.1941    2.0150    1.3384 H         1 RES1    0.0000
     12 H5        -1.9037    0.0000    0.1432 H         1 RES1    0.0000
     13 H6         0.0911    0.8494    1.6189 H         1 RES1    0.0000
     14 N1A       -0.2364    0.0000    5.5064 N.pl3     1 RES1    0.0000
     15 O1A       -1.4538    0.0000    5.8648 O.2       1 RES1    0.0000
     16 C1A        0.8504    0.0000    6.5145 C.3       1 RES1    0.0000
     17 C2A        1.7309    1.2569    6.5038 C.3       1 RES1    0.0000
     18 C3A        2.3040    1.2336    7.9337 C.3       1 RES1    0.0000
     19 C4A        1.6784    0.0000    8.5717 C.3       1 RES1    0.0000
     20 C3D        2.3040   -1.2336    7.9337 C.3       1 RES1    0.0000
     21 C2D        1.7309   -1.2569    6.5038 C.3       1 RES1    0.0000
     22 C5A        0.2920    0.0000    7.9279 C.3       1 RES1    0.0000
     23 H5A        1.7388    0.0000    9.5974 H         1 RES1    0.0000
     24 H6A       -0.2561    0.8494    8.1217 H         1 RES1    0.0000
     25 H6D       -0.2561   -0.8494    8.1217 H         1 RES1    0.0000
     26 H1D        2.4227   -1.1545    5.8210 H         1 RES1    0.0000
     27 H2D        1.1864   -2.0708    6.3343 H         1 RES1    0.0000
     28 H3D        3.2887   -1.2275    7.9698 H         1 RES1    0.0000
     29 H4D        2.0292   -2.0150    8.4022 H         1 RES1    0.0000
     30 H3A        3.2887    1.2275    7.9698 H         1 RES1    0.0000
     31 H4A        2.0292    2.0150    8.4022 H         1 RES1    0.0000
     32 H1A        2.4227    1.1545    5.8210 H         1 RES1    0.0000
     33 H2A        1.1864    2.0708    6.3343 H         1 RES1    0.0000
     34 C2E       -1.8959   -1.2569    3.2368 C.3       1 RES1    0.0000
     35 C3E       -2.4689   -1.2336    1.8069 C.3       1 RES1    0.0000
     36 H3E       -3.4536   -1.2275    1.7708 H         1 RES1    0.0000
     37 H4E       -2.1941   -2.0150    1.3384 H         1 RES1    0.0000
     38 H1E       -2.5876   -1.1545    3.9196 H         1 RES1    0.0000
     39 H2E       -1.3513   -2.0708    3.4063 H         1 RES1    0.0000
     40 H6E        0.0911   -0.8494    1.6189 H         1 RES1    0.0000
@<TRIPOS>BOND
     1    1    2 1
     2    2    3 1
     3    3    4 1
     4    4    5 1
     5    5    6 1
     6    6    7 1
     7    7    3 1
     8    8    4 1
     9    9    4 1
    10   10    5 1
    11   11    5 1
    12   12    6 1
    13   13    7 1
    14   14    2 2
    15   15   14 1
    16   16   14 1
    17   17   16 1
    18   18   17 1
    19   19   18 1
    20   20   19 1
    21   21   16 1
    22   22   16 1
    23   23   19 1
    24   24   22 1
    25   25   22 1
    26   26   21 1
    27   27   21 1
    28   28   20 1
    29   29   20 1
    30   30   18 1
    31   31   18 1
    32   32   17 1
    33   33   17 1
    34   34    3 1
    35   35    6 1
    36   36   35 1
    37   37   35 1
    38   38   34 1
    39   39   34 1
    40   40    7 1
    41   19   22 1
    42   20   21 1
    43   34   35 1
@<TRIPOS>SUBSTRUCTURE
     1 RES1 1

@<TRIPOS>CRYSIN
   6.4780   10.1360    9.7420  90.0000  90.9700  90.0000  12 1

