# MOL2 file generated by ConQuest
# Please check atom types

@<TRIPOS>MOLECULE
ZIBWEM
    62    65     1
SMALL
NO_CHARGES
****
Generated from CSD

@<TRIPOS>ATOM
      1 O1        -4.8520    6.2595   14.3563 O.2       1 RES1    0.0000
      2 O2        -4.3164    4.8845   15.8970 O.2       1 RES1    0.0000
      3 O3        -1.7030    6.0680   15.7164 O.2       1 RES1    0.0000
      4 O4        -1.1026    4.1935   16.6405 O.2       1 RES1    0.0000
      5 N1        -4.2006    5.3155   14.7767 N.pl3     1 RES1    0.0000
      6 N2        -1.5912    4.8366   15.7251 N.pl3     1 RES1    0.0000
      7 C1        -4.0535    3.6257    9.9148 C.2       1 RES1    0.0000
      8 C2        -4.9011    4.5835   10.5610 C.2       1 RES1    0.0000
      9 C3        -3.4963    4.4603   12.5585 C.2       1 RES1    0.0000
     10 C4        -4.6382    4.9324   11.8689 C.2       1 RES1    0.0000
     11 C5        -3.2255    4.6861   13.8908 C.2       1 RES1    0.0000
     12 C6        -2.0503    4.1388   14.5300 C.2       1 RES1    0.0000
     13 C7        -1.2714    3.1537   13.9724 C.2       1 RES1    0.0000
     14 C8        -0.1413    2.5517   14.5352 C.2       1 RES1    0.0000
     15 C9         0.6102    1.6213   13.8786 C.2       1 RES1    0.0000
     16 C10        0.3296    1.3682   12.5081 C.2       1 RES1    0.0000
     17 C11       -0.7456    1.8676   11.8585 C.2       1 RES1    0.0000
     18 C12       -1.0026    1.6282   10.4880 C.2       1 RES1    0.0000
     19 C13       -2.4034    3.7283   11.7942 C.3       1 RES1    0.0000
     20 C14       -2.0895    2.1618    9.8609 C.2       1 RES1    0.0000
     21 C15       -2.9293    3.1332   10.4967 C.2       1 RES1    0.0000
     22 C16       -1.7893    2.5927   12.6401 C.3       1 RES1    0.0000
     23 C17       -6.1293    5.1444    9.8436 C.3       1 RES1    0.0000
     24 C18       -5.9684    5.1581    8.3480 C.3       1 RES1    0.0000
     25 C19       -6.5629    6.4990   10.3595 C.3       1 RES1    0.0000
     26 C20       -7.3340    4.3167   10.1562 C.3       1 RES1    0.0000
     27 C21        1.7756    0.8825   14.5317 C.3       1 RES1    0.0000
     28 C22        1.8894    1.2519   16.0360 C.3       1 RES1    0.0000
     29 C23        3.0784    1.3203   13.7605 C.3       1 RES1    0.0000
     30 C24        1.5971   -0.5952   14.3650 C.3       1 RES1    0.0000
     31 C25       -1.3597    4.8024   11.4138 C.3       1 RES1    0.0000
     32 C26       -2.8939    1.5187   13.0379 C.3       1 RES1    0.0000
     33 H1        -4.2968    3.3521    9.1193 H         1 RES1    0.0000
     34 H2        -5.3759    5.5412   12.3327 H         1 RES1    0.0000
     35 H3         0.1373    2.8048   15.5462 H         1 RES1    0.0000
     36 H4         0.8437    0.8893   11.9679 H         1 RES1    0.0000
     37 H5        -0.3139    1.0262   10.0920 H         1 RES1    0.0000
     38 H6        -2.2955    1.9155    8.9108 H         1 RES1    0.0000
     39 H7        -6.7689    5.5412    7.9381 H         1 RES1    0.0000
     40 H8        -5.1993    5.7464    8.1292 H         1 RES1    0.0000
     41 H9        -5.8075    4.2414    8.0249 H         1 RES1    0.0000
     42 H10       -7.3379    6.7726    9.8835 H         1 RES1    0.0000
     43 H11       -6.7885    6.4305   11.3079 H         1 RES1    0.0000
     44 H12       -5.8075    7.1146   10.2309 H         1 RES1    0.0000
     45 H13       -8.1031    4.6519    9.6751 H         1 RES1    0.0000
     46 H14       -7.1417    3.4889    9.8141 H         1 RES1    0.0000
     47 H15       -7.4948    4.3098   11.0994 H         1 RES1    0.0000
     48 H16        2.5898    0.7525   16.3973 H         1 RES1    0.0000
     49 H17        2.0797    2.1891   16.1194 H         1 RES1    0.0000
     50 H18        1.0595    1.0262   16.5189 H         1 RES1    0.0000
     51 H19        3.8455    0.8893   14.1218 H         1 RES1    0.0000
     52 H20        3.0215    1.0946   12.8191 H         1 RES1    0.0000
     53 H21        3.1784    2.2575   13.8786 H         1 RES1    0.0000
     54 H22        2.3152   -1.0946   14.7992 H         1 RES1    0.0000
     55 H23        0.7848   -0.8893   14.7992 H         1 RES1    0.0000
     56 H24        1.5500   -0.8209   13.4270 H         1 RES1    0.0000
     57 H25       -1.7658    5.6780   10.9257 H         1 RES1    0.0000
     58 H26       -0.9418    5.1992   12.0895 H         1 RES1    0.0000
     59 H27       -0.4709    4.2414   10.9778 H         1 RES1    0.0000
     60 H28       -2.4133    0.7525   13.7049 H         1 RES1    0.0000
     61 H29       -3.3158    2.1891   13.4965 H         1 RES1    0.0000
     62 H30       -3.1000    1.1630   12.1416 H         1 RES1    0.0000
@<TRIPOS>BOND
     1    1    5 2
     2    2    5 2
     3    3    6 2
     4    4    6 2
     5    5   11 1
     6    6   12 1
     7    7    8 1
     8    8   10 2
     9    9   10 1
    10   10   34 1
    11   11    9 2
    12   12   11 1
    13   13   12 2
    14   14   13 1
    15   15   14 2
    16   16   15 1
    17   17   16 2
    18   18   17 1
    19   19    9 1
    20   20   18 2
    21   21    7 2
    22   22   13 1
    23   23    8 1
    24   24   23 1
    25   25   23 1
    26   26   23 1
    27   27   15 1
    28   28   27 1
    29   29   27 1
    30   30   27 1
    31   31   19 1
    32   32   22 1
    33   33    7 1
    34   35   14 1
    35   36   16 1
    36   37   18 1
    37   38   20 1
    38   39   24 1
    39   40   24 1
    40   41   24 1
    41   42   25 1
    42   43   25 1
    43   44   25 1
    44   45   26 1
    45   46   26 1
    46   47   26 1
    47   48   28 1
    48   49   28 1
    49   50   28 1
    50   51   29 1
    51   52   29 1
    52   53   29 1
    53   54   30 1
    54   55   30 1
    55   56   30 1
    56   57   31 1
    57   58   31 1
    58   59   31 1
    59   60   32 1
    60   61   32 1
    61   62   32 1
    62   17   22 1
    63   19   21 1
    64   19   22 1
    65   20   21 1
@<TRIPOS>SUBSTRUCTURE
     1 RES1 1

@<TRIPOS>CRYSIN
  19.6200    6.8410   17.3700  90.0000  90.0000  90.0000  33 1

