# MOL2 file generated by ConQuest
# Please check atom types

@<TRIPOS>MOLECULE
ZIBXOA
    45    48     1
SMALL
NO_CHARGES
****
Generated from CSD

@<TRIPOS>ATOM
      1 O1         6.7016   32.8122    4.8504 O.2       1 RES1    0.0000
      2 N1         6.2326   32.0297    4.0280 N.pl3     1 RES1    0.0000
      3 O2         6.5322   32.0352    2.8397 O.2       1 RES1    0.0000
      4 C1         5.2691   31.0500    4.4970 C.ar      1 RES1    0.0000
      5 C2         4.9704   30.9982    5.8335 C.ar      1 RES1    0.0000
      6 C3         4.0789   30.0513    6.2952 C.ar      1 RES1    0.0000
      7 C4         3.4587   29.1702    5.4160 C.ar      1 RES1    0.0000
      8 C5         2.5244   28.1353    5.9277 C.2       1 RES1    0.0000
      9 C6         1.7785   27.3506    5.1083 C.2       1 RES1    0.0000
     10 C7         0.8405   26.2751    5.3804 C.ar      1 RES1    0.0000
     11 C8         0.2222   25.7042    4.2560 C.ar      1 RES1    0.0000
     12 C9        -0.6784   24.6576    4.4172 C.ar      1 RES1    0.0000
     13 C10       -0.9635   24.1797    5.7144 C.ar      1 RES1    0.0000
     14 N2        -1.8851   23.1638    5.6245 N.3       1 RES1    0.0000
     15 C11       -2.1874   22.9511    4.2875 C.ar      1 RES1    0.0000
     16 C12       -1.4644   23.8678    3.4924 C.ar      1 RES1    0.0000
     17 C13       -1.6374   23.8656    2.1203 C.ar      1 RES1    0.0000
     18 C14       -2.5025   22.9444    1.5460 C.ar      1 RES1    0.0000
     19 C15       -3.1901   22.0298    2.3497 C.ar      1 RES1    0.0000
     20 C16       -3.0535   22.0293    3.7233 C.ar      1 RES1    0.0000
     21 H1        -3.5361   21.4211    4.2605 H         1 RES1    0.0000
     22 H2        -3.7656   21.4155    1.9464 H         1 RES1    0.0000
     23 H3        -2.6127   22.9249    0.5956 H         1 RES1    0.0000
     24 H4        -1.1629   24.5122    1.6030 H         1 RES1    0.0000
     25 C17       -2.4096   22.3813    6.7312 C.3       1 RES1    0.0000
     26 C18       -1.6547   21.0980    6.9535 C.3       1 RES1    0.0000
     27 H5        -1.9825   20.6469    7.7543 H         1 RES1    0.0000
     28 H6        -0.7185   21.2985    7.0461 H         1 RES1    0.0000
     29 H7        -1.7749   20.5021    6.1869 H         1 RES1    0.0000
     30 H8        -2.3495   22.9082    7.5306 H         1 RES1    0.0000
     31 H9        -3.3531   22.1785    6.5218 H         1 RES1    0.0000
     32 C19       -0.3597   24.7289    6.8438 C.ar      1 RES1    0.0000
     33 C20        0.5337   25.7615    6.6586 C.ar      1 RES1    0.0000
     34 H10        0.9598   26.1442    7.4294 H         1 RES1    0.0000
     35 H11       -0.5500   24.4064    7.7059 H         1 RES1    0.0000
     36 H12        0.4307   26.0383    3.4069 H         1 RES1    0.0000
     37 H13        1.9024   27.5422    4.1878 H         1 RES1    0.0000
     38 C21        2.4852   28.0156    7.3553 C.1       1 RES1    0.0000
     39 N3         2.5034   27.9566    8.5067 N.1       1 RES1    0.0000
     40 C22        3.7638   29.2599    4.0610 C.ar      1 RES1    0.0000
     41 C23        4.6808   30.1839    3.5879 C.ar      1 RES1    0.0000
     42 H14        4.9131   30.2490    2.6745 H         1 RES1    0.0000
     43 H15        3.3412   28.6672    3.4753 H         1 RES1    0.0000
     44 H16        3.9013   30.0040    7.2214 H         1 RES1    0.0000
     45 H17        5.3739   31.5969    6.4306 H         1 RES1    0.0000
@<TRIPOS>BOND
     1    1    2 2
     2    2    3 2
     3    4    2 1
     4    5    4 ar
     5    6    5 ar
     6    7    6 ar
     7    8    7 1
     8    9    8 2
     9   10    9 1
    10   11   10 ar
    11   12   11 ar
    12   13   12 ar
    13   14   13 1
    14   15   14 1
    15   16   12 1
    16   17   16 ar
    17   18   17 ar
    18   19   18 ar
    19   20   15 ar
    20   21   20 1
    21   22   19 1
    22   23   18 1
    23   24   17 1
    24   25   14 1
    25   26   25 1
    26   27   26 1
    27   28   26 1
    28   29   26 1
    29   30   25 1
    30   31   25 1
    31   32   13 ar
    32   33   10 ar
    33   34   33 1
    34   35   32 1
    35   36   11 1
    36   37    9 1
    37   38    8 1
    38   39   38 3
    39   40    7 ar
    40   41    4 ar
    41   42   41 1
    42   43   40 1
    43   44    6 1
    44   45    5 1
    45   15   16 ar
    46   19   20 ar
    47   32   33 ar
    48   40   41 ar
@<TRIPOS>SUBSTRUCTURE
     1 RES1 1

@<TRIPOS>CRYSIN
   9.1067   55.6970   14.2490  90.0000  90.0000  90.0000  43 1

