# MOL2 file generated by ConQuest
# Please check atom types

@<TRIPOS>MOLECULE
ZICBAQ
    50    50     2
SMALL
NO_CHARGES
****
Generated from CSD

@<TRIPOS>ATOM
      1 O1        11.2817    2.8599    5.3912 O.3       1 RES1    0.0000
      2 O2         5.1397    2.2602    6.4376 O.2       1 RES1    0.0000
      3 N1         9.8933    2.9044    5.0813 N.2       1 RES1    0.0000
      4 N2        10.5273    5.0098    4.3118 N.3       1 RES1    0.0000
      5 N3         7.2653    2.8886    5.8785 N.am      1 RES1    0.0000
      6 C1         7.0584    3.7690    4.8009 C.ar      1 RES1    0.0000
      7 C2         5.7741    4.1317    4.3762 C.ar      1 RES1    0.0000
      8 H1         5.0117    3.7652    4.8086 H         1 RES1    0.0000
      9 C3         5.6091    5.0268    3.3236 C.ar      1 RES1    0.0000
     10 H2         4.7326    5.2724    3.0512 H         1 RES1    0.0000
     11 C4         6.7030    5.5644    2.6669 C.ar      1 RES1    0.0000
     12 H3         6.5812    6.1633    1.9395 H         1 RES1    0.0000
     13 C5         7.9788    5.2155    3.0854 C.ar      1 RES1    0.0000
     14 H4         8.7304    5.5886    2.6402 H         1 RES1    0.0000
     15 C6         8.1880    4.3264    4.1499 C.ar      1 RES1    0.0000
     16 C7         9.5924    4.0546    4.5575 C.2       1 RES1    0.0000
     17 C8         6.3512    2.1865    6.6087 C.2       1 RES1    0.0000
     18 C9         6.9426    1.2928    7.6628 C.3       1 RES1    0.0000
     19 H5         6.6701    0.3663    7.4966 H         1 RES1    0.0000
     20 H6         6.6234    1.5734    8.5452 H         1 RES1    0.0000
     21 H7         7.9199    1.3562    7.6332 H         1 RES1    0.0000
     22 H8         8.1115    2.7313    6.0767 H         1 RES1    0.0000
     23 H9        11.2944    4.8585    4.6661 H         1 RES1    0.0000
     24 H10       10.2821    5.8367    4.2235 H         1 RES1    0.0000
     25 H11       11.2861    2.1175    5.9564 H         1 RES1    0.0000
     26 O3        11.1623    0.7465    7.1831 O.3       2 RES2    0.0000
     27 O4         8.1206   -0.6376   12.3084 O.2       2 RES2    0.0000
     28 N4        10.3742    1.1175    8.3212 N.2       2 RES2    0.0000
     29 N5        12.3366    2.2886    8.8544 N.3       2 RES2    0.0000
     30 N6         8.8789    0.4721   10.4493 N.am      2 RES2    0.0000
     31 C10        9.3654    1.6692   11.0130 C.ar      2 RES2    0.0000
     32 C11        8.8070    2.1999   12.1774 C.ar      2 RES2    0.0000
     33 H12        8.0868    1.7496   12.6029 H         2 RES2    0.0000
     34 C12        9.2976    3.3819   12.7175 C.ar      2 RES2    0.0000
     35 H13        8.9257    3.7244   13.5219 H         2 RES2    0.0000
     36 C13       10.3278    4.0637   12.0871 C.ar      2 RES2    0.0000
     37 H14       10.6590    4.8748   12.4534 H         2 RES2    0.0000
     38 C14       10.8698    3.5542   10.9211 C.ar      2 RES2    0.0000
     39 H15       11.5687    4.0311   10.4894 H         2 RES2    0.0000
     40 C15       10.4160    2.3562   10.3621 C.ar      2 RES2    0.0000
     41 C16       11.0737    1.8652    9.1176 C.2       2 RES2    0.0000
     42 C17        8.3406   -0.5947   11.0974 C.2       2 RES2    0.0000
     43 C18        8.0463   -1.7659   10.1998 C.3       2 RES2    0.0000
     44 H16        7.2148   -2.1963   10.4871 H         2 RES2    0.0000
     45 H17        8.7834   -2.4106   10.2523 H         2 RES2    0.0000
     46 H18        7.9509   -1.4538    9.2762 H         2 RES2    0.0000
     47 H19        9.1163    0.3651    9.6265 H         2 RES2    0.0000
     48 H20       12.8517    2.4578    9.5471 H         2 RES2    0.0000
     49 H21       12.7344    1.8757    8.1563 H         2 RES2    0.0000
     50 H22       10.7502   -0.0856    6.9758 H         2 RES2    0.0000
@<TRIPOS>BOND
     1    1    3 1
     2    2   17 2
     3    3   16 2
     4    4   16 1
     5    5    6 1
     6    6    7 ar
     7    7    8 1
     8    9    7 ar
     9   10    9 1
    10   11    9 ar
    11   12   11 1
    12   13   11 ar
    13   14   13 1
    14   15    6 ar
    15   16   15 1
    16   17    5 1
    17   18   17 1
    18   19   18 1
    19   20   18 1
    20   21   18 1
    21   22    5 1
    22   23    4 1
    23   24    4 1
    24   25    1 1
    25   26   28 1
    26   27   42 2
    27   28   41 2
    28   29   41 1
    29   30   31 1
    30   31   32 ar
    31   32   33 1
    32   34   32 ar
    33   35   34 1
    34   36   34 ar
    35   37   36 1
    36   38   36 ar
    37   39   38 1
    38   40   31 ar
    39   41   40 1
    40   42   30 1
    41   43   42 1
    42   44   43 1
    43   45   43 1
    44   46   43 1
    45   47   30 1
    46   48   29 1
    47   49   29 1
    48   50   26 1
    49   13   15 ar
    50   38   40 ar
@<TRIPOS>SUBSTRUCTURE
     1 RES1 1
     2 RES2 26

@<TRIPOS>CRYSIN
   8.7813    9.5432   11.9770  80.7220  78.5310  70.1810   2 1

