# MOL2 file generated by ConQuest
# Please check atom types

@<TRIPOS>MOLECULE
ZICBES
    32    33     1
SMALL
NO_CHARGES
****
Generated from CSD

@<TRIPOS>ATOM
      1 O1         6.8970    5.5102    0.2534 O.3       1 RES1    0.0000
      2 O2         6.7009    4.6227    3.7378 O.3       1 RES1    0.0000
      3 O3         5.7428    3.7249    1.9328 O.2       1 RES1    0.0000
      4 C1         6.4829    4.5501    2.4395 C.2       1 RES1    0.0000
      5 N1         5.9000    6.4948    0.0649 N.2       1 RES1    0.0000
      6 C2         5.3819    6.3562   -1.1063 C.2       1 RES1    0.0000
      7 C3         4.3949    7.3370   -1.5510 C.ar      1 RES1    0.0000
      8 C4         7.2982    5.5374    1.6501 C.3       1 RES1    0.0000
      9 C5         8.7921    5.1643    1.6619 C.ar      1 RES1    0.0000
     10 C6         4.1844    8.5121   -0.9151 C.ar      1 RES1    0.0000
     11 C7         2.7316    8.0016   -3.1647 C.ar      1 RES1    0.0000
     12 C8         3.6786    7.0558   -2.7390 C.ar      1 RES1    0.0000
     13 C9         9.6532    5.9921    2.3502 C.ar      1 RES1    0.0000
     14 C10        9.2253    4.0513    1.0407 C.ar      1 RES1    0.0000
     15 C11        2.5357    9.1366   -2.5233 C.ar      1 RES1    0.0000
     16 C12        3.2402    9.4436   -1.3464 C.ar      1 RES1    0.0000
     17 C13       11.0349    5.6268    2.3362 C.ar      1 RES1    0.0000
     18 C14       10.5841    3.7015    1.0261 C.ar      1 RES1    0.0000
     19 C15       11.4500    4.5229    1.7220 C.ar      1 RES1    0.0000
     20 H1         7.2090    6.4702    1.9363 H         1 RES1    0.0000
     21 H2         5.5601    5.4648   -1.5398 H         1 RES1    0.0000
     22 H3         3.7901    6.1036   -3.1326 H         1 RES1    0.0000
     23 H4         9.3485    6.9030    2.6880 H         1 RES1    0.0000
     24 H5         3.1972   10.5073   -0.9500 H         1 RES1    0.0000
     25 H6         2.1145    9.8194   -2.9232 H         1 RES1    0.0000
     26 H7         8.8023    3.3634    0.7308 H         1 RES1    0.0000
     27 H8         6.5624    3.7482    3.9081 H         1 RES1    0.0000
     28 H9        12.5177    4.2703    1.4937 H         1 RES1    0.0000
     29 H10       11.6693    6.4417    2.5044 H         1 RES1    0.0000
     30 H11        4.3644    8.6598   -0.0202 H         1 RES1    0.0000
     31 H12       10.9185    2.7972    0.6582 H         1 RES1    0.0000
     32 H13        2.4225    7.8047   -3.9367 H         1 RES1    0.0000
@<TRIPOS>BOND
     1    1    5 1
     2    2    4 1
     3    3    4 2
     4    4    8 1
     5    5    6 2
     6    6    7 1
     7    7   10 ar
     8    8    1 1
     9    9    8 1
    10   10   16 ar
    11   11   12 ar
    12   12    7 ar
    13   13    9 ar
    14   14    9 ar
    15   15   11 ar
    16   16   15 ar
    17   17   13 ar
    18   18   14 ar
    19   19   17 ar
    20   20    8 1
    21   21    6 1
    22   22   12 1
    23   23   13 1
    24   24   16 1
    25   25   15 1
    26   26   14 1
    27   27    2 1
    28   28   19 1
    29   29   17 1
    30   30   10 1
    31   31   18 1
    32   32   11 1
    33   18   19 ar
@<TRIPOS>SUBSTRUCTURE
     1 RES1 1

@<TRIPOS>CRYSIN
  29.1250   12.9560    7.8200  90.0000 116.8000  90.0000  15 1

