# MOL2 file generated by ConQuest
# Please check atom types

@<TRIPOS>MOLECULE
ZICCET
    92    96     2
SMALL
NO_CHARGES
****
Generated from CSD

@<TRIPOS>ATOM
      1 C1         2.2578    4.8813    1.6780 C.2       1 RES1    0.0000
      2 O1         1.1446    4.5057    1.3733 O.2       1 RES1    0.0000
      3 O2         2.5077    6.2326    1.6780 O.3       1 RES1    0.0000
      4 C2         3.8973    6.4371    2.0310 C.3       1 RES1    0.0000
      5 C3         4.5972    5.1282    1.7030 C.3       1 RES1    0.0000
      6 C4         3.4856    4.1531    2.0342 C.3       1 RES1    0.0000
      7 C5         3.7583    2.7802    1.4124 C.3       1 RES1    0.0000
      8 C6         5.1853    2.4574    1.5998 C.2       1 RES1    0.0000
      9 C7         6.1568    3.2775    1.9967 C.2       1 RES1    0.0000
     10 C8         5.9092    4.7511    2.2920 C.3       1 RES1    0.0000
     11 C9         2.8859    1.6580    2.0092 C.3       1 RES1    0.0000
     12 C10        6.1359    5.0465    3.7715 C.3       1 RES1    0.0000
     13 C11        7.5891    5.0759    4.1996 C.3       1 RES1    0.0000
     14 O3         5.4584    3.9736    4.5324 O.3       1 RES1    0.0000
     15 C12        5.1474    4.1781    5.7963 C.2       1 RES1    0.0000
     16 O4         5.2276    5.2255    6.3853 O.2       1 RES1    0.0000
     17 C13        4.6513    2.9232    6.4494 C.ar      1 RES1    0.0000
     18 C14        4.2258    2.9705    7.7695 C.ar      1 RES1    0.0000
     19 C15        3.7833    1.8326    8.3663 C.ar      1 RES1    0.0000
     20 C16        3.7783    0.6135    7.7273 C.ar      1 RES1    0.0000
     21 C17        4.2080    0.5898    6.4400 C.ar      1 RES1    0.0000
     22 C18        4.6577    1.7094    5.7635 C.ar      1 RES1    0.0000
     23 N1         3.3073    1.8882    9.7662 N.pl3     1 RES1    0.0000
     24 O5         3.2810    2.9820   10.2958 O.2       1 RES1    0.0000
     25 O6         2.9707    0.8604   10.2990 O.2       1 RES1    0.0000
     26 N2         4.2732   -0.7102    5.7400 N.pl3     1 RES1    0.0000
     27 O7         3.7711   -1.6620    6.2666 O.2       1 RES1    0.0000
     28 O8         4.7546   -0.7475    4.6573 O.2       1 RES1    0.0000
     29 H1         3.9823    6.6165    2.9700 H         1 RES1    0.0000
     30 H2         4.2769    7.1674    1.5358 H         1 RES1    0.0000
     31 H3         4.6951    5.1034    0.7484 H         1 RES1    0.0000
     32 H4         3.4876    4.0291    2.9872 H         1 RES1    0.0000
     33 H5         3.5722    2.8458    0.4718 H         1 RES1    0.0000
     34 H6         5.4364    1.5457    1.4358 H         1 RES1    0.0000
     35 H7         7.0473    2.9332    2.0982 H         1 RES1    0.0000
     36 H8         6.5754    5.2538    1.8186 H         1 RES1    0.0000
     37 H9         3.0437    0.8116    1.5858 H         1 RES1    0.0000
     38 H10        3.0908    1.5901    2.9450 H         1 RES1    0.0000
     39 H11        1.9636    1.9029    1.9014 H         1 RES1    0.0000
     40 H12        5.7341    5.8902    3.9918 H         1 RES1    0.0000
     41 H13        7.6611    5.2724    5.1354 H         1 RES1    0.0000
     42 H14        7.9660    4.2090    4.0246 H         1 RES1    0.0000
     43 H15        8.0659    5.7398    3.6949 H         1 RES1    0.0000
     44 H16        4.2565    3.8020    8.2492 H         1 RES1    0.0000
     45 H17        3.4865   -0.1796    8.1836 H         1 RES1    0.0000
     46 H18        4.9546    1.6655    4.8511 H         1 RES1    0.0000
     47 C19        6.5411   -4.6837    1.6748 C.2       2 RES2    0.0000
     48 O9         5.4146   -4.4079    1.4108 O.2       2 RES2    0.0000
     49 O10        6.9375   -5.9566    1.7248 O.3       2 RES2    0.0000
     50 C20        8.3260   -6.0426    2.0404 C.3       2 RES2    0.0000
     51 C21        8.8724   -4.6577    1.6780 C.3       2 RES2    0.0000
     52 C22        7.6990   -3.7768    2.0154 C.3       2 RES2    0.0000
     53 C23        7.8221   -2.4160    1.3499 C.3       2 RES2    0.0000
     54 C24        9.2251   -1.9369    1.5139 C.2       2 RES2    0.0000
     55 C25       10.2279   -2.6457    1.9404 C.2       2 RES2    0.0000
     56 C26       10.1832   -4.1378    2.3013 C.3       2 RES2    0.0000
     57 C27        6.8027   -1.4360    1.9076 C.3       2 RES2    0.0000
     58 C28       10.4037   -4.3966    3.7793 C.3       2 RES2    0.0000
     59 C29       11.8557   -4.3827    4.1965 C.3       2 RES2    0.0000
     60 O11        9.6940   -3.3182    4.5074 O.3       2 RES2    0.0000
     61 C30        9.3768   -3.5301    5.8010 C.2       2 RES2    0.0000
     62 O12        9.4680   -4.5572    6.3665 O.2       2 RES2    0.0000
     63 C31        8.8449   -2.2680    6.4025 C.ar      2 RES2    0.0000
     64 C32        8.4439   -2.3205    7.7242 C.ar      2 RES2    0.0000
     65 C33        7.9647   -1.1848    8.3289 C.ar      2 RES2    0.0000
     66 C34        7.9116    0.0171    7.6789 C.ar      2 RES2    0.0000
     67 C35        8.3073    0.0573    6.3556 C.ar      2 RES2    0.0000
     68 C36        8.7865   -1.0649    5.7291 C.ar      2 RES2    0.0000
     69 N3         7.5096   -1.2322    9.7381 N.pl3     2 RES2    0.0000
     70 O13        7.5328   -2.3211   10.2724 O.2       2 RES2    0.0000
     71 O14        7.0979   -0.2086   10.2396 O.2       2 RES2    0.0000
     72 N4         8.3120    1.3265    5.6651 N.pl3     2 RES2    0.0000
     73 O15        7.8360    2.2834    6.1713 O.2       2 RES2    0.0000
     74 O16        8.6385    1.3542    4.5058 O.2       2 RES2    0.0000
     75 H19        8.7479   -6.7360    1.5295 H         2 RES2    0.0000
     76 H20        8.4589   -6.2126    2.9763 H         2 RES2    0.0000
     77 H21        8.9635   -4.6293    0.7234 H         2 RES2    0.0000
     78 H22        7.7089   -3.6428    2.9669 H         2 RES2    0.0000
     79 H23        7.6604   -2.5443    0.4125 H         2 RES2    0.0000
     80 H24        9.4107   -1.0218    1.2952 H         2 RES2    0.0000
     81 H25       11.0675   -2.1963    2.0654 H         2 RES2    0.0000
     82 H26       10.9118   -4.5603    1.8404 H         2 RES2    0.0000
     83 H27        6.8913   -0.5971    1.4483 H         2 RES2    0.0000
     84 H28        5.9189   -1.7839    1.7701 H         2 RES2    0.0000
     85 H29        6.9526   -1.3026    2.8466 H         2 RES2    0.0000
     86 H30       10.0098   -5.2401    4.0090 H         2 RES2    0.0000
     87 H31       11.9199   -4.5503    5.1401 H         2 RES2    0.0000
     88 H32       12.3314   -5.0668    3.7184 H         2 RES2    0.0000
     89 H33       12.2389   -3.5257    3.9965 H         2 RES2    0.0000
     90 H34        8.5032   -3.1422    8.2179 H         2 RES2    0.0000
     91 H35        7.5957    0.8142    8.1101 H         2 RES2    0.0000
     92 H36        9.0707   -1.0127    4.8136 H         2 RES2    0.0000
@<TRIPOS>BOND
     1    1    2 2
     2    3    1 1
     3    4    3 1
     4    5    4 1
     5    6    1 1
     6    7    6 1
     7    8    7 1
     8    9    8 2
     9   10    5 1
    10   11    7 1
    11   12   10 1
    12   13   12 1
    13   14   12 1
    14   15   14 1
    15   16   15 2
    16   17   15 1
    17   18   17 ar
    18   19   18 ar
    19   20   19 ar
    20   21   20 ar
    21   22   17 ar
    22   23   19 1
    23   24   23 2
    24   25   23 2
    25   26   21 1
    26   27   26 2
    27   28   26 2
    28   29    4 1
    29   30    4 1
    30   31    5 1
    31   32    6 1
    32   33    7 1
    33   34    8 1
    34   35    9 1
    35   36   10 1
    36   37   11 1
    37   38   11 1
    38   39   11 1
    39   40   12 1
    40   41   13 1
    41   42   13 1
    42   43   13 1
    43   44   18 1
    44   45   20 1
    45   46   22 1
    46   47   48 2
    47   49   47 1
    48   50   49 1
    49   51   50 1
    50   52   47 1
    51   53   52 1
    52   54   53 1
    53   55   54 2
    54   56   51 1
    55   57   53 1
    56   58   56 1
    57   59   58 1
    58   60   58 1
    59   61   60 1
    60   62   61 2
    61   63   61 1
    62   64   63 ar
    63   65   64 ar
    64   66   65 ar
    65   67   66 ar
    66   68   63 ar
    67   69   65 1
    68   70   69 2
    69   71   69 2
    70   72   67 1
    71   73   72 2
    72   74   72 2
    73   75   50 1
    74   76   50 1
    75   77   51 1
    76   78   52 1
    77   79   53 1
    78   80   54 1
    79   81   55 1
    80   82   56 1
    81   83   57 1
    82   84   57 1
    83   85   57 1
    84   86   58 1
    85   87   59 1
    86   88   59 1
    87   89   59 1
    88   90   64 1
    89   91   66 1
    90   92   68 1
    91    5    6 1
    92    9   10 1
    93   21   22 ar
    94   51   52 1
    95   55   56 1
    96   67   68 ar
@<TRIPOS>SUBSTRUCTURE
     1 RES1 1
     2 RES2 47

@<TRIPOS>CRYSIN
   8.2150   14.3770   17.0970 112.3100  97.9000  91.0400   2 1

