# MOL2 file generated by ConQuest
# Please check atom types

@<TRIPOS>MOLECULE
ZICMAC
    56    52     2
SMALL
NO_CHARGES
****
Generated from CSD

@<TRIPOS>ATOM
      1 N1         2.6332    7.2416    8.9049 N.am      1 RES1    0.0000
      2 C1         2.9979    6.7962    7.5493 C.3       1 RES1    0.0000
      3 O1         1.7367    6.5930    6.9105 O.3       1 RES1    0.0000
      4 C2         0.6869    7.2008    7.6672 C.3       1 RES1    0.0000
      5 C3         1.1850    7.2053    9.1159 C.3       1 RES1    0.0000
      6 C4         0.9165    8.5115    9.9388 C.3       1 RES1    0.0000
      7 C5         2.2501    8.7734   10.6131 C.3       1 RES1    0.0000
      8 O2         4.3324    8.7436    9.2826 O.2       1 RES1    0.0000
      9 C6         3.2405    8.2907    9.5437 C.2       1 RES1    0.0000
     10 C7         2.4517   10.2326   10.9847 C.2       1 RES1    0.0000
     11 O3         1.8221   11.1248   10.4661 O.2       1 RES1    0.0000
     12 N2         3.3341   10.4864   11.9786 N.am      1 RES1    0.0000
     13 C8         3.7691   11.8302   12.3021 C.3       1 RES1    0.0000
     14 O4         4.2861    9.4818   12.2659 O.3       1 RES1    0.0000
     15 C9         4.0462    8.9640   13.5856 C.3       1 RES1    0.0000
     16 O5        -0.1092    8.4047   10.8840 O.3       1 RES1    0.0000
     17 C10       -1.4038    8.5279   10.2925 C.3       1 RES1    0.0000
     18 C11        0.7112    5.9951    9.9280 C.2       1 RES1    0.0000
     19 O6        -0.2568    5.3444    9.6570 O.2       1 RES1    0.0000
     20 O7         1.4819    5.8079   11.0011 O.3       1 RES1    0.0000
     21 C12        1.0396    4.7854   11.9227 C.3       1 RES1    0.0000
     22 C13        3.8117    5.4986    7.4906 C.3       1 RES1    0.0000
     23 C14        5.1364    5.7196    8.2211 C.3       1 RES1    0.0000
     24 C15        4.1091    5.2048    6.0092 C.3       1 RES1    0.0000
     25 C16        3.0406    4.3384    8.1183 C.3       1 RES1    0.0000
     26 H1         3.5124    7.5329    7.1123 H         1 RES1    0.0000
     27 H2         0.5270    8.1159    7.3323 H         1 RES1    0.0000
     28 H3        -0.1122    6.6410    7.5524 H         1 RES1    0.0000
     29 H4         0.7055    9.2330    9.3342 H         1 RES1    0.0000
     30 H5         2.3453    8.2098   11.4033 H         1 RES1    0.0000
     31 H6         4.1295   11.8508   13.1966 H         1 RES1    0.0000
     32 H7         2.9955   12.3720   12.3492 H         1 RES1    0.0000
     33 H8         4.4398   12.2382   11.6858 H         1 RES1    0.0000
     34 H9         4.7985    8.4248   13.8699 H         1 RES1    0.0000
     35 H10        3.9314    9.6809   14.2213 H         1 RES1    0.0000
     36 H11        3.2591    8.3952   13.5989 H         1 RES1    0.0000
     37 H12       -2.0477    8.4441   10.9977 H         1 RES1    0.0000
     38 H13       -1.5063    9.3669    9.8432 H         1 RES1    0.0000
     39 H14       -1.5632    7.8122    9.6494 H         1 RES1    0.0000
     40 H15        1.5666    4.8610   12.7417 H         1 RES1    0.0000
     41 H16        0.1114    4.9254   12.0848 H         1 RES1    0.0000
     42 H17        1.1578    3.9408   11.5002 H         1 RES1    0.0000
     43 H18        5.7165    4.9743    8.1206 H         1 RES1    0.0000
     44 H19        5.0195    5.8791    9.1765 H         1 RES1    0.0000
     45 H20        5.5763    6.4531    7.8316 H         1 RES1    0.0000
     46 H21        4.6395    4.4003    5.9316 H         1 RES1    0.0000
     47 H22        4.6217    5.9318    5.5851 H         1 RES1    0.0000
     48 H23        3.2786    5.0876    5.5128 H         1 RES1    0.0000
     49 H24        3.5166    3.5135    7.9991 H         1 RES1    0.0000
     50 H25        2.9326    4.4904    9.0698 H         1 RES1    0.0000
     51 H26        2.1914    4.2497    7.7182 H         1 RES1    0.0000
     52 O8         3.0882    9.6088   13.0718 Du        2 SUP2    0.0000
     53 C17        4.2927    8.9061   13.3953 Du        2 SUP2    0.0000
     54 H27        4.0946    8.1918   13.9963 Du        2 SUP2    0.0000
     55 H28        4.9158    9.5149   13.8107 Du        2 SUP2    0.0000
     56 H29        4.6786    8.5535   12.5906 Du        2 SUP2    0.0000
@<TRIPOS>BOND
     1    1    2 1
     2    2    3 1
     3    3    4 1
     4    4    5 1
     5    5    1 1
     6    6    5 1
     7    7    6 1
     8    8    9 2
     9    9    1 1
    10   10    7 1
    11   11   10 2
    12   12   10 1
    13   13   12 1
    14   14   12 1
    15   15   14 1
    16   16    6 1
    17   17   16 1
    18   18    5 1
    19   19   18 2
    20   20   18 1
    21   21   20 1
    22   22    2 1
    23   23   22 1
    24   24   22 1
    25   25   22 1
    26   26    2 1
    27   27    4 1
    28   28    4 1
    29   29    6 1
    30   30    7 1
    31   31   13 1
    32   32   13 1
    33   33   13 1
    34   34   15 1
    35   35   15 1
    36   36   15 1
    37   37   17 1
    38   38   17 1
    39   39   17 1
    40   40   21 1
    41   41   21 1
    42   42   21 1
    43   43   23 1
    44   44   23 1
    45   45   23 1
    46   46   24 1
    47   47   24 1
    48   48   24 1
    49   49   25 1
    50   50   25 1
    51   51   25 1
    52    7    9 1
@<TRIPOS>SUBSTRUCTURE
     1 RES1 1
     2 SUP2 52

@<TRIPOS>CRYSIN
   8.5004   12.8701   16.4218  90.0000  90.0000  90.0000  19 1

