# MOL2 file generated by ConQuest
# Please check atom types

@<TRIPOS>MOLECULE
ZICNAD
    74    78     2
SMALL
NO_CHARGES
****
Generated from CSD

@<TRIPOS>ATOM
      1 N1         1.0972    3.9305    8.0848 N.pl3     1 RES1    0.0000
      2 O1         0.7274    3.2228    7.1664 O.2       1 RES1    0.0000
      3 O2         1.5109    5.0689    7.9498 O.2       1 RES1    0.0000
      4 O3         3.4319    2.3586    8.1846 O.3       1 RES1    0.0000
      5 C1         1.6413    2.2132    9.7823 C.ar      1 RES1    0.0000
      6 C2         1.0087    3.4069    9.4519 C.ar      1 RES1    0.0000
      7 C3         2.2515   -0.9851    9.3971 C.2       1 RES1    0.0000
      8 C4         2.4729    1.4599    8.7459 C.3       1 RES1    0.0000
      9 H1         1.8606    1.2162    8.0202 H         1 RES1    0.0000
     10 C5         4.4333    0.1222    9.3759 C.2       1 RES1    0.0000
     11 H2         4.8123   -0.6909    9.6228 H         1 RES1    0.0000
     12 C6         3.1110    0.1796    9.2194 C.2       1 RES1    0.0000
     13 C7         1.5174    1.8208   11.0959 C.ar      1 RES1    0.0000
     14 H3         1.9439    1.0428   11.3753 H         1 RES1    0.0000
     15 C8         0.7746    2.5469   12.0175 C.ar      1 RES1    0.0000
     16 H4         0.7097    2.2520   12.8960 H         1 RES1    0.0000
     17 C9         5.3385    1.2910    9.1758 C.3       1 RES1    0.0000
     18 H5         5.9489    1.3605    9.9257 H         1 RES1    0.0000
     19 H6         5.8630    1.1613    8.3701 H         1 RES1    0.0000
     20 C10        0.2667    4.1508   10.3483 C.ar      1 RES1    0.0000
     21 H7        -0.1380    4.9451   10.0847 H         1 RES1    0.0000
     22 C11        4.5422    2.5522    9.0578 C.3       1 RES1    0.0000
     23 H8         4.2236    2.8183    9.9348 H         1 RES1    0.0000
     24 H9         5.1066    3.2613    8.7140 H         1 RES1    0.0000
     25 C12        0.9376   -1.0322    9.2279 C.2       1 RES1    0.0000
     26 H10        0.4310   -0.2998    8.9609 H         1 RES1    0.0000
     27 C13        2.7739   -2.3311    9.8013 C.3       1 RES1    0.0000
     28 H11        3.1581   -2.2962   10.6906 H         1 RES1    0.0000
     29 H12        3.4532   -2.6353    9.1790 H         1 RES1    0.0000
     30 C14        0.3546   -2.3675    9.5075 C.3       1 RES1    0.0000
     31 H13       -0.1522   -2.6897    8.7458 H         1 RES1    0.0000
     32 H14       -0.2283   -2.3352   10.2817 H         1 RES1    0.0000
     33 C15        0.1379    3.6968   11.6373 C.ar      1 RES1    0.0000
     34 H15       -0.3801    4.1686   12.2492 H         1 RES1    0.0000
     35 C16        1.5588   -3.2599    9.7733 C.3       1 RES1    0.0000
     36 H16        1.6526   -3.9219    9.0714 H         1 RES1    0.0000
     37 H17        1.4614   -3.7184   10.6225 H         1 RES1    0.0000
     38 N2         2.5194    4.8854    0.5130 N.pl3     2 RES2    0.0000
     39 O4         2.9040    4.1748   -0.4020 O.2       2 RES2    0.0000
     40 O5         2.0935    6.0112    0.3825 O.2       2 RES2    0.0000
     41 O6         0.1929    3.3157    0.6133 O.3       2 RES2    0.0000
     42 C17        1.9576    3.1646    2.2161 C.ar      2 RES2    0.0000
     43 C18        1.3818   -0.0382    1.8213 C.2       2 RES2    0.0000
     44 C19        2.5971    4.3510    1.8785 C.ar      2 RES2    0.0000
     45 C20       -0.8072    1.0735    1.8035 C.2       2 RES2    0.0000
     46 H18       -1.1870    0.2610    2.0463 H         2 RES2    0.0000
     47 C21        0.5103    1.1256    1.6518 C.2       2 RES2    0.0000
     48 C22        1.1458    2.4133    1.1663 C.3       2 RES2    0.0000
     49 H19        1.7636    2.1740    0.4453 H         2 RES2    0.0000
     50 C23        2.0815    2.7749    3.5207 C.ar      2 RES2    0.0000
     51 H20        1.6581    1.9959    3.7988 H         2 RES2    0.0000
     52 C24       -0.9262    3.5017    1.4904 C.3       2 RES2    0.0000
     53 H21       -1.4950    4.2085    1.1451 H         2 RES2    0.0000
     54 H22       -0.6110    3.7717    2.3659 H         2 RES2    0.0000
     55 C25        3.2865   -1.4149    1.9349 C.3       2 RES2    0.0000
     56 H23        3.8675   -1.3805    2.7113 H         2 RES2    0.0000
     57 H24        3.7951   -1.7347    1.1739 H         2 RES2    0.0000
     58 C26        2.8131    3.4991    4.4382 C.ar      2 RES2    0.0000
     59 H25        2.8754    3.2041    5.3180 H         2 RES2    0.0000
     60 C27       -1.7168    2.2368    1.6089 C.3       2 RES2    0.0000
     61 H26       -2.2445    2.1067    0.8058 H         2 RES2    0.0000
     62 H27       -2.3255    2.3035    2.3614 H         2 RES2    0.0000
     63 C28        2.6952   -0.0848    1.6575 C.2       2 RES2    0.0000
     64 H28        3.1996    0.6499    1.3920 H         2 RES2    0.0000
     65 C29        0.8578   -1.3808    2.2281 C.3       2 RES2    0.0000
     66 H29        0.1782   -1.6877    1.6071 H         2 RES2    0.0000
     67 H30        0.4765   -1.3461    3.1187 H         2 RES2    0.0000
     68 C30        3.4463    4.6474    4.0609 C.ar      2 RES2    0.0000
     69 H31        3.9629    5.1178    4.6743 H         2 RES2    0.0000
     70 C31        3.3213    5.1045    2.7764 C.ar      2 RES2    0.0000
     71 H32        3.7152    5.9058    2.5159 H         2 RES2    0.0000
     72 C32        2.0781   -2.3031    2.1963 C.3       2 RES2    0.0000
     73 H33        2.1748   -2.7662    3.0430 H         2 RES2    0.0000
     74 H34        1.9851   -2.9636    1.4920 H         2 RES2    0.0000
@<TRIPOS>BOND
     1    1    2 2
     2    3    1 2
     3    4    8 1
     4    5    6 ar
     5    6    1 1
     6    7   12 1
     7    8    5 1
     8    9    8 1
     9   10   11 1
    10   12    8 1
    11   13    5 ar
    12   14   13 1
    13   15   13 ar
    14   16   15 1
    15   17   10 1
    16   18   17 1
    17   19   17 1
    18   20    6 ar
    19   21   20 1
    20   22    4 1
    21   23   22 1
    22   24   22 1
    23   25    7 2
    24   26   25 1
    25   27    7 1
    26   28   27 1
    27   29   27 1
    28   30   25 1
    29   31   30 1
    30   32   30 1
    31   33   15 ar
    32   34   33 1
    33   35   27 1
    34   36   35 1
    35   37   35 1
    36   38   39 2
    37   40   38 2
    38   41   48 1
    39   42   44 ar
    40   43   47 1
    41   44   38 1
    42   45   46 1
    43   47   45 2
    44   48   42 1
    45   49   48 1
    46   50   42 ar
    47   51   50 1
    48   52   41 1
    49   53   52 1
    50   54   52 1
    51   55   56 1
    52   57   55 1
    53   58   50 ar
    54   59   58 1
    55   60   45 1
    56   61   60 1
    57   62   60 1
    58   63   43 2
    59   64   63 1
    60   65   43 1
    61   66   65 1
    62   67   65 1
    63   68   58 ar
    64   69   68 1
    65   70   44 ar
    66   71   70 1
    67   72   55 1
    68   73   72 1
    69   74   72 1
    70   10   12 2
    71   17   22 1
    72   20   33 ar
    73   30   35 1
    74   47   48 1
    75   52   60 1
    76   55   63 1
    77   65   72 1
    78   68   70 ar
@<TRIPOS>SUBSTRUCTURE
     1 RES1 1
     2 RES2 38

@<TRIPOS>CRYSIN
   7.3532   12.2190   15.2660  97.1600  90.2330  90.1520   2 1

