# MOL2 file generated by ConQuest
# Please check atom types

@<TRIPOS>MOLECULE
ZICNII
    68    62     2
SMALL
NO_CHARGES
****
Generated from CSD

@<TRIPOS>ATOM
      1 N1         6.1012    1.3842    1.1009 N.ar      1 RES1    0.0000
      2 C1         6.8061    0.5158    1.8428 C.ar      1 RES1    0.0000
      3 C2         6.0147   -0.3983    2.7265 C.3       1 RES1    0.0000
      4 H1         6.3583   -1.2909    2.6421 H         1 RES1    0.0000
      5 H2         5.1062   -0.3986    2.4159 H         1 RES1    0.0000
      6 O1         6.0210   -0.0287    4.0793 O.3       1 RES1    0.0000
      7 C3         5.6236    1.1781    4.6644 C.3       1 RES1    0.0000
      8 H3         5.8072    1.9113    4.0747 H         1 RES1    0.0000
      9 H4         6.0912    1.3311    5.4893 H         1 RES1    0.0000
     10 C4         4.1791    1.0893    4.8981 C.3       1 RES1    0.0000
     11 H5         3.9626    0.3094    5.4139 H         1 RES1    0.0000
     12 H6         3.6826    1.0687    4.0763 H         1 RES1    0.0000
     13 O2         3.8850    2.3686    5.6944 O.3       1 RES1    0.0000
     14 C5         2.5083    2.3719    5.5753 C.3       1 RES1    0.0000
     15 H7         2.1287    1.6322    6.0563 H         1 RES1    0.0000
     16 H8         2.2701    2.2860    4.6493 H         1 RES1    0.0000
     17 C6         1.9569    3.6922    6.0684 C.3       1 RES1    0.0000
     18 H9         2.2161    3.7788    6.9883 H         1 RES1    0.0000
     19 H10        0.9983    3.6938    6.0277 H         1 RES1    0.0000
     20 N2         2.4798    4.8420    5.3249 N.3       1 RES1    0.0000
     21 C7         1.8895    4.9417    3.9782 C.3       1 RES1    0.0000
     22 H11        1.0028    5.2993    4.0657 H         1 RES1    0.0000
     23 H12        1.8163    4.0586    3.6103 H         1 RES1    0.0000
     24 C8         2.6735    5.7752    3.0402 C.3       1 RES1    0.0000
     25 H13        2.2031    5.7065    2.1052 H         1 RES1    0.0000
     26 H14        2.6981    6.9477    3.3765 H         1 RES1    0.0000
     27 O3         3.7979    4.9378    2.7130 O.3       1 RES1    0.0000
     28 C9         4.7643    5.7178    1.9137 C.3       1 RES1    0.0000
     29 H15        4.3334    6.3188    1.2411 H         1 RES1    0.0000
     30 H16        5.8431    6.1175    2.2364 H         1 RES1    0.0000
     31 C10        5.4397    4.6009    1.3150 C.3       1 RES1    0.0000
     32 H17        5.8686    4.0272    2.1128 H         1 RES1    0.0000
     33 O4         4.9745    3.8938    0.3469 O.3       1 RES1    0.0000
     34 C11        5.9507    3.2161   -0.4539 C.3       1 RES1    0.0000
     35 H18        5.1696    2.6587   -1.1054 H         1 RES1    0.0000
     36 H19        6.5012    3.6485   -1.1853 H         1 RES1    0.0000
     37 C12        6.7832    2.2465    0.3363 C.ar      1 RES1    0.0000
     38 C13        8.1553    2.2572    0.2911 C.ar      1 RES1    0.0000
     39 H20        8.6108    2.8870   -0.2714 H         1 RES1    0.0000
     40 C14        8.8717    1.3545    1.0511 C.ar      1 RES1    0.0000
     41 H21        9.8317    1.3538    1.0360 H         1 RES1    0.0000
     42 C15        8.1855    0.4768    1.8353 C.ar      1 RES1    0.0000
     43 H22        8.6512   -0.1763    2.3631 H         1 RES1    0.0000
     44 C16        2.2914    6.0889    6.0955 C.3       1 RES1    0.0000
     45 H23        1.3721    6.1605    6.3625 H         1 RES1    0.0000
     46 H24        2.5035    6.8451    5.5436 H         1 RES1    0.0000
     47 C17        3.1622    6.1100    7.3261 C.ar      1 RES1    0.0000
     48 C18        2.6879    6.5663    8.5265 C.ar      1 RES1    0.0000
     49 H25        1.7860    6.8870    8.5974 H         1 RES1    0.0000
     50 C19        3.4976    6.5526    9.6425 C.ar      1 RES1    0.0000
     51 N3         2.9362    6.9837   10.9198 N.pl3     1 RES1    0.0000
     52 O5         1.8121    7.4758   10.9499 O.2       1 RES1    0.0000
     53 O6         3.6302    6.8143   11.9302 O.2       1 RES1    0.0000
     54 C20        4.8075    6.0789    9.5821 C.ar      1 RES1    0.0000
     55 H26        5.3526    6.0678   10.3723 H         1 RES1    0.0000
     56 C21        5.2886    5.6316    8.3893 C.ar      1 RES1    0.0000
     57 H27        6.1892    5.3035    8.3335 H         1 RES1    0.0000
     58 C22        4.4972    5.6464    7.2522 C.ar      1 RES1    0.0000
     59 O7         5.0231    5.2097    6.0940 O.3       1 RES1    0.0000
     60 H28        4.1315    4.9833    5.4410 H         1 RES1    0.0000
     61 C23        5.0736    1.1564    4.0763 Du        2 SUP2    0.0000
     62 H29        4.2728    0.9709    3.5816 Du        2 SUP2    0.0000
     63 H30        5.4913    1.9481    3.7309 Du        2 SUP2    0.0000
     64 C24        4.7715    1.2828    5.5662 Du        2 SUP2    0.0000
     65 H31        5.5832    1.4547    6.0488 Du        2 SUP2    0.0000
     66 H32        4.3748    0.4756    5.9010 Du        2 SUP2    0.0000
     67 O8         4.1966    5.5539    3.1518 Du        2 SUP2    0.0000
     68 O9         5.8621    4.5847    0.2549 Du        2 SUP2    0.0000
@<TRIPOS>BOND
     1    1    2 ar
     2    2    3 1
     3    3    4 1
     4    5    3 1
     5    6    3 1
     6    7    6 1
     7    8    7 1
     8    9    7 1
     9   10    7 1
    10   11   10 1
    11   12   10 1
    12   13   10 1
    13   14   13 1
    14   15   14 1
    15   16   14 1
    16   17   14 1
    17   18   17 1
    18   19   17 1
    19   20   17 1
    20   21   20 1
    21   22   21 1
    22   23   21 1
    23   24   21 1
    24   25   24 1
    25   26   24 1
    26   27   24 1
    27   28   27 1
    28   29   28 1
    29   30   28 1
    30   31   28 1
    31   32   31 1
    32   33   31 1
    33   34   33 1
    34   35   34 1
    35   36   34 1
    36   37    1 ar
    37   38   37 ar
    38   39   38 1
    39   40   38 ar
    40   41   40 1
    41   42    2 ar
    42   43   42 1
    43   44   20 1
    44   45   44 1
    45   46   44 1
    46   47   44 1
    47   48   47 ar
    48   49   48 1
    49   50   48 ar
    50   51   50 1
    51   52   51 2
    52   53   51 2
    53   54   50 ar
    54   55   54 1
    55   56   54 ar
    56   57   56 1
    57   58   47 ar
    58   59   58 1
    59   60   59 1
    60   34   37 1
    61   40   42 ar
    62   56   58 ar
@<TRIPOS>SUBSTRUCTURE
     1 RES1 1
     2 SUP2 61

@<TRIPOS>CRYSIN
   6.3430   11.6260   15.6430  74.6000  87.6500  83.3600   2 1

