# MOL2 file generated by ConQuest
# Please check atom types

@<TRIPOS>MOLECULE
ZIFLUX
    98   104     2
SMALL
NO_CHARGES
****
Generated from CSD

@<TRIPOS>ATOM
      1 C1         3.0689    1.8879    2.3203 C.ar      1 RES1    0.0000
      2 C2         2.9755    3.2429    2.5386 C.ar      1 RES1    0.0000
      3 H1         3.3570    3.8593    1.9256 H         1 RES1    0.0000
      4 C3         2.3126    3.6913    3.6750 C.ar      1 RES1    0.0000
      5 H2         2.2350    4.6236    3.8385 H         1 RES1    0.0000
      6 C4         1.7618    2.7846    4.5698 C.ar      1 RES1    0.0000
      7 C5         1.8583    1.4251    4.3098 C.ar      1 RES1    0.0000
      8 H3         1.4639    0.8066    4.9125 H         1 RES1    0.0000
      9 C6         2.5168    0.9545    3.1893 C.ar      1 RES1    0.0000
     10 H4         2.5901    0.0223    3.0197 H         1 RES1    0.0000
     11 C7         0.9989    3.2485    5.7577 C.2       1 RES1    0.0000
     12 C8        -0.2241    4.0584    5.3671 C.2       1 RES1    0.0000
     13 C9        -1.4299    3.2886    4.9339 C.ar      1 RES1    0.0000
     14 C10       -1.5649    1.9346    5.1962 C.ar      1 RES1    0.0000
     15 H5        -0.9016    1.4819    5.7034 H         1 RES1    0.0000
     16 C11       -2.6649    1.2404    4.7197 C.ar      1 RES1    0.0000
     17 H6        -2.7539    0.3104    4.8948 H         1 RES1    0.0000
     18 C12       -3.6257    1.9002    3.9939 C.ar      1 RES1    0.0000
     19 H7        -4.3795    1.4229    3.6667 H         1 RES1    0.0000
     20 C13       -3.5050    3.2552    3.7356 C.ar      1 RES1    0.0000
     21 H8        -4.1712    3.7046    3.2295 H         1 RES1    0.0000
     22 C14       -2.4164    3.9538    4.2150 C.ar      1 RES1    0.0000
     23 H9        -2.3403    4.8872    4.0533 H         1 RES1    0.0000
     24 C15        1.2987    2.9804    7.0359 C.2       1 RES1    0.0000
     25 C16        0.3762    3.3865    8.1435 C.2       1 RES1    0.0000
     26 C17        0.9399    2.9036    9.4792 C.3       1 RES1    0.0000
     27 C18        1.1223    4.1051   10.4279 C.3       1 RES1    0.0000
     28 H10        1.4820    3.7925   11.2830 H         1 RES1    0.0000
     29 H11        0.2557    4.5379   10.5754 H         1 RES1    0.0000
     30 H12        1.7429    4.7470   10.0246 H         1 RES1    0.0000
     31 C19       -0.0352    1.8835   10.0834 C.3       1 RES1    0.0000
     32 H13        0.3102    1.5731   10.9469 H         1 RES1    0.0000
     33 H14       -0.1289    1.1214    9.4762 H         1 RES1    0.0000
     34 H15       -0.9103    2.3062   10.2141 H         1 RES1    0.0000
     35 C20        2.2554    2.2695    9.0633 C.ar      1 RES1    0.0000
     36 C21        3.2187    1.7110    9.8851 C.ar      1 RES1    0.0000
     37 H16        3.1001    1.7021   10.8281 H         1 RES1    0.0000
     38 C22        4.3592    1.1659    9.3147 C.ar      1 RES1    0.0000
     39 H17        5.0167    0.7632    9.8704 H         1 RES1    0.0000
     40 C23        4.5505    1.2015    7.9512 C.ar      1 RES1    0.0000
     41 H18        5.3422    0.8288    7.5784 H         1 RES1    0.0000
     42 C24        3.6086    1.7711    7.1193 C.ar      1 RES1    0.0000
     43 H19        3.7472    1.7967    6.1810 H         1 RES1    0.0000
     44 C25        2.4496    2.3084    7.6737 C.ar      1 RES1    0.0000
     45 N1         3.8062    1.4006    1.1376 N.pl3     1 RES1    0.0000
     46 O1         4.0274    2.1883    0.2403 O.2       1 RES1    0.0000
     47 O2         4.1815    0.2414    1.1346 O.2       1 RES1    0.0000
     48 O3        -0.1467    5.2755    5.2812 O.2       1 RES1    0.0000
     49 O4        -0.6787    3.9716    8.0141 O.2       1 RES1    0.0000
     50 C26        6.6390    2.7946   28.0988 C.ar      2 RES2    0.0000
     51 C27        6.8244    4.0985   27.6986 C.ar      2 RES2    0.0000
     52 H20        6.4618    4.8171   28.2012 H         2 RES2    0.0000
     53 C28        7.5501    4.3376   26.5475 C.ar      2 RES2    0.0000
     54 H21        7.7037    5.2343   26.2706 H         2 RES2    0.0000
     55 C29        8.0619    3.2863   25.7841 C.ar      2 RES2    0.0000
     56 C30        7.8422    1.9714   26.2160 C.ar      2 RES2    0.0000
     57 H22        8.1806    1.2427   25.7096 H         2 RES2    0.0000
     58 C31        7.1322    1.7311   27.3799 C.ar      2 RES2    0.0000
     59 H23        6.9871    0.8411   27.6781 H         2 RES2    0.0000
     60 C32        8.8920    3.5767   24.5840 C.2       2 RES2    0.0000
     61 C33       10.1037    4.4600   24.9252 C.2       2 RES2    0.0000
     62 C34       11.3465    3.7814   25.3848 C.ar      2 RES2    0.0000
     63 C35       12.3865    4.5501   25.8872 C.ar      2 RES2    0.0000
     64 H24       12.3252    5.4980   25.8789 H         2 RES2    0.0000
     65 C36       13.5150    3.9360   26.4002 C.ar      2 RES2    0.0000
     66 H25       14.2231    4.4656   26.7456 H         2 RES2    0.0000
     67 C37       13.6177    2.5743   26.4151 C.ar      2 RES2    0.0000
     68 H26       14.3870    2.1583   26.7861 H         2 RES2    0.0000
     69 C38       12.5906    1.7978   25.8842 C.ar      2 RES2    0.0000
     70 H27       12.6705    0.8511   25.8713 H         2 RES2    0.0000
     71 C39       11.4621    2.3997   25.3773 C.ar      2 RES2    0.0000
     72 H28       10.7598    1.8679   25.0222 H         2 RES2    0.0000
     73 C40        8.6406    3.1795   23.3183 C.2       2 RES2    0.0000
     74 C41        9.5888    3.5255   22.1998 C.2       2 RES2    0.0000
     75 C42        9.0409    2.9793   20.8782 C.3       2 RES2    0.0000
     76 C43       10.0288    1.9714   20.2745 C.3       2 RES2    0.0000
     77 H29        9.6791    1.6409   19.4199 H         2 RES2    0.0000
     78 H30       10.1467    1.2193   20.8931 H         2 RES2    0.0000
     79 H31       10.8925    2.4097   20.1249 H         2 RES2    0.0000
     80 C44        8.7928    4.1507   19.9119 C.3       2 RES2    0.0000
     81 H32        8.4531    3.8048   19.0611 H         2 RES2    0.0000
     82 H33        9.6338    4.6302   19.7560 H         2 RES2    0.0000
     83 H34        8.1352    4.7626   20.3018 H         2 RES2    0.0000
     84 C45        7.7495    2.3096   21.3235 C.ar      2 RES2    0.0000
     85 C46        6.8317    1.6665   20.5204 C.ar      2 RES2    0.0000
     86 H35        6.9960    1.5686   19.5892 H         2 RES2    0.0000
     87 C47        5.6770    1.1692   21.0743 C.ar      2 RES2    0.0000
     88 H36        5.0467    0.7231   20.5217 H         2 RES2    0.0000
     89 C48        5.4187    1.3105   22.4341 C.ar      2 RES2    0.0000
     90 H37        4.6127    0.9690   22.8035 H         2 RES2    0.0000
     91 C49        6.3392    1.9502   23.2523 C.ar      2 RES2    0.0000
     92 H38        6.1679    2.0437   24.1833 H         2 RES2    0.0000
     93 C50        7.5182    2.4575   22.7037 C.ar      2 RES2    0.0000
     94 N2         5.9144    2.5510   29.3555 N.pl3     2 RES2    0.0000
     95 O5         5.7108    1.3828   29.6651 O.2       2 RES2    0.0000
     96 O6         5.5598    3.5155   30.0322 O.2       2 RES2    0.0000
     97 O7         9.9555    5.6760   24.9527 O.2       2 RES2    0.0000
     98 O8        10.6212    4.1485   22.3269 O.2       2 RES2    0.0000
@<TRIPOS>BOND
     1    1    2 ar
     2    2    3 1
     3    4    2 ar
     4    5    4 1
     5    6    4 ar
     6    7    6 ar
     7    8    7 1
     8    9    1 ar
     9   10    9 1
    10   11    6 1
    11   12   11 1
    12   13   12 1
    13   14   13 ar
    14   15   14 1
    15   16   14 ar
    16   17   16 1
    17   18   16 ar
    18   19   18 1
    19   20   18 ar
    20   21   20 1
    21   22   13 ar
    22   23   22 1
    23   24   11 2
    24   25   24 1
    25   26   25 1
    26   27   26 1
    27   28   27 1
    28   29   27 1
    29   30   27 1
    30   31   26 1
    31   32   31 1
    32   33   31 1
    33   34   31 1
    34   35   26 1
    35   36   35 ar
    36   37   36 1
    37   38   36 ar
    38   39   38 1
    39   40   38 ar
    40   41   40 1
    41   42   40 ar
    42   43   42 1
    43   44   24 1
    44   45    1 1
    45   46   45 2
    46   47   45 2
    47   48   12 2
    48   49   25 2
    49   50   51 ar
    50   51   52 1
    51   53   51 ar
    52   54   53 1
    53   55   53 ar
    54   56   55 ar
    55   57   56 1
    56   58   50 ar
    57   59   58 1
    58   60   55 1
    59   61   60 1
    60   62   61 1
    61   63   62 ar
    62   64   63 1
    63   65   63 ar
    64   66   65 1
    65   67   65 ar
    66   68   67 1
    67   69   67 ar
    68   70   69 1
    69   71   62 ar
    70   72   71 1
    71   73   60 2
    72   74   73 1
    73   75   74 1
    74   76   75 1
    75   77   76 1
    76   78   76 1
    77   79   76 1
    78   80   75 1
    79   81   80 1
    80   82   80 1
    81   83   80 1
    82   84   75 1
    83   85   84 ar
    84   86   85 1
    85   87   85 ar
    86   88   87 1
    87   89   87 ar
    88   90   89 1
    89   91   89 ar
    90   92   91 1
    91   93   73 1
    92   94   50 1
    93   95   94 2
    94   96   94 2
    95   97   61 2
    96   98   74 2
    97    7    9 ar
    98   20   22 ar
    99   35   44 ar
   100   42   44 ar
   101   56   58 ar
   102   69   71 ar
   103   84   93 ar
   104   91   93 ar
@<TRIPOS>SUBSTRUCTURE
     1 RES1 1
     2 RES2 50

@<TRIPOS>CRYSIN
  14.2690   11.1250   25.2700  90.0000  90.1840  90.0000  14 1

