# MOL2 file generated by ConQuest
# Please check atom types

@<TRIPOS>MOLECULE
ZIFLIL
    46    51     1
SMALL
NO_CHARGES
****
Generated from CSD

@<TRIPOS>ATOM
      1 C1         4.2328   12.3818    7.6603 C.ar      1 RES1    0.0000
      2 C2         5.3367   12.4660    8.4904 C.ar      1 RES1    0.0000
      3 H1         6.1110   12.9478    8.2242 H         1 RES1    0.0000
      4 C3         5.2827   11.8301    9.7151 C.ar      1 RES1    0.0000
      5 H2         6.0318   11.8691   10.2996 H         1 RES1    0.0000
      6 C4         4.1462   11.1343   10.1024 C.ar      1 RES1    0.0000
      7 C5         3.0442   11.0903    9.2541 C.ar      1 RES1    0.0000
      8 H3         2.2600   10.6276    9.5239 H         1 RES1    0.0000
      9 C6         3.0815   11.7144    8.0185 C.ar      1 RES1    0.0000
     10 H4         2.3331   11.6829    7.4328 H         1 RES1    0.0000
     11 C7         4.1084   10.3926   11.4118 C.ar      1 RES1    0.0000
     12 C8         4.1689   11.0405   12.6255 C.ar      1 RES1    0.0000
     13 C9         4.3054   12.4551   13.0636 C.ar      1 RES1    0.0000
     14 C10        4.4866   13.6716   12.4416 C.ar      1 RES1    0.0000
     15 H5         4.5542   13.7248   11.4953 H         1 RES1    0.0000
     16 C11        4.5683   14.8373   13.2355 C.ar      1 RES1    0.0000
     17 H6         4.6955   15.6739   12.8034 H         1 RES1    0.0000
     18 C12        4.4722   14.8110   14.6005 C.ar      1 RES1    0.0000
     19 H7         4.5434   15.6193   15.0955 H         1 RES1    0.0000
     20 C13        4.2680   13.5794   15.2806 C.ar      1 RES1    0.0000
     21 C14        4.2072   12.4356   14.4759 C.ar      1 RES1    0.0000
     22 C15        3.9915   11.1313   14.9841 C.ar      1 RES1    0.0000
     23 C16        3.8383   10.9588   16.3335 C.ar      1 RES1    0.0000
     24 H8         3.6845   10.0962   16.7001 H         1 RES1    0.0000
     25 C17        3.9165   12.0974   17.1685 C.ar      1 RES1    0.0000
     26 H9         3.8157   11.9817   18.1063 H         1 RES1    0.0000
     27 C18        4.1329   13.3698   16.6796 C.ar      1 RES1    0.0000
     28 H10        4.1911   14.1049   17.2786 H         1 RES1    0.0000
     29 C19        3.9802   10.2507   13.8103 C.ar      1 RES1    0.0000
     30 C20        3.9574    8.9735   11.4662 C.ar      1 RES1    0.0000
     31 C21        3.9437    8.0883   10.2682 C.ar      1 RES1    0.0000
     32 C22        3.1170    6.9616   10.2464 C.ar      1 RES1    0.0000
     33 H11        2.5434    6.7878   10.9834 H         1 RES1    0.0000
     34 C23        3.1236    6.1034    9.1754 C.ar      1 RES1    0.0000
     35 H12        2.5627    5.3368    9.1827 H         1 RES1    0.0000
     36 C24        3.9353    6.3445    8.0959 C.ar      1 RES1    0.0000
     37 H13        3.9385    5.7415    7.3626 H         1 RES1    0.0000
     38 C25        4.7447    7.4580    8.0717 C.ar      1 RES1    0.0000
     39 H14        5.2859    7.6356    7.3118 H         1 RES1    0.0000
     40 C26        4.7691    8.3244    9.1633 C.ar      1 RES1    0.0000
     41 H15        5.3483    9.0776    9.1572 H         1 RES1    0.0000
     42 N1         4.2998   13.0044    6.3194 N.pl3     1 RES1    0.0000
     43 N2         3.7944    8.9351   13.8151 N.ar      1 RES1    0.0000
     44 N3         3.8153    8.2923   12.6159 N.ar      1 RES1    0.0000
     45 O1         5.3293   13.6015    6.0036 O.2       1 RES1    0.0000
     46 O2         3.3382   12.8994    5.5764 O.2       1 RES1    0.0000
@<TRIPOS>BOND
     1    1    2 ar
     2    2    3 1
     3    4    2 ar
     4    5    4 1
     5    6    4 ar
     6    7    6 ar
     7    8    7 1
     8    9    1 ar
     9   10    9 1
    10   11    6 1
    11   12   11 ar
    12   13   12 1
    13   14   13 ar
    14   15   14 1
    15   16   14 ar
    16   17   16 1
    17   18   16 ar
    18   19   18 1
    19   20   18 ar
    20   21   13 ar
    21   22   21 ar
    22   23   22 ar
    23   24   23 1
    24   25   23 ar
    25   26   25 1
    26   27   20 ar
    27   28   27 1
    28   29   12 ar
    29   30   11 ar
    30   31   30 1
    31   32   31 ar
    32   33   32 1
    33   34   32 ar
    34   35   34 1
    35   36   34 ar
    36   37   36 1
    37   38   36 ar
    38   39   38 1
    39   40   31 ar
    40   41   40 1
    41   42    1 1
    42   43   29 ar
    43   44   30 ar
    44   45   42 2
    45   46   42 2
    46    7    9 ar
    47   20   21 ar
    48   22   29 1
    49   25   27 ar
    50   38   40 ar
    51   43   44 ar
@<TRIPOS>SUBSTRUCTURE
     1 RES1 1

@<TRIPOS>CRYSIN
   8.1355    9.9649   12.9125  70.0850  83.7050  84.1080   2 1

