# MOL2 file generated by ConQuest
# Please check atom types

@<TRIPOS>MOLECULE
ZIFLUY
    54    57     1
SMALL
NO_CHARGES
****
Generated from CSD

@<TRIPOS>ATOM
      1 C1        14.8176    9.2260    6.6614 C.2       1 RES1    0.0000
      2 C2        13.8157    8.6417    7.3570 C.2       1 RES1    0.0000
      3 C3        16.1838    9.4241    7.2356 C.ar      1 RES1    0.0000
      4 C4        16.8732    8.3771    7.8604 C.ar      1 RES1    0.0000
      5 H1        16.4734    7.5408    7.9314 H         1 RES1    0.0000
      6 C5        18.1456    8.5758    8.3749 C.ar      1 RES1    0.0000
      7 H2        18.6085    7.8799    8.7824 H         1 RES1    0.0000
      8 C6        18.7069    9.8352    8.2664 C.ar      1 RES1    0.0000
      9 C7        18.0721   10.8794    7.6246 C.ar      1 RES1    0.0000
     10 H3        18.4843   11.7104    7.5472 H         1 RES1    0.0000
     11 C8        16.8119   10.6640    7.0994 C.ar      1 RES1    0.0000
     12 H4        16.3768   11.3516    6.6495 H         1 RES1    0.0000
     13 C9        14.6684    9.7394    5.2677 C.ar      1 RES1    0.0000
     14 C10       15.6253    9.4032    4.3100 C.ar      1 RES1    0.0000
     15 H5        16.3335    8.8479    4.5446 H         1 RES1    0.0000
     16 C11       15.5354    9.8843    3.0171 C.ar      1 RES1    0.0000
     17 H6        16.1738    9.6601    2.3797 H         1 RES1    0.0000
     18 C12       14.4756   10.7054    2.6982 C.ar      1 RES1    0.0000
     19 C13       13.5163   11.0752    3.6209 C.ar      1 RES1    0.0000
     20 H7        12.8125   11.6335    3.3788 H         1 RES1    0.0000
     21 C14       13.6267   10.5944    4.9126 C.ar      1 RES1    0.0000
     22 H8        12.9997   10.8449    5.5517 H         1 RES1    0.0000
     23 C15       13.9417    8.3217    8.8125 C.ar      1 RES1    0.0000
     24 C16       13.8033    7.0040    9.2527 C.ar      1 RES1    0.0000
     25 H9        13.6444    6.3224    8.6397 H         1 RES1    0.0000
     26 C17       13.9027    6.7108   10.6064 C.ar      1 RES1    0.0000
     27 H10       13.8376    5.8335   10.9086 H         1 RES1    0.0000
     28 C18       14.1016    7.7521   11.4960 C.ar      1 RES1    0.0000
     29 C19       14.2006    9.0630   11.1012 C.ar      1 RES1    0.0000
     30 H11       14.3108    9.7429   11.7263 H         1 RES1    0.0000
     31 C20       14.1306    9.3478    9.7444 C.ar      1 RES1    0.0000
     32 H12       14.2102   10.2279    9.4520 H         1 RES1    0.0000
     33 C21       12.4848    8.3114    6.7787 C.ar      1 RES1    0.0000
     34 C22       12.3494    7.7549    5.4990 C.ar      1 RES1    0.0000
     35 H13       13.1101    7.5566    5.0008 H         1 RES1    0.0000
     36 C23       11.0993    7.4980    4.9684 C.ar      1 RES1    0.0000
     37 H14       11.0125    7.1307    4.1191 H         1 RES1    0.0000
     38 C24        9.9793    7.7981    5.7218 C.ar      1 RES1    0.0000
     39 C25       10.0704    8.3026    7.0071 C.ar      1 RES1    0.0000
     40 H15        9.3052    8.4792    7.5059 H         1 RES1    0.0000
     41 C26       11.3285    8.5389    7.5324 C.ar      1 RES1    0.0000
     42 H16       11.4068    8.8558    8.4036 H         1 RES1    0.0000
     43 N1        20.0086   10.0917    8.8919 N.pl3     1 RES1    0.0000
     44 N2        14.3693   11.2116    1.3240 N.pl3     1 RES1    0.0000
     45 N3        14.2358    7.4430   12.9354 N.pl3     1 RES1    0.0000
     46 N4         8.6582    7.5779    5.1219 N.pl3     1 RES1    0.0000
     47 O1        20.6072   11.1162    8.5866 O.2       1 RES1    0.0000
     48 O2        20.4213    9.2914    9.7204 O.2       1 RES1    0.0000
     49 O3        15.3570   11.1813    0.6088 O.2       1 RES1    0.0000
     50 O4        13.3024   11.6637    0.9599 O.2       1 RES1    0.0000
     51 O5        14.2950    8.3591   13.7325 O.2       1 RES1    0.0000
     52 O6        14.2843    6.2737   13.2548 O.2       1 RES1    0.0000
     53 O7         8.6012    6.9778    4.0527 O.2       1 RES1    0.0000
     54 O8         7.6743    8.0242    5.7014 O.2       1 RES1    0.0000
@<TRIPOS>BOND
     1    1    2 2
     2    2   23 1
     3    3    1 1
     4    4    3 ar
     5    5    4 1
     6    6    4 ar
     7    7    6 1
     8    8    6 ar
     9    9    8 ar
    10   10    9 1
    11   11    3 ar
    12   12   11 1
    13   13    1 1
    14   14   13 ar
    15   15   14 1
    16   16   14 ar
    17   17   16 1
    18   18   16 ar
    19   19   18 ar
    20   20   19 1
    21   21   13 ar
    22   22   21 1
    23   23   24 ar
    24   24   25 1
    25   26   24 ar
    26   27   26 1
    27   28   26 ar
    28   29   28 ar
    29   30   29 1
    30   31   23 ar
    31   32   31 1
    32   33    2 1
    33   34   33 ar
    34   35   34 1
    35   36   34 ar
    36   37   36 1
    37   38   36 ar
    38   39   38 ar
    39   40   39 1
    40   41   33 ar
    41   42   41 1
    42   43    8 1
    43   44   18 1
    44   45   28 1
    45   46   38 1
    46   47   43 2
    47   48   43 2
    48   49   44 2
    49   50   44 2
    50   51   45 2
    51   52   45 2
    52   53   46 2
    53   54   46 2
    54    9   11 ar
    55   19   21 ar
    56   29   31 ar
    57   39   41 ar
@<TRIPOS>SUBSTRUCTURE
     1 RES1 1

@<TRIPOS>CRYSIN
  19.7145   19.7145   13.3390  90.0000  90.0000  90.0000  86 1

