# MOL2 file generated by ConQuest
# Please check atom types

@<TRIPOS>MOLECULE
ZIFMIM
    82    88     2
SMALL
NO_CHARGES
****
Generated from CSD

@<TRIPOS>ATOM
      1 C1         5.4201    5.2124    0.5047 C.ar      1 RES1    0.0000
      2 C2         4.1601    4.6697    0.5449 C.ar      1 RES1    0.0000
      3 H1         3.5322    4.8770   -0.1084 H         1 RES1    0.0000
      4 C3         3.8455    3.8118    1.5744 C.ar      1 RES1    0.0000
      5 H2         3.0032    3.4191    1.6012 H         1 RES1    0.0000
      6 C4         4.7658    3.5243    2.5745 C.ar      1 RES1    0.0000
      7 C5         6.0437    4.0748    2.4755 C.ar      1 RES1    0.0000
      8 H3         6.6832    3.8670    3.1181 H         1 RES1    0.0000
      9 C6         6.3730    4.9151    1.4459 C.ar      1 RES1    0.0000
     10 H4         7.2271    5.2794    1.3857 H         1 RES1    0.0000
     11 C7         4.4248    2.6221    3.6898 C.2       1 RES1    0.0000
     12 C8         3.2478    2.5798    4.3538 C.2       1 RES1    0.0000
     13 C9         2.0112    3.3639    4.3444 C.ar      1 RES1    0.0000
     14 C10        1.5387    4.4798    3.6710 C.ar      1 RES1    0.0000
     15 H5         2.0679    4.9146    3.0404 H         1 RES1    0.0000
     16 C11        0.2621    4.9331    3.9562 C.ar      1 RES1    0.0000
     17 H6        -0.0639    5.6769    3.5037 H         1 RES1    0.0000
     18 C12       -0.5376    4.3161    4.8893 C.ar      1 RES1    0.0000
     19 H7        -1.3939    4.6437    5.0473 H         1 RES1    0.0000
     20 C13       -0.0874    3.2221    5.5922 C.ar      1 RES1    0.0000
     21 H8        -0.6084    2.8074    6.2415 H         1 RES1    0.0000
     22 C14        1.1668    2.7784    5.2830 C.ar      1 RES1    0.0000
     23 C15        3.0114    1.5357    5.3954 C.2       1 RES1    0.0000
     24 C16        5.5569    1.7204    4.1490 C.2       1 RES1    0.0000
     25 C17        5.7260    0.3914    3.5184 C.ar      1 RES1    0.0000
     26 C18        6.5644   -0.5446    4.1128 C.ar      1 RES1    0.0000
     27 H9         7.0227   -0.3267    4.8920 H         1 RES1    0.0000
     28 C19        6.7197   -1.7918    3.5505 C.ar      1 RES1    0.0000
     29 H10        7.2626   -2.4241    3.9642 H         1 RES1    0.0000
     30 C20        6.0793   -2.1034    2.3858 C.ar      1 RES1    0.0000
     31 H11        6.1955   -2.9430    2.0029 H         1 RES1    0.0000
     32 C21        5.2584   -1.1737    1.7753 C.ar      1 RES1    0.0000
     33 H12        4.8315   -1.3872    0.9773 H         1 RES1    0.0000
     34 C22        5.0674    0.0668    2.3402 C.ar      1 RES1    0.0000
     35 H13        4.4997    0.6827    1.9359 H         1 RES1    0.0000
     36 N1         5.7630    6.0942   -0.6132 N.pl3     1 RES1    0.0000
     37 O1         6.9070    6.4623   -0.7297 O.2       1 RES1    0.0000
     38 O2         4.8987    6.4152   -1.3883 O.2       1 RES1    0.0000
     39 O3         1.7510    1.6869    5.9117 O.3       1 RES1    0.0000
     40 O4         3.7348    0.6557    5.7770 O.2       1 RES1    0.0000
     41 O5         6.3254    2.1544    4.9817 O.2       1 RES1    0.0000
     42 C23        2.0124    9.6376    5.8265 C.ar      2 RES2    0.0000
     43 C24        1.5637    8.5071    5.1959 C.ar      2 RES2    0.0000
     44 H14        1.9032    7.6704    5.4195 H         2 RES2    0.0000
     45 C25        0.5966    8.6391    4.2240 C.ar      2 RES2    0.0000
     46 H15        0.2960    7.8829    3.7741 H         2 RES2    0.0000
     47 C26        0.0604    9.8830    3.9026 C.ar      2 RES2    0.0000
     48 C27        0.5552   11.0058    4.5533 C.ar      2 RES2    0.0000
     49 H16        0.2269   11.8461    4.3337 H         2 RES2    0.0000
     50 C28        1.5314   10.8859    5.5226 C.ar      2 RES2    0.0000
     51 H17        1.8576   11.6374    5.9617 H         2 RES2    0.0000
     52 C29       -0.9588    9.9928    2.8329 C.2       2 RES2    0.0000
     53 C30       -2.0603    9.2287    2.7205 C.2       2 RES2    0.0000
     54 C31       -2.7331    8.2644    3.5894 C.ar      2 RES2    0.0000
     55 C32       -2.4920    7.6900    4.8411 C.ar      2 RES2    0.0000
     56 H18       -1.7100    7.8824    5.3057 H         2 RES2    0.0000
     57 C33       -3.4289    6.8352    5.3767 C.ar      2 RES2    0.0000
     58 H19       -3.2645    6.4386    6.2014 H         2 RES2    0.0000
     59 C34       -4.5997    6.5572    4.7207 C.ar      2 RES2    0.0000
     60 H20       -5.2195    5.9855    5.1116 H         2 RES2    0.0000
     61 C35       -4.8721    7.1112    3.4930 C.ar      2 RES2    0.0000
     62 H21       -5.6657    6.9344    3.0418 H         2 RES2    0.0000
     63 C36       -3.9245    7.9308    2.9722 C.ar      2 RES2    0.0000
     64 C37       -2.9475    9.3434    1.5262 C.2       2 RES2    0.0000
     65 C38       -0.5747   10.9781    1.7324 C.2       2 RES2    0.0000
     66 C39       -1.1297   12.3424    1.7472 C.ar      2 RES2    0.0000
     67 C40       -1.9540   12.7934    2.7606 C.ar      2 RES2    0.0000
     68 H22       -2.2050   12.2169    3.4461 H         2 RES2    0.0000
     69 C41       -2.4050   14.0963    2.7580 C.ar      2 RES2    0.0000
     70 H23       -2.9556   14.3976    3.4434 H         2 RES2    0.0000
     71 C42       -2.0462   14.9466    1.7512 C.ar      2 RES2    0.0000
     72 H24       -2.3534   15.8245    1.7538 H         2 RES2    0.0000
     73 C43       -1.2321   14.5123    0.7337 C.ar      2 RES2    0.0000
     74 H25       -0.9972   15.0943    0.0482 H         2 RES2    0.0000
     75 C44       -0.7689   13.2253    0.7283 C.ar      2 RES2    0.0000
     76 H26       -0.2105   12.9376    0.0428 H         2 RES2    0.0000
     77 N2         3.0265    9.4988    6.8735 N.pl3     2 RES2    0.0000
     78 O6         3.4280   10.4933    7.4237 O.2       2 RES2    0.0000
     79 O7         3.4088    8.3809    7.1627 O.2       2 RES2    0.0000
     80 O8        -4.0525    8.5515    1.7231 O.3       2 RES2    0.0000
     81 O9        -2.8126    9.9641    0.5195 O.2       2 RES2    0.0000
     82 O10        0.2504   10.6051    0.9238 O.2       2 RES2    0.0000
@<TRIPOS>BOND
     1    1    2 ar
     2    2    3 1
     3    4    2 ar
     4    5    4 1
     5    6    4 ar
     6    7    6 ar
     7    8    7 1
     8    9    1 ar
     9   10    9 1
    10   11    6 1
    11   12   11 2
    12   13   12 1
    13   14   13 ar
    14   15   14 1
    15   16   14 ar
    16   17   16 1
    17   18   16 ar
    18   19   18 1
    19   20   18 ar
    20   21   20 1
    21   22   13 ar
    22   23   12 1
    23   24   11 1
    24   25   24 1
    25   26   25 ar
    26   27   26 1
    27   28   26 ar
    28   29   28 1
    29   30   28 ar
    30   31   30 1
    31   32   30 ar
    32   33   32 1
    33   34   25 ar
    34   35   34 1
    35   36    1 1
    36   37   36 2
    37   38   36 2
    38   39   22 1
    39   40   23 2
    40   41   24 2
    41   42   43 ar
    42   43   44 1
    43   45   43 ar
    44   46   45 1
    45   47   45 ar
    46   48   47 ar
    47   49   48 1
    48   50   42 ar
    49   51   50 1
    50   52   47 1
    51   53   52 2
    52   54   53 1
    53   55   54 ar
    54   56   55 1
    55   57   55 ar
    56   58   57 1
    57   59   57 ar
    58   60   59 1
    59   61   59 ar
    60   62   61 1
    61   63   54 ar
    62   64   53 1
    63   65   52 1
    64   66   65 1
    65   67   66 ar
    66   68   67 1
    67   69   67 ar
    68   70   69 1
    69   71   69 ar
    70   72   71 1
    71   73   71 ar
    72   74   73 1
    73   75   66 ar
    74   76   75 1
    75   77   42 1
    76   78   77 2
    77   79   77 2
    78   80   63 1
    79   81   64 2
    80   82   65 2
    81    7    9 ar
    82   20   22 ar
    83   23   39 1
    84   32   34 ar
    85   48   50 ar
    86   61   63 ar
    87   64   80 1
    88   73   75 ar
@<TRIPOS>SUBSTRUCTURE
     1 RES1 1
     2 RES2 42

@<TRIPOS>CRYSIN
   9.4489   13.8295   15.1615 110.4280 104.0780 100.7330   2 1

