# MOL2 file generated by ConQuest
# Please check atom types

@<TRIPOS>MOLECULE
ZIFMEI
    60    64     1
SMALL
NO_CHARGES
****
Generated from CSD

@<TRIPOS>ATOM
      1 C1         1.1760    0.1627    1.7558 C.ar      1 RES1    0.0000
      2 C2         0.7079    0.4364    3.0093 C.ar      1 RES1    0.0000
      3 H1         0.2621   -0.2282    3.5205 H         1 RES1    0.0000
      4 C3         0.9014    1.7128    3.5125 C.ar      1 RES1    0.0000
      5 H2         0.6017    1.9204    4.3904 H         1 RES1    0.0000
      6 C4         1.5226    2.6888    2.7572 C.ar      1 RES1    0.0000
      7 C5         2.0139    2.3610    1.5047 C.ar      1 RES1    0.0000
      8 H3         2.4649    3.0204    0.9895 H         1 RES1    0.0000
      9 C6         1.8555    1.0808    0.9935 C.ar      1 RES1    0.0000
     10 H4         2.2075    0.8461    0.1425 H         1 RES1    0.0000
     11 C7         1.7159    4.0640    3.2744 C.2       1 RES1    0.0000
     12 C8         2.3984    4.1392    4.6256 C.2       1 RES1    0.0000
     13 C9         3.8971    4.2057    4.6973 C.3       1 RES1    0.0000
     14 H5         4.2261    4.8326    3.9918 H         1 RES1    0.0000
     15 C10        4.4829    2.8023    4.4263 C.3       1 RES1    0.0000
     16 H6         4.0744    2.1507    5.0501 H         1 RES1    0.0000
     17 H7         4.2555    2.5245    3.5036 H         1 RES1    0.0000
     18 C11        5.9972    2.7842    4.5987 C.3       1 RES1    0.0000
     19 H8         6.3264    1.8575    4.4881 H         1 RES1    0.0000
     20 H9         6.4135    3.3411    3.8952 H         1 RES1    0.0000
     21 C12        6.4112    3.2998    5.9548 C.3       1 RES1    0.0000
     22 H10        7.3995    3.3155    6.0176 H         1 RES1    0.0000
     23 H11        6.0661    2.6977    6.6603 H         1 RES1    0.0000
     24 C13        5.8644    4.7007    6.1661 C.3       1 RES1    0.0000
     25 H12        6.1346    5.0274    7.0599 H         1 RES1    0.0000
     26 H13        6.2494    5.3107    5.4875 H         1 RES1    0.0000
     27 C14        4.3555    4.7145    6.0575 C.3       1 RES1    0.0000
     28 H14        4.0239    5.6373    6.1920 H         1 RES1    0.0000
     29 H15        3.9686    4.1439    6.7690 H         1 RES1    0.0000
     30 C15        1.3041    5.1724    2.6207 C.2       1 RES1    0.0000
     31 C16        1.7146    6.5332    3.0761 C.2       1 RES1    0.0000
     32 C17        0.4366    6.7461    1.1569 C.ar      1 RES1    0.0000
     33 C18       -0.2518    7.2571    0.0787 C.ar      1 RES1    0.0000
     34 H16       -0.2769    8.1914   -0.0917 H         1 RES1    0.0000
     35 C19       -0.9016    6.3614   -0.7434 C.ar      1 RES1    0.0000
     36 H17       -1.3604    6.6841   -1.5106 H         1 RES1    0.0000
     37 C20       -0.9017    4.9979   -0.4763 C.ar      1 RES1    0.0000
     38 H18       -1.3742    4.4056   -1.0483 H         1 RES1    0.0000
     39 C21       -0.2160    4.4959    0.6198 C.ar      1 RES1    0.0000
     40 H19       -0.2239    3.5654    0.8091 H         1 RES1    0.0000
     41 C22        0.4806    5.3758    1.4359 C.ar      1 RES1    0.0000
     42 C23        1.4113    8.8452    2.1334 C.2       1 RES1    0.0000
     43 C24        2.6626    9.4023    2.6924 C.ar      1 RES1    0.0000
     44 C25        3.9052    8.8153    2.4642 C.ar      1 RES1    0.0000
     45 H20        3.9623    7.9749    2.0228 H         1 RES1    0.0000
     46 C26        5.0560    9.4580    2.8798 C.ar      1 RES1    0.0000
     47 H21        5.9059    9.0729    2.7014 H         1 RES1    0.0000
     48 C27        4.9709   10.6568    3.5524 C.ar      1 RES1    0.0000
     49 H22        5.7633   11.0917    3.8443 H         1 RES1    0.0000
     50 C28        3.7407   11.2279    3.8045 C.ar      1 RES1    0.0000
     51 H23        3.6885   12.0421    4.2908 H         1 RES1    0.0000
     52 C29        2.5847   10.6202    3.3521 C.ar      1 RES1    0.0000
     53 H24        1.7414   11.0346    3.4916 H         1 RES1    0.0000
     54 N1         0.9370   -1.1704    1.1898 N.pl3     1 RES1    0.0000
     55 N2         1.2424    7.4441    2.1115 N.am      1 RES1    0.0000
     56 O1         1.5145   -1.4712    0.1754 O.2       1 RES1    0.0000
     57 O2         0.1400   -1.8939    1.7388 O.2       1 RES1    0.0000
     58 O3         1.7086    4.0093    5.6160 O.2       1 RES1    0.0000
     59 O4         2.3278    6.8274    4.0805 O.2       1 RES1    0.0000
     60 O5         0.5742    9.5506    1.6242 O.2       1 RES1    0.0000
@<TRIPOS>BOND
     1    1    2 ar
     2    2    3 1
     3    4    2 ar
     4    5    4 1
     5    6    4 ar
     6    7    6 ar
     7    8    7 1
     8    9    1 ar
     9   10    9 1
    10   11    6 1
    11   12   11 1
    12   13   12 1
    13   14   13 1
    14   15   13 1
    15   16   15 1
    16   17   15 1
    17   18   15 1
    18   19   18 1
    19   20   18 1
    20   21   18 1
    21   22   21 1
    22   23   21 1
    23   24   21 1
    24   25   24 1
    25   26   24 1
    26   27   13 1
    27   28   27 1
    28   29   27 1
    29   30   11 2
    30   31   30 1
    31   32   33 ar
    32   33   34 1
    33   35   33 ar
    34   36   35 1
    35   37   35 ar
    36   38   37 1
    37   39   37 ar
    38   40   39 1
    39   41   30 1
    40   42   43 1
    41   43   44 ar
    42   44   45 1
    43   46   44 ar
    44   47   46 1
    45   48   46 ar
    46   49   48 1
    47   50   48 ar
    48   51   50 1
    49   52   43 ar
    50   53   52 1
    51   54    1 1
    52   55   31 1
    53   56   54 2
    54   57   54 2
    55   58   12 2
    56   59   31 2
    57   60   42 2
    58    7    9 ar
    59   24   27 1
    60   32   41 ar
    61   32   55 1
    62   39   41 ar
    63   42   55 1
    64   50   52 ar
@<TRIPOS>SUBSTRUCTURE
     1 RES1 1

@<TRIPOS>CRYSIN
  12.4059   19.6766   10.5992  90.0000 109.9270  90.0000  14 1

