# MOL2 file generated by ConQuest
# Please check atom types

@<TRIPOS>MOLECULE
ZIFVOB
   108   112     2
SMALL
USER_CHARGES
****
Generated from CSD

@<TRIPOS>ATOM
      1 O1         4.9613    5.1544   -0.6446 O.3       1 RES1    0.0000
      2 O2         6.1067   10.4222    1.4236 O.2       1 RES1   -1.0000
      3 O3         8.5827   10.6466    1.2154 O.3       1 RES1    0.0000
      4 O4         6.1989    9.0102    4.4508 O.2       1 RES1   -1.0000
      5 O5         3.6993    8.7972    4.5810 O.3       1 RES1    0.0000
      6 N1         7.5905    6.4600    1.2323 N.pl3     1 RES1    0.0000
      7 N2         5.4094    5.8310    0.4987 N.2       1 RES1    0.0000
      8 N3         6.0349    4.7828   -1.4618 N.2       1 RES1    0.0000
      9 N4         6.8736    9.4754    1.7426 N.pl3     1 RES1    1.0000
     10 N5         8.1495    9.4481    1.7058 N.2       1 RES1    0.0000
     11 N6         5.5216    8.6067    3.4672 N.pl3     1 RES1    1.0000
     12 N7         4.2582    8.4539    3.3827 N.2       1 RES1    0.0000
     13 C1         6.6992    5.8700    0.3674 C.2       1 RES1    0.0000
     14 C2         7.0881    5.2180   -0.8464 C.2       1 RES1    0.0000
     15 C3         7.1474    7.0566    2.4824 C.3       1 RES1    0.0000
     16 H1         7.9346    7.3628    3.0005 H         1 RES1    0.0000
     17 H2         6.6704    6.3775    3.0214 H         1 RES1    0.0000
     18 C4         6.2238    8.2372    2.2156 C.3       1 RES1    0.0000
     19 H3         5.5410    7.9595    1.5392 H         1 RES1    0.0000
     20 C5        10.0142   10.5803    1.0598 C.3       1 RES1    0.0000
     21 H4        10.3210   11.3443    0.5278 H         1 RES1    0.0000
     22 H5        10.2547    9.7473    0.6033 H         1 RES1    0.0000
     23 H6        10.4406   10.6053    1.9414 H         1 RES1    0.0000
     24 C6         2.2716    8.6322    4.4550 C.3       1 RES1    0.0000
     25 H7         1.8558    8.7008    5.3395 H         1 RES1    0.0000
     26 H8         2.0766    7.7525    4.0700 H         1 RES1    0.0000
     27 H9         1.9127    9.3310    3.8700 H         1 RES1    0.0000
     28 O6         2.6391   -0.7104    1.6024 O.3       2 RES2    0.0000
     29 O7         0.5383    4.4734    2.5264 O.2       2 RES2   -1.0000
     30 O8        -0.9682    4.7870    0.5668 O.3       2 RES2    0.0000
     31 O9        -1.8613    3.1201    4.4740 O.2       2 RES2   -1.0000
     32 O10       -0.2000    3.0573    6.3739 O.3       2 RES2    0.0000
     33 N8        -0.5644    0.6088    1.2101 N.pl3     2 RES2    0.0000
     34 N9         1.5158   -0.0794    2.1508 N.2       2 RES2    0.0000
     35 N10        2.4364   -0.9962    0.2406 N.2       2 RES2    0.0000
     36 N11       -0.2591    3.5626    2.1626 N.pl3     2 RES2    1.0000
     37 N12       -1.0978    3.5873    1.2020 N.2       2 RES2    0.0000
     38 N13       -0.6785    2.7144    4.3062 N.pl3     2 RES2    1.0000
     39 N14        0.2667    2.6405    5.1618 N.2       2 RES2    0.0000
     40 C7         0.6788    0.0193    1.1674 C.2       2 RES2    0.0000
     41 C8         1.2468   -0.5587   -0.0156 C.2       2 RES2    0.0000
     42 C9        -1.1108    1.1791    2.4362 C.3       2 RES2    0.0000
     43 H10       -1.1751    0.4730    3.1272 H         2 RES2    0.0000
     44 H11       -2.0231    1.5218    2.2623 H         2 RES2    0.0000
     45 C10       -0.2323    2.3138    2.9518 C.3       2 RES2    0.0000
     46 H12        0.7119    1.9890    3.0074 H         2 RES2    0.0000
     47 C11       -1.8892    4.8092   -0.5513 C.3       2 RES2    0.0000
     48 H13       -1.6896    5.5796   -1.1242 H         2 RES2    0.0000
     49 H14       -2.8074    4.8800   -0.2162 H         2 RES2    0.0000
     50 H15       -1.7936    3.9826   -1.0695 H         2 RES2    0.0000
     51 C12        0.8975    2.9373    7.3046 C.3       2 RES2    0.0000
     52 H16        0.6107    3.2437    8.1900 H         2 RES2    0.0000
     53 H17        1.6481    3.4865    6.9960 H         2 RES2    0.0000
     54 H18        1.1788    2.0006    7.3588 H         2 RES2    0.0000
     55 O1B       11.0328    6.4096    0.6446 O.3       1 RES1    0.0000
     56 O2B        9.8874    1.1418   -1.4236 O.2       1 RES1   -1.0000
     57 O3B        7.4114    0.9174   -1.2154 O.3       1 RES1    0.0000
     58 O4B        9.7952    2.5538   -4.4508 O.2       1 RES1   -1.0000
     59 O5B       12.2948    2.7668   -4.5810 O.3       1 RES1    0.0000
     60 N1B        8.4036    5.1040   -1.2323 N.3       1 RES1    0.0000
     61 N2B       10.5847    5.7330   -0.4987 N.2       1 RES1    0.0000
     62 N3B        9.9592    6.7812    1.4618 N.2       1 RES1    0.0000
     63 N4B        9.1205    2.0886   -1.7426 N.pl3     1 RES1    1.0000
     64 N5B        7.8446    2.1159   -1.7058 N.2       1 RES1    0.0000
     65 N6B       10.4725    2.9573   -3.4672 N.pl3     1 RES1    1.0000
     66 N7B       11.7359    3.1101   -3.3827 N.2       1 RES1    0.0000
     67 C1B        9.2949    5.6940   -0.3674 C.2       1 RES1    0.0000
     68 C2B        8.9060    6.3460    0.8464 C.2       1 RES1    0.0000
     69 C3B        8.8467    4.5074   -2.4824 C.3       1 RES1    0.0000
     70 H1B        8.0595    4.2012   -3.0005 H         1 RES1    0.0000
     71 H2B        9.3237    5.1865   -3.0214 H         1 RES1    0.0000
     72 C4B        9.7703    3.3268   -2.2156 C.3       1 RES1    0.0000
     73 H3B       10.4531    3.6045   -1.5392 H         1 RES1    0.0000
     74 C5B        5.9799    0.9837   -1.0598 C.3       1 RES1    0.0000
     75 H4B        5.6731    0.2197   -0.5278 H         1 RES1    0.0000
     76 H5B        5.7394    1.8167   -0.6033 H         1 RES1    0.0000
     77 H6B        5.5535    0.9587   -1.9414 H         1 RES1    0.0000
     78 C6B       13.7225    2.9318   -4.4550 C.3       1 RES1    0.0000
     79 H7B       14.1383    2.8632   -5.3395 H         1 RES1    0.0000
     80 H8B       13.9175    3.8115   -4.0700 H         1 RES1    0.0000
     81 H9B       14.0814    2.2330   -3.8700 H         1 RES1    0.0000
     82 O6B       -2.6391    0.7104   -1.6024 O.3       2 RES2    0.0000
     83 O7B       -0.5383   -4.4734   -2.5264 O.2       2 RES2   -1.0000
     84 O8B        0.9682   -4.7870   -0.5668 O.3       2 RES2    0.0000
     85 O9B        1.8613   -3.1201   -4.4740 O.2       2 RES2   -1.0000
     86 O10B       0.2000   -3.0573   -6.3739 O.3       2 RES2    0.0000
     87 N8B        0.5644   -0.6088   -1.2101 N.3       2 RES2    0.0000
     88 N9B       -1.5158    0.0794   -2.1508 N.2       2 RES2    0.0000
     89 N10B      -2.4364    0.9962   -0.2406 N.2       2 RES2    0.0000
     90 N11B       0.2591   -3.5626   -2.1626 N.pl3     2 RES2    1.0000
     91 N12B       1.0978   -3.5873   -1.2020 N.2       2 RES2    0.0000
     92 N13B       0.6785   -2.7144   -4.3062 N.pl3     2 RES2    1.0000
     93 N14B      -0.2667   -2.6405   -5.1618 N.2       2 RES2    0.0000
     94 C7B       -0.6788   -0.0193   -1.1674 C.2       2 RES2    0.0000
     95 C8B       -1.2468    0.5587    0.0156 C.2       2 RES2    0.0000
     96 C9B        1.1108   -1.1791   -2.4362 C.3       2 RES2    0.0000
     97 H10B       1.1751   -0.4730   -3.1272 H         2 RES2    0.0000
     98 H11B       2.0231   -1.5218   -2.2623 H         2 RES2    0.0000
     99 C10B       0.2323   -2.3138   -2.9518 C.3       2 RES2    0.0000
    100 H12B      -0.7119   -1.9890   -3.0074 H         2 RES2    0.0000
    101 C11B       1.8892   -4.8092    0.5513 C.3       2 RES2    0.0000
    102 H13B       1.6896   -5.5796    1.1242 H         2 RES2    0.0000
    103 H14B       2.8074   -4.8800    0.2162 H         2 RES2    0.0000
    104 H15B       1.7936   -3.9826    1.0695 H         2 RES2    0.0000
    105 C12B      -0.8975   -2.9373   -7.3046 C.3       2 RES2    0.0000
    106 H16B      -0.6107   -3.2437   -8.1900 H         2 RES2    0.0000
    107 H17B      -1.6481   -3.4865   -6.9960 H         2 RES2    0.0000
    108 H18B      -1.1788   -2.0006   -7.3588 H         2 RES2    0.0000
@<TRIPOS>BOND
     1    1    7 1
     2    2    9 1
     3    3   10 1
     4    4   11 1
     5    5   12 1
     6    6   13 1
     7    7   13 2
     8    8    1 1
     9    9   10 2
    10   11   12 2
    11   13   14 1
    12   14    8 2
    13   15    6 1
    14   16   15 1
    15   17   15 1
    16   18    9 1
    17   19   18 1
    18   20    3 1
    19   21   20 1
    20   22   20 1
    21   23   20 1
    22   24    5 1
    23   25   24 1
    24   26   24 1
    25   27   24 1
    26   28   34 1
    27   29   36 1
    28   30   37 1
    29   31   38 1
    30   32   39 1
    31   33   40 1
    32   34   40 2
    33   35   28 1
    34   36   37 2
    35   38   39 2
    36   40   41 1
    37   41   35 2
    38   42   33 1
    39   43   42 1
    40   44   42 1
    41   45   36 1
    42   46   45 1
    43   47   30 1
    44   48   47 1
    45   49   47 1
    46   50   47 1
    47   51   32 1
    48   52   51 1
    49   53   51 1
    50   54   51 1
    51   55   61 1
    52   56   63 1
    53   57   64 1
    54   58   65 1
    55   59   66 1
    56   60   14 1
    57   61   67 2
    58   62   55 1
    59   63   64 2
    60   65   66 2
    61   67   60 1
    62   68    6 1
    63   69   60 1
    64   70   69 1
    65   71   69 1
    66   72   63 1
    67   73   72 1
    68   74   57 1
    69   75   74 1
    70   76   74 1
    71   77   74 1
    72   78   59 1
    73   79   78 1
    74   80   78 1
    75   81   78 1
    76   82   88 1
    77   83   90 1
    78   84   91 1
    79   85   92 1
    80   86   93 1
    81   87   41 1
    82   88   94 2
    83   89   82 1
    84   90   91 2
    85   92   93 2
    86   94   87 1
    87   95   33 1
    88   96   87 1
    89   97   96 1
    90   98   96 1
    91   99   90 1
    92  100   99 1
    93  101   84 1
    94  102  101 1
    95  103  101 1
    96  104  101 1
    97  105   86 1
    98  106  105 1
    99  107  105 1
   100  108  105 1
   101   11   18 1
   102   15   18 1
   103   38   45 1
   104   42   45 1
   105   62   68 2
   106   65   72 1
   107   67   68 1
   108   69   72 1
   109   89   95 2
   110   92   99 1
   111   94   95 1
   112   96   99 1
@<TRIPOS>SUBSTRUCTURE
     1 RES1 1
     2 RES2 28

@<TRIPOS>CRYSIN
  15.9941   11.5640   12.5736  90.0000 112.3960  90.0000  14 1

