# MOL2 file generated by ConQuest
# Please check atom types

@<TRIPOS>MOLECULE
ZIFXET
    29    32     1
SMALL
NO_CHARGES
****
Generated from CSD

@<TRIPOS>ATOM
      1 C1         1.4935    0.8385   -1.5846 C.2       1 RES1    0.0000
      2 C2         0.3412    1.5835   -2.0339 C.2       1 RES1    0.0000
      3 N1        -0.3686    0.8125   -2.8050 N.2       1 RES1    0.0000
      4 O1         0.2731   -0.4009   -2.8591 O.3       1 RES1    0.0000
      5 N2         1.4328   -0.3791   -2.0724 N.2       1 RES1    0.0000
      6 N3         2.5419    1.2348   -0.7952 N.3       1 RES1    0.0000
      7 C3         2.4553    2.4553    0.0000 C.3       1 RES1    0.0000
      8 H1         2.4957    3.2173   -0.5862 H         1 RES1    0.0000
      9 C4         3.5611    0.2514   -0.4732 C.3       1 RES1    0.0000
     10 H2         3.8087   -0.2328   -1.2997 H         1 RES1    0.0000
     11 H3         4.3686    0.7248   -0.1512 H         1 RES1    0.0000
     12 C5        -0.1225    2.9890   -1.8032 C.3       1 RES1    0.0000
     13 H4         0.6459    3.6047   -1.9071 H         1 RES1    0.0000
     14 H5        -0.7960    3.2250   -2.4880 H         1 RES1    0.0000
     15 O2        -0.6934    3.1661   -0.5058 O.3       1 RES1    0.0000
     16 C1F        0.8385    1.4935    1.5846 C.2       1 RES1    0.0000
     17 C2F        1.5835    0.3412    2.0339 C.2       1 RES1    0.0000
     18 N1F        0.8125   -0.3686    2.8050 N.2       1 RES1    0.0000
     19 O1F       -0.4009    0.2731    2.8591 O.3       1 RES1    0.0000
     20 N2F       -0.3791    1.4328    2.0724 N.2       1 RES1    0.0000
     21 N3F        1.2348    2.5419    0.7952 N.3       1 RES1    0.0000
     22 H1F        3.2173    2.4957    0.5862 H         1 RES1    0.0000
     23 C4F        0.2514    3.5611    0.4732 C.3       1 RES1    0.0000
     24 H2F       -0.2328    3.8087    1.2997 H         1 RES1    0.0000
     25 H3F        0.7248    4.3686    0.1512 H         1 RES1    0.0000
     26 C5F        2.9890   -0.1225    1.8032 C.3       1 RES1    0.0000
     27 H4F        3.6047    0.6459    1.9071 H         1 RES1    0.0000
     28 H5F        3.2250   -0.7960    2.4880 H         1 RES1    0.0000
     29 O2F        3.1661   -0.6934    0.5058 O.3       1 RES1    0.0000
@<TRIPOS>BOND
     1    1    2 1
     2    2    3 2
     3    3    4 1
     4    4    5 1
     5    5    1 2
     6    6    1 1
     7    7    6 1
     8    8    7 1
     9    9    6 1
    10   10    9 1
    11   11    9 1
    12   12    2 1
    13   13   12 1
    14   14   12 1
    15   15   12 1
    16   16   17 1
    17   17   18 2
    18   18   19 1
    19   19   20 1
    20   20   16 2
    21   21    7 1
    22   22    7 1
    23   23   15 1
    24   24   23 1
    25   25   23 1
    26   26   17 1
    27   27   26 1
    28   28   26 1
    29   29    9 1
    30   16   21 1
    31   21   23 1
    32   26   29 1
@<TRIPOS>SUBSTRUCTURE
     1 RES1 1

@<TRIPOS>CRYSIN
   6.4141    6.4141   26.5250  90.0000  90.0000  90.0000  96 1

