# MOL2 file generated by ConQuest
# Please check atom types

@<TRIPOS>MOLECULE
ZIGDOI01
    39    39     1
SMALL
NO_CHARGES
****
Generated from CSD

@<TRIPOS>ATOM
      1 O1         5.3991    4.3839    8.4256 O.2       1 RES1    0.0000
      2 N1         4.5390    3.4281    8.4092 N.3       1 RES1    0.0000
      3 C1         3.7821    3.1780    9.6746 C.3       1 RES1    0.0000
      4 C2         4.7912    3.2519   10.8305 C.3       1 RES1    0.0000
      5 H1         5.5195    2.6163   10.6684 H         1 RES1    0.0000
      6 H2         4.3419    3.0271   11.6714 H         1 RES1    0.0000
      7 H3         5.1563    4.1601   10.8875 H         1 RES1    0.0000
      8 C3         2.7181    4.2739    9.8777 C.3       1 RES1    0.0000
      9 H4         3.1140    5.1519    9.6963 H         1 RES1    0.0000
     10 H5         2.3931    4.2467   10.8019 H         1 RES1    0.0000
     11 H6         1.9695    4.1201    9.2639 H         1 RES1    0.0000
     12 C4         3.1712    1.7695    9.6313 C.3       1 RES1    0.0000
     13 H7         3.8910    1.0999    9.7522 H         1 RES1    0.0000
     14 H8         2.5337    1.6693   10.3820 H         1 RES1    0.0000
     15 C5         2.4491    1.4921    8.3237 C.3       1 RES1    0.0000
     16 H9         1.6520    2.0878    8.2244 H         1 RES1    0.0000
     17 C6         3.3977    1.6566    7.1518 C.3       1 RES1    0.0000
     18 H10        2.9063    1.4688    6.3143 H         1 RES1    0.0000
     19 H11        4.1239    0.9889    7.2329 H         1 RES1    0.0000
     20 C7         4.0154    3.0475    7.0594 C.3       1 RES1    0.0000
     21 C8         5.1992    2.9969    6.0930 C.3       1 RES1    0.0000
     22 H12        5.6025    3.8875    6.0234 H         1 RES1    0.0000
     23 H13        4.8877    2.7098    5.2087 H         1 RES1    0.0000
     24 H14        5.8660    2.3613    6.4262 H         1 RES1    0.0000
     25 C9         3.0157    4.1104    6.5802 C.3       1 RES1    0.0000
     26 H15        2.2008    4.0608    7.1222 H         1 RES1    0.0000
     27 H16        2.7931    3.9479    5.6389 H         1 RES1    0.0000
     28 H17        3.4158    5.0000    6.6726 H         1 RES1    0.0000
     29 O2         2.0565    0.0788    8.2623 O.3       1 RES1    0.0000
     30 C10        0.9160   -0.2589    8.8828 C.2       1 RES1    0.0000
     31 O3         0.2460    0.5207    9.5172 O.2       1 RES1    0.0000
     32 C11        0.5478   -1.6956    8.7082 C.2       1 RES1    0.0000
     33 C12        1.3467   -2.5482    8.0373 C.2       1 RES1    0.0000
     34 H18        1.0943   -3.4593    7.9414 H         1 RES1    0.0000
     35 H19        2.1622   -2.2387    7.6619 H         1 RES1    0.0000
     36 C13       -0.7375   -2.1034    9.3220 C.3       1 RES1    0.0000
     37 H20       -0.8982   -3.0534    9.1429 H         1 RES1    0.0000
     38 H21       -1.4654   -1.5710    8.9375 H         1 RES1    0.0000
     39 H22       -0.6991   -1.9535   10.2896 H         1 RES1    0.0000
@<TRIPOS>BOND
     1    1    2 1
     2    2    3 1
     3    3    4 1
     4    4    5 1
     5    6    4 1
     6    7    4 1
     7    8    3 1
     8    9    8 1
     9   10    8 1
    10   11    8 1
    11   12    3 1
    12   13   12 1
    13   14   12 1
    14   15   12 1
    15   16   15 1
    16   17   15 1
    17   18   17 1
    18   19   17 1
    19   20    2 1
    20   21   20 1
    21   22   21 1
    22   23   21 1
    23   24   21 1
    24   25   20 1
    25   26   25 1
    26   27   25 1
    27   28   25 1
    28   29   15 1
    29   30   29 1
    30   31   30 2
    31   32   30 1
    32   33   32 2
    33   34   33 1
    34   35   33 1
    35   36   32 1
    36   37   36 1
    37   38   36 1
    38   39   36 1
    39   17   20 1
@<TRIPOS>SUBSTRUCTURE
     1 RES1 1

@<TRIPOS>CRYSIN
   5.9486    9.7334   11.6869  90.0000 102.4950  90.0000   4 1

