# MOL2 file generated by ConQuest
# Please check atom types

@<TRIPOS>MOLECULE
ZIGDUO
    36    36     1
SMALL
NO_CHARGES
****
Generated from CSD

@<TRIPOS>ATOM
      1 O1         2.7241    2.8135    5.7177 O.2       1 RES1    0.0000
      2 O2        -0.4199    2.8473   10.1390 O.3       1 RES1    0.0000
      3 O3        -2.2797    1.9920    9.8274 O.2       1 RES1    0.0000
      4 N1         1.9362    2.9148    6.7310 N.3       1 RES1    0.0000
      5 C1         1.3249    4.1865    7.0943 C.3       1 RES1    0.0000
      6 C2         0.7525    4.0965    8.4976 C.3       1 RES1    0.0000
      7 C3        -0.0535    2.9823    8.7337 C.3       1 RES1    0.0000
      8 C4         0.7881    1.6543    8.4986 C.3       1 RES1    0.0000
      9 C5         1.3699    1.5756    7.0742 C.3       1 RES1    0.0000
     10 C6         0.2749    4.5691    6.1086 C.3       1 RES1    0.0000
     11 C7         2.4481    5.1656    7.0455 C.3       1 RES1    0.0000
     12 C8         0.2660    1.1929    6.0513 C.3       1 RES1    0.0000
     13 C9         2.4674    0.4952    7.0742 C.3       1 RES1    0.0000
     14 C10       -1.5899    2.9260   10.5357 C.2       1 RES1    0.0000
     15 C11       -1.8534    2.8248   11.9468 C.2       1 RES1    0.0000
     16 C12       -3.0429    2.8248   12.4563 C.2       1 RES1    0.0000
     17 H1         1.4771    4.0593    9.1094 H         1 RES1    0.0000
     18 H2         0.2296    4.8640    8.6592 H         1 RES1    0.0000
     19 H3        -0.8252    2.9879    8.1821 H         1 RES1    0.0000
     20 H4         1.4989    1.6048    9.1266 H         1 RES1    0.0000
     21 H5         0.2158    0.8868    8.6334 H         1 RES1    0.0000
     22 H6        -0.0231    5.4447    6.2817 H         1 RES1    0.0000
     23 H7         0.6435    4.5219    5.2282 H         1 RES1    0.0000
     24 H8        -0.4550    3.9592    6.1679 H         1 RES1    0.0000
     25 H9         3.1292    4.8854    7.6497 H         1 RES1    0.0000
     26 H10        2.7965    5.2005    6.1679 H         1 RES1    0.0000
     27 H11        2.1295    6.0198    7.3036 H         1 RES1    0.0000
     28 H12       -0.4536    1.7984    6.1134 H         1 RES1    0.0000
     29 H13        0.6246    1.1974    5.1737 H         1 RES1    0.0000
     30 H14       -0.0554    0.3050    6.2444 H         1 RES1    0.0000
     31 H15        2.0963   -0.3523    7.3218 H         1 RES1    0.0000
     32 H16        2.8374    0.4108    6.1928 H         1 RES1    0.0000
     33 H17        3.1573    0.7214    7.6793 H         1 RES1    0.0000
     34 H18       -1.1117    2.7370   12.5375 H         1 RES1    0.0000
     35 H19       -3.1560    2.7381   13.3960 H         1 RES1    0.0000
     36 H20       -3.8003    2.8878   11.8894 H         1 RES1    0.0000
@<TRIPOS>BOND
     1    1    4 1
     2    2    7 1
     3    3   14 2
     4    4    5 1
     5    5    6 1
     6    6    7 1
     7    7    8 1
     8    8    9 1
     9    9    4 1
    10   10    5 1
    11   11    5 1
    12   12    9 1
    13   13    9 1
    14   14    2 1
    15   15   14 1
    16   16   15 2
    17   17    6 1
    18   18    6 1
    19   19    7 1
    20   20    8 1
    21   21    8 1
    22   22   10 1
    23   23   10 1
    24   24   10 1
    25   25   11 1
    26   26   11 1
    27   27   11 1
    28   28   12 1
    29   29   12 1
    30   30   12 1
    31   31   13 1
    32   32   13 1
    33   33   13 1
    34   34   15 1
    35   35   16 1
    36   36   16 1
@<TRIPOS>SUBSTRUCTURE
     1 RES1 1

@<TRIPOS>CRYSIN
   5.9650   11.2540    9.6770  90.0000  98.9300  90.0000   4 1

