# MOL2 file generated by ConQuest
# Please check atom types

@<TRIPOS>MOLECULE
ZIGDOI
    39    39     1
SMALL
NO_CHARGES
****
Generated from CSD

@<TRIPOS>ATOM
      1 O1        -1.9003    2.4425    3.0263 O.2       1 RES1    0.0000
      2 O2         1.4111   -1.8934    3.1351 O.3       1 RES1    0.0000
      3 O3         3.2554   -1.4313    2.0272 O.2       1 RES1    0.0000
      4 N1        -1.0565    1.4626    3.0321 N.3       1 RES1    0.0000
      5 C1        -0.5530    1.0464    4.3831 C.3       1 RES1    0.0000
      6 C2         0.0732   -0.3380    4.2627 C.3       1 RES1    0.0000
      7 C3         1.0048   -0.4895    3.0865 C.3       1 RES1    0.0000
      8 C4         0.2834   -0.2179    1.7991 C.3       1 RES1    0.0000
      9 C5        -0.3329    1.1949    1.7505 C.3       1 RES1    0.0000
     10 C6         0.4623    2.0878    4.8694 C.3       1 RES1    0.0000
     11 C7        -1.7415    0.9711    5.3336 C.3       1 RES1    0.0000
     12 C8         0.7443    2.2793    1.5490 C.3       1 RES1    0.0000
     13 C9        -1.3484    1.2564    0.6124 C.3       1 RES1    0.0000
     14 C10        2.5801   -2.2197    2.6026 C.2       1 RES1    0.0000
     15 C11        2.9302   -3.6423    2.7484 C.2       1 RES1    0.0000
     16 C12        2.1027   -4.4971    3.3840 C.2       1 RES1    0.0000
     17 C13        4.2136   -4.0360    2.2031 C.3       1 RES1    0.0000
     18 H1         0.5574   -0.4103    5.1403 H         1 RES1    0.0000
     19 H2        -0.6598   -0.8891    4.1099 H         1 RES1    0.0000
     20 H3         1.9236    0.1075    3.1374 H         1 RES1    0.0000
     21 H4         0.9099   -0.2345    0.9609 H         1 RES1    0.0000
     22 H5        -0.4035   -0.8793    1.7829 H         1 RES1    0.0000
     23 H6         1.4276    2.0615    4.4920 H         1 RES1    0.0000
     24 H7         0.6815    1.9833    5.8233 H         1 RES1    0.0000
     25 H8         0.0728    2.9115    4.8740 H         1 RES1    0.0000
     26 H9        -2.3969    0.5471    4.9550 H         1 RES1    0.0000
     27 H10       -2.2315    1.7098    5.4413 H         1 RES1    0.0000
     28 H11       -1.3229    0.5569    6.3212 H         1 RES1    0.0000
     29 H12        0.4125    3.1850    1.7713 H         1 RES1    0.0000
     30 H13        1.5212    2.1592    2.1302 H         1 RES1    0.0000
     31 H14        1.0154    2.2666    0.6599 H         1 RES1    0.0000
     32 H15       -1.7033    2.0126    0.5094 H         1 RES1    0.0000
     33 H16       -2.1318    0.7523    0.7294 H         1 RES1    0.0000
     34 H17       -0.9205    1.1529   -0.2431 H         1 RES1    0.0000
     35 H18        2.3403   -5.4155    3.4697 H         1 RES1    0.0000
     36 H19        1.2797   -4.1864    3.7394 H         1 RES1    0.0000
     37 H20        4.0856   -4.7170    1.5502 H         1 RES1    0.0000
     38 H21        4.7648   -4.3750    2.9024 H         1 RES1    0.0000
     39 H22        4.6332   -3.2876    1.8026 H         1 RES1    0.0000
@<TRIPOS>BOND
     1    1    4 1
     2    2    7 1
     3    3   14 2
     4    4    5 1
     5    5    6 1
     6    6    7 1
     7    7    8 1
     8    8    9 1
     9    9    4 1
    10   10    5 1
    11   11    5 1
    12   12    9 1
    13   13    9 1
    14   14    2 1
    15   15   14 1
    16   16   15 2
    17   17   15 1
    18   18    6 1
    19   19    6 1
    20   20    7 1
    21   21    8 1
    22   22    8 1
    23   23   10 1
    24   24   10 1
    25   25   10 1
    26   26   11 1
    27   27   11 1
    28   28   11 1
    29   29   12 1
    30   30   12 1
    31   31   12 1
    32   32   13 1
    33   33   13 1
    34   34   13 1
    35   35   16 1
    36   36   16 1
    37   37   17 1
    38   38   17 1
    39   39   17 1
@<TRIPOS>SUBSTRUCTURE
     1 RES1 1

@<TRIPOS>CRYSIN
   6.0710    9.7700   11.8280  90.0000 101.8200  90.0000   4 1

