# MOL2 file generated by ConQuest
# Please check atom types

@<TRIPOS>MOLECULE
ZIHHOQ
    45    47     1
SMALL
USER_CHARGES
****
Generated from CSD

@<TRIPOS>ATOM
      1 O1         9.0771    7.2554   -4.3001 O.2       1 RES1    0.0000
      2 O2         8.0611    7.7923   -2.4141 O.3       1 RES1    0.0000
      3 O3         9.4308    4.3571   -4.0721 O.2       1 RES1    0.0000
      4 O4        11.4042    4.7177   -3.1568 O.3       1 RES1    0.0000
      5 O5        11.4724    6.2327    0.7211 O.2       1 RES1   -1.0000
      6 N1        10.6577    6.0271   -0.2568 N.pl3     1 RES1    1.0000
      7 C1        10.6493    6.6219   -1.4299 C.2       1 RES1    0.0000
      8 C2         9.5976    6.0022   -2.3267 C.3       1 RES1    0.0000
      9 C3         8.7008    5.2677   -1.2964 C.3       1 RES1    0.0000
     10 H1         7.9834    5.8445   -0.9903 H         1 RES1    0.0000
     11 H2         8.3168    4.4657   -1.6827 H         1 RES1    0.0000
     12 C4         9.6424    4.9199   -0.1500 C.3       1 RES1    0.0000
     13 H3        10.0795    4.0645   -0.3441 H         1 RES1    0.0000
     14 C5         9.0120    4.8522    1.2122 C.ar      1 RES1    0.0000
     15 C6         9.0252    3.6660    1.9241 C.ar      1 RES1    0.0000
     16 H4         9.4514    2.9182    1.5707 H         1 RES1    0.0000
     17 C7         8.4077    3.5871    3.1557 C.ar      1 RES1    0.0000
     18 H5         8.4063    2.7834    3.6242 H         1 RES1    0.0000
     19 C8         7.8002    4.6888    3.6899 C.ar      1 RES1    0.0000
     20 H6         7.3966    4.6370    4.5261 H         1 RES1    0.0000
     21 C9         7.7835    5.8676    2.9986 C.ar      1 RES1    0.0000
     22 H7         7.3612    6.6118    3.3612 H         1 RES1    0.0000
     23 C10        8.3906    5.9544    1.7638 C.ar      1 RES1    0.0000
     24 H8         8.3819    6.7613    1.3005 H         1 RES1    0.0000
     25 C11       11.5668    7.7169   -1.7648 C.ar      1 RES1    0.0000
     26 C12       11.9159    8.6820   -0.8239 C.ar      1 RES1    0.0000
     27 H9        11.5403    8.6453    0.0257 H         1 RES1    0.0000
     28 C13       12.8015    9.6855   -1.1238 C.ar      1 RES1    0.0000
     29 H10       13.0286   10.3154   -0.4787 H         1 RES1    0.0000
     30 C14       13.3518    9.7556   -2.3771 C.ar      1 RES1    0.0000
     31 H11       13.9482   10.4390   -2.5846 H         1 RES1    0.0000
     32 C15       13.0258    8.8287   -3.3170 C.ar      1 RES1    0.0000
     33 H12       13.4118    8.8736   -4.1625 H         1 RES1    0.0000
     34 C16       12.1292    7.8238   -3.0253 C.ar      1 RES1    0.0000
     35 H13       11.8980    7.2092   -3.6848 H         1 RES1    0.0000
     36 C17        8.8744    7.0653   -3.1475 C.2       1 RES1    0.0000
     37 C18        7.3682    8.8712   -3.0972 C.3       1 RES1    0.0000
     38 H14        6.8381    8.5099   -3.8111 H         1 RES1    0.0000
     39 H15        8.0108    9.4871   -3.4567 H         1 RES1    0.0000
     40 H16        6.7990    9.3297   -2.4757 H         1 RES1    0.0000
     41 C19       10.1222    4.9312   -3.2934 C.2       1 RES1    0.0000
     42 C20       11.9779    3.6444   -3.9437 C.3       1 RES1    0.0000
     43 H17       11.8561    3.8318   -4.8774 H         1 RES1    0.0000
     44 H18       11.5418    2.8184   -3.7238 H         1 RES1    0.0000
     45 H19       12.9161    3.5725   -3.7516 H         1 RES1    0.0000
@<TRIPOS>BOND
     1    1   36 2
     2    2   36 1
     3    3   41 2
     4    4   41 1
     5    5    6 1
     6    6    7 2
     7    7    8 1
     8    8    9 1
     9    9   10 1
    10   11    9 1
    11   12    6 1
    12   13   12 1
    13   14   12 1
    14   15   14 ar
    15   16   15 1
    16   17   15 ar
    17   18   17 1
    18   19   17 ar
    19   20   19 1
    20   21   19 ar
    21   22   21 1
    22   23   14 ar
    23   24   23 1
    24   25    7 1
    25   26   25 ar
    26   27   26 1
    27   28   26 ar
    28   29   28 1
    29   30   28 ar
    30   31   30 1
    31   32   30 ar
    32   33   32 1
    33   34   25 ar
    34   35   34 1
    35   36    8 1
    36   37    2 1
    37   38   37 1
    38   39   37 1
    39   40   37 1
    40   41    8 1
    41   42    4 1
    42   43   42 1
    43   44   42 1
    44   45   42 1
    45    9   12 1
    46   21   23 ar
    47   32   34 ar
@<TRIPOS>SUBSTRUCTURE
     1 RES1 1

@<TRIPOS>CRYSIN
   9.6830    9.7460   11.1670  68.9000  72.8700  64.6700   2 1

