# MOL2 file generated by ConQuest
# Please check atom types

@<TRIPOS>MOLECULE
ZIKHEG
    86    82     3
SMALL
NO_CHARGES
****
Generated from CSD

@<TRIPOS>ATOM
      1 N1         5.1746   -1.2790    2.2188 N.ar      1 RES1    0.0000
      2 C1         5.9917   -0.6570    1.3684 C.ar      1 RES1    0.0000
      3 C2         6.0436   -1.2926    0.0131 C.3       1 RES1    0.0000
      4 H1         5.4368   -2.0362   -0.0235 H         1 RES1    0.0000
      5 H2         5.7879   -0.6398   -0.6437 H         1 RES1    0.0000
      6 H3         6.9346   -1.5974   -0.1701 H         1 RES1    0.0000
      7 C3         6.7644    0.4187    1.7478 C.ar      1 RES1    0.0000
      8 C4         7.7036    1.1058    0.7745 C.2       1 RES1    0.0000
      9 O1         8.8695    1.2890    0.9762 O.2       1 RES1    0.0000
     10 O2         7.0441    1.5223   -0.2826 O.3       1 RES1    0.0000
     11 C5         7.8473    2.1027   -1.3344 C.3       1 RES1    0.0000
     12 H4         7.2993    2.3518   -2.0827 H         1 RES1    0.0000
     13 H5         8.2421    2.8900   -0.9524 H         1 RES1    0.0000
     14 H6         8.5424    1.5087   -1.6301 H         1 RES1    0.0000
     15 C6         6.7398    0.8767    3.0796 C.ar      1 RES1    0.0000
     16 C7         5.8464    0.2212    3.9457 C.ar      1 RES1    0.0000
     17 C8         5.7614    0.6470    5.3873 C.2       1 RES1    0.0000
     18 C9         5.0568    2.3919    6.8212 C.3       1 RES1    0.0000
     19 H7         4.6371    3.2557    6.8212 H         1 RES1    0.0000
     20 H8         4.5334    1.7835    7.3497 H         1 RES1    0.0000
     21 H9         5.9386    2.4634    7.1927 H         1 RES1    0.0000
     22 O3         6.1271   -0.0086    6.3031 O.2       1 RES1    0.0000
     23 O4         5.1904    1.8172    5.4946 O.3       1 RES1    0.0000
     24 C10        5.1084   -0.8638    3.4773 C.ar      1 RES1    0.0000
     25 C11        4.1603   -1.5738    4.4035 C.3       1 RES1    0.0000
     26 H10        4.1772   -1.1888    5.2827 H         1 RES1    0.0000
     27 H11        3.2748   -1.5058    4.0399 H         1 RES1    0.0000
     28 H12        4.4164   -2.4978    4.4533 H         1 RES1    0.0000
     29 C12        7.5885    2.0097    3.5584 C.ar      1 RES1    0.0000
     30 C13        7.2385    3.2922    3.3700 C.ar      1 RES1    0.0000
     31 H13        6.4699    3.5055    2.8363 H         1 RES1    0.0000
     32 C14        7.9816    4.3192    3.8959 C.ar      1 RES1    0.0000
     33 H14        7.7149    5.2346    3.7782 H         1 RES1    0.0000
     34 C15        9.1202    4.0544    4.6390 C.ar      1 RES1    0.0000
     35 H15        9.6568    4.7608    5.0053 H         1 RES1    0.0000
     36 C16        9.5029    2.7583    4.8300 C.ar      1 RES1    0.0000
     37 H16       10.2770    2.5622    5.3638 H         1 RES1    0.0000
     38 C17        8.7616    1.7413    4.2884 C.ar      1 RES1    0.0000
     39 N2         9.1064    0.3607    4.4219 N.2       1 RES1    0.0000
     40 O5        10.0673    0.1861    5.0472 O.2       1 RES1    0.0000
     41 N3         1.1519    1.7134   -1.0021 N.ar      2 RES2    0.0000
     42 C18        0.0668    2.3532   -1.4495 C.ar      2 RES2    0.0000
     43 C19       -1.2215    1.7900   -0.9262 C.3       2 RES2    0.0000
     44 H17       -1.0765    1.0778   -0.2983 H         2 RES2    0.0000
     45 H18       -1.7082    2.4985   -0.4971 H         2 RES2    0.0000
     46 H19       -1.7295    1.4607   -1.6719 H         2 RES2    0.0000
     47 C20        0.1245    3.3609   -2.3575 C.ar      2 RES2    0.0000
     48 C21       -1.1253    3.9084   -2.9776 C.2       2 RES2    0.0000
     49 C22       -3.0997    5.1530   -2.6767 C.3       2 RES2    0.0000
     50 H20       -2.8463    5.6626   -3.4485 H         2 RES2    0.0000
     51 H21       -3.7130    4.4602   -2.9383 H         2 RES2    0.0000
     52 H22       -3.0447    6.3010   -2.2999 H         2 RES2    0.0000
     53 O6        -1.5213    3.5900   -4.0399 O.2       2 RES2    0.0000
     54 O7        -1.6282    4.7165   -2.0513 O.3       2 RES2    0.0000
     55 C23        1.3527    3.8347   -2.8258 C.ar      2 RES2    0.0000
     56 C24        2.4976    3.2006   -2.3444 C.ar      2 RES2    0.0000
     57 C25        3.8787    3.5620   -2.8781 C.2       2 RES2    0.0000
     58 C26        5.2293    5.3298   -3.5558 C.3       2 RES2    0.0000
     59 H23        5.2331    6.2889   -3.5977 H         2 RES2    0.0000
     60 H24        5.9853    5.0292   -3.0456 H         2 RES2    0.0000
     61 H25        5.2815    4.9713   -4.4454 H         2 RES2    0.0000
     62 O8         4.7047    2.7533   -3.1973 O.2       2 RES2    0.0000
     63 O9         4.0223    4.8682   -2.9069 O.3       2 RES2    0.0000
     64 C27        2.3582    2.1407   -1.4548 C.ar      2 RES2    0.0000
     65 C28        3.5139    1.3240   -0.9393 C.3       2 RES2    0.0000
     66 H26        3.1486    0.6277   -0.3899 H         2 RES2    0.0000
     67 H27        4.0161    0.9333   -1.6615 H         2 RES2    0.0000
     68 H28        4.0936    1.8794   -0.4134 H         2 RES2    0.0000
     69 C29        1.3743    4.9505   -3.7991 C.ar      2 RES2    0.0000
     70 C30        1.1113    6.2223   -3.4119 C.ar      2 RES2    0.0000
     71 H29        0.8864    6.3941   -2.4935 H         2 RES2    0.0000
     72 C31        1.0908    7.2536   -4.3224 C.ar      2 RES2    0.0000
     73 H30        0.8916    8.1304   -3.9849 H         2 RES2    0.0000
     74 C32        1.3553    7.0325   -5.6595 C.ar      2 RES2    0.0000
     75 H31        1.3956    7.7718   -6.2717 H         2 RES2    0.0000
     76 C33        1.5748    5.7528   -6.0781 C.ar      2 RES2    0.0000
     77 H32        1.7125    5.5517   -7.0069 H         2 RES2    0.0000
     78 C34        1.6189    4.7072   -5.1702 C.ar      2 RES2    0.0000
     79 N4         1.8582    3.3552   -5.5234 N.2       2 RES2    0.0000
     80 O10        2.1040    3.1706   -6.7060 O.2       2 RES2    0.0000
     81 O11       10.2478    0.1360    4.8797 Du        3 SUP3    0.0000
     82 H33       -3.5217    5.7270   -2.0356 Du        3 SUP3    0.0000
     83 C35       -2.7008    5.6970   -2.9619 Du        3 SUP3    0.0000
     84 H34       -2.3674    6.1972   -3.7102 Du        3 SUP3    0.0000
     85 H35       -3.4030    5.1115   -3.2575 Du        3 SUP3    0.0000
     86 O12       -1.8089    4.8596   -2.3548 Du        3 SUP3    0.0000
@<TRIPOS>BOND
     1    1    2 ar
     2    2    3 1
     3    3    4 1
     4    5    3 1
     5    6    3 1
     6    7    2 ar
     7    8    7 1
     8    9    8 2
     9   10    8 1
    10   11   10 1
    11   12   11 1
    12   13   11 1
    13   14   11 1
    14   15    7 ar
    15   16   15 ar
    16   17   16 1
    17   18   19 1
    18   20   18 1
    19   21   18 1
    20   22   17 2
    21   23   17 1
    22   24    1 ar
    23   25   24 1
    24   26   25 1
    25   27   25 1
    26   28   25 1
    27   29   15 1
    28   30   29 ar
    29   31   30 1
    30   32   30 ar
    31   33   32 1
    32   34   32 ar
    33   35   34 1
    34   36   34 ar
    35   37   36 1
    36   38   29 ar
    37   39   38 1
    38   40   39 2
    39   41   42 ar
    40   42   43 1
    41   43   44 1
    42   45   43 1
    43   46   43 1
    44   47   42 ar
    45   48   47 1
    46   49   50 1
    47   51   49 1
    48   52   49 1
    49   53   48 2
    50   54   48 1
    51   55   47 ar
    52   56   55 ar
    53   57   56 1
    54   58   59 1
    55   60   58 1
    56   61   58 1
    57   62   57 2
    58   63   57 1
    59   64   41 ar
    60   65   64 1
    61   66   65 1
    62   67   65 1
    63   68   65 1
    64   69   55 1
    65   70   69 ar
    66   71   70 1
    67   72   70 ar
    68   73   72 1
    69   74   72 ar
    70   75   74 1
    71   76   74 ar
    72   77   76 1
    73   78   69 ar
    74   79   78 1
    75   80   79 2
    76   16   24 ar
    77   18   23 1
    78   36   38 ar
    79   49   54 1
    80   56   64 ar
    81   58   63 1
    82   76   78 ar
@<TRIPOS>SUBSTRUCTURE
     1 RES1 1
     2 RES2 41
     3 SUP3 81

@<TRIPOS>CRYSIN
  18.1710    7.1570   26.1650  90.0000  90.2000  90.0000  14 1

