# MOL2 file generated by ConQuest
# Please check atom types

@<TRIPOS>MOLECULE
ZIKKUZ
    22    22     1
SMALL
NO_CHARGES
****
Generated from CSD

@<TRIPOS>ATOM
      1 O1         7.8206    9.8741    1.3500 O.2       1 RES1    0.0000
      2 O2         6.5918    8.9795   -0.1548 O.2       1 RES1    0.0000
      3 O3         4.6966   11.3292   -0.4174 O.2       1 RES1    0.0000
      4 O4         5.0069   12.9507   -2.9617 O.2       1 RES1    0.0000
      5 O5         6.5698   13.8809   -4.0703 O.2       1 RES1    0.0000
      6 O6         9.9500   10.7268    0.0507 O.3       1 RES1    0.0000
      7 N1         7.3606    9.8487    0.2424 N.pl3     1 RES1    0.0000
      8 N2         6.1717   13.1159   -3.2031 N.pl3     1 RES1    0.0000
      9 C1         6.7662   11.4499   -1.5205 C.ar      1 RES1    0.0000
     10 C2         7.1632   12.4081   -2.4254 C.ar      1 RES1    0.0000
     11 C3         8.5051   12.7665   -2.5507 C.ar      1 RES1    0.0000
     12 C4         9.4444   12.2048   -1.7462 C.ar      1 RES1    0.0000
     13 C5         9.0852   11.2885   -0.7907 C.ar      1 RES1    0.0000
     14 C6         7.7359   10.9085   -0.7077 C.ar      1 RES1    0.0000
     15 C7         5.3177   10.9784   -1.3896 C.2       1 RES1    0.0000
     16 C8         4.7797   10.0482   -2.4309 C.3       1 RES1    0.0000
     17 H1         8.7626   13.4501   -3.1995 H         1 RES1    0.0000
     18 H2        10.3572   12.4538   -1.8780 H         1 RES1    0.0000
     19 H3        10.9805   11.0509   -0.0442 H         1 RES1    0.0000
     20 H4         5.4352    9.1663   -2.4503 H         1 RES1    0.0000
     21 H5         3.7218    9.7801   -2.1646 H         1 RES1    0.0000
     22 H6         4.8884   10.2909   -3.4907 H         1 RES1    0.0000
@<TRIPOS>BOND
     1    1    7 2
     2    2    7 2
     3    3   15 2
     4    4    8 2
     5    5    8 2
     6    6   13 1
     7    7   14 1
     8    8   10 1
     9    9   10 ar
    10   10   11 ar
    11   11   12 ar
    12   12   13 ar
    13   13   14 ar
    14   14    9 ar
    15   15    9 1
    16   16   15 1
    17   17   11 1
    18   18   12 1
    19   19    6 1
    20   20   16 1
    21   21   16 1
    22   22   16 1
@<TRIPOS>SUBSTRUCTURE
     1 RES1 1

@<TRIPOS>CRYSIN
   7.8130   12.7080    9.3920  90.0000 101.1400  90.0000  14 1

