# MOL2 file generated by ConQuest
# Please check atom types

@<TRIPOS>MOLECULE
ZIKNIQ
    63    65     1
SMALL
NO_CHARGES
****
Generated from CSD

@<TRIPOS>ATOM
      1 O1         1.6291    6.7347    6.6578 O.2       1 RES1    0.0000
      2 O2        -0.3273    6.7479    9.5874 O.2       1 RES1    0.0000
      3 O3         1.2127    5.4130   10.6065 O.3       1 RES1    0.0000
      4 O4         0.5729    8.6935    6.5427 O.3       1 RES1    0.0000
      5 O5         3.5841    7.9844    0.0025 O.2       1 RES1    0.0000
      6 O6         4.4222    9.8037    0.8288 O.2       1 RES1    0.0000
      7 N1         1.8909    7.1156    9.4196 N.am      1 RES1    0.0000
      8 N2         3.6377    8.8769    0.8488 N.pl3     1 RES1    0.0000
      9 N3         1.9701   11.2227    8.1026 N.2       1 RES1    0.0000
     10 N4         3.5769   12.3101    7.0384 N.pl3     1 RES1    0.0000
     11 C1         1.7541    8.2679    8.5358 C.3       1 RES1    0.0000
     12 C2         3.0944    9.0068    8.4982 C.3       1 RES1    0.0000
     13 C3         3.0467   10.3794    7.8923 C.2       1 RES1    0.0000
     14 C4         4.0279   11.0262    7.2337 C.2       1 RES1    0.0000
     15 C5         2.3488   12.3610    7.5768 C.2       1 RES1    0.0000
     16 C6         1.3387    7.7861    7.1486 C.2       1 RES1    0.0000
     17 C7         0.8086    6.4495    9.8628 C.2       1 RES1    0.0000
     18 C8         0.2461    4.4828   11.2349 C.3       1 RES1    0.0000
     19 C9        -0.6170    3.8140   10.1883 C.3       1 RES1    0.0000
     20 C10        1.1747    3.4797   11.8759 C.3       1 RES1    0.0000
     21 C11       -0.5879    5.2393   12.2565 C.3       1 RES1    0.0000
     22 C12        0.0353    8.3100    5.2532 C.3       1 RES1    0.0000
     23 C13        1.0208    8.4776    4.1189 C.ar      1 RES1    0.0000
     24 C14        0.8527    7.6676    3.0047 C.ar      1 RES1    0.0000
     25 C15        1.6940    7.8063    1.9255 C.ar      1 RES1    0.0000
     26 C16        2.7024    8.7514    1.9881 C.ar      1 RES1    0.0000
     27 C17        2.8698    9.5729    3.0623 C.ar      1 RES1    0.0000
     28 C18        2.0251    9.4263    4.1539 C.ar      1 RES1    0.0000
     29 C19        4.3261   13.4106    6.4275 C.3       1 RES1    0.0000
     30 C20        4.4655   13.2676    4.9226 C.ar      1 RES1    0.0000
     31 C21        3.5122   13.7845    4.0813 C.ar      1 RES1    0.0000
     32 C22        3.6474   13.6423    2.7067 C.ar      1 RES1    0.0000
     33 C23        4.7399   12.9946    2.1859 C.ar      1 RES1    0.0000
     34 C24        5.7016   12.4777    3.0097 C.ar      1 RES1    0.0000
     35 C25        5.5567   12.6260    4.3868 C.ar      1 RES1    0.0000
     36 H1         2.6183    6.8539    9.5769 H         1 RES1    0.0000
     37 H2         1.0461    8.7653    8.8385 H         1 RES1    0.0000
     38 H3         3.7446    8.4622    8.0082 H         1 RES1    0.0000
     39 H4         3.4706    9.0491    9.5083 H         1 RES1    0.0000
     40 H5         4.8604   10.7823    6.8822 H         1 RES1    0.0000
     41 H6         1.8339   13.0738    7.6551 H         1 RES1    0.0000
     42 H7        -0.1234    3.5361    9.4792 H         1 RES1    0.0000
     43 H8        -1.2000    4.3790    9.7814 H         1 RES1    0.0000
     44 H9        -1.2038    3.1639   10.6448 H         1 RES1    0.0000
     45 H10        0.7129    2.8160   12.3780 H         1 RES1    0.0000
     46 H11        1.6785    4.0580   12.4894 H         1 RES1    0.0000
     47 H12        1.9055    2.9508   11.2284 H         1 RES1    0.0000
     48 H13       -1.2264    4.6413   12.7052 H         1 RES1    0.0000
     49 H14       -1.2516    5.7701   11.7360 H         1 RES1    0.0000
     50 H15       -0.0511    5.6418   12.7986 H         1 RES1    0.0000
     51 H16       -0.8560    8.8341    5.1675 H         1 RES1    0.0000
     52 H17       -0.2275    7.3246    5.3025 H         1 RES1    0.0000
     53 H18        0.1396    7.0832    2.9606 H         1 RES1    0.0000
     54 H19        1.5197    7.2009    1.2169 H         1 RES1    0.0000
     55 H20        3.5460   10.1631    3.0683 H         1 RES1    0.0000
     56 H21        2.1266   10.0006    4.8813 H         1 RES1    0.0000
     57 H22        3.8494   14.1830    6.6686 H         1 RES1    0.0000
     58 H23        5.2150   13.4588    6.9275 H         1 RES1    0.0000
     59 H24        2.7233   14.1500    4.4719 H         1 RES1    0.0000
     60 H25        2.9253   13.9736    2.1458 H         1 RES1    0.0000
     61 H26        4.8327   12.9359    1.3008 H         1 RES1    0.0000
     62 H27        6.4910   11.7920    2.6481 H         1 RES1    0.0000
     63 H28        6.2312   12.2465    4.9692 H         1 RES1    0.0000
@<TRIPOS>BOND
     1    1   16 2
     2    2   17 2
     3    3   17 1
     4    4   16 1
     5    5    8 2
     6    6    8 2
     7    7   11 1
     8    8   26 1
     9    9   13 1
    10   10   14 1
    11   11   12 1
    12   12   13 1
    13   13   14 2
    14   14   40 1
    15   15    9 2
    16   16   11 1
    17   17    7 1
    18   18    3 1
    19   19   18 1
    20   20   18 1
    21   21   18 1
    22   22    4 1
    23   23   22 1
    24   24   23 ar
    25   25   24 ar
    26   26   25 ar
    27   27   26 ar
    28   28   23 ar
    29   29   10 1
    30   30   29 1
    31   31   30 ar
    32   32   31 ar
    33   33   32 ar
    34   34   33 ar
    35   35   30 ar
    36   36    7 1
    37   37   11 1
    38   38   12 1
    39   39   12 1
    40   41   15 1
    41   42   19 1
    42   43   19 1
    43   44   19 1
    44   45   20 1
    45   46   20 1
    46   47   20 1
    47   48   21 1
    48   49   21 1
    49   50   21 1
    50   51   22 1
    51   52   22 1
    52   53   24 1
    53   54   25 1
    54   55   27 1
    55   56   28 1
    56   57   29 1
    57   58   29 1
    58   59   31 1
    59   60   32 1
    60   61   33 1
    61   62   34 1
    62   63   35 1
    63   10   15 1
    64   27   28 ar
    65   34   35 ar
@<TRIPOS>SUBSTRUCTURE
     1 RES1 1

@<TRIPOS>CRYSIN
   5.5580    8.7760   25.1530  90.0000  95.4600  90.0000   4 1

