# MOL2 file generated by ConQuest
# Please check atom types

@<TRIPOS>MOLECULE
ZIKRET
    41    44     1
SMALL
NO_CHARGES
****
Generated from CSD

@<TRIPOS>ATOM
      1 O1        11.1453    4.9924    2.7500 O.3       1 RES1    0.0000
      2 O2         9.6718    4.1904   -0.3079 O.2       1 RES1    0.0000
      3 N1         9.7378    5.3940    2.9305 N.3       1 RES1    0.0000
      4 C1         9.7543    6.2292    4.1111 C.ar      1 RES1    0.0000
      5 C2         9.0348    7.4159    4.0805 C.ar      1 RES1    0.0000
      6 H1         8.5263    7.6453    3.2600 H         1 RES1    0.0000
      7 C3         9.0394    8.2473    5.2020 C.ar      1 RES1    0.0000
      8 H2         8.5335    9.0867    5.1736 H         1 RES1    0.0000
      9 C4         9.7551    7.8924    6.3349 C.ar      1 RES1    0.0000
     10 H3         9.7425    8.4772    7.1157 H         1 RES1    0.0000
     11 C5        10.4713    6.7020    6.3606 C.ar      1 RES1    0.0000
     12 H4        10.9773    6.4464    7.1590 H         1 RES1    0.0000
     13 C6        10.4727    5.8666    5.2497 C.ar      1 RES1    0.0000
     14 H5        10.9965    5.0242    5.2613 H         1 RES1    0.0000
     15 C7         9.0063    4.1150    3.1455 C.3       1 RES1    0.0000
     16 H6         9.3608    3.6689    3.9548 H         1 RES1    0.0000
     17 C8         7.5386    4.3938    3.3686 C.ar      1 RES1    0.0000
     18 C9         6.8843    3.7863    4.4270 C.ar      1 RES1    0.0000
     19 H7         7.3981    3.1977    5.0529 H         1 RES1    0.0000
     20 C10        5.5142    3.9644    4.6073 C.ar      1 RES1    0.0000
     21 H8         5.0731    3.5604    5.3661 H         1 RES1    0.0000
     22 C11        4.7985    4.7545    3.7341 C.ar      1 RES1    0.0000
     23 H9         3.8400    4.8519    3.8546 H         1 RES1    0.0000
     24 C12        5.4410    5.3753    2.6777 C.ar      1 RES1    0.0000
     25 H10        4.9547    5.9326    2.0685 H         1 RES1    0.0000
     26 C13        6.8092    5.1934    2.4892 C.ar      1 RES1    0.0000
     27 H11        7.2461    5.6263    1.7462 H         1 RES1    0.0000
     28 C14        9.2280    3.2467    1.8746 C.3       1 RES1    0.0000
     29 H12        8.3568    2.9786    1.4956 H         1 RES1    0.0000
     30 C15       10.0773    1.9717    2.1146 C.3       1 RES1    0.0000
     31 H13       10.0011    1.4265    1.2951 H         1 RES1    0.0000
     32 H14        9.6577    1.4233    2.8431 H         1 RES1    0.0000
     33 C16       11.5466    2.2542    2.4507 C.3       1 RES1    0.0000
     34 H15       11.6091    2.5903    3.4058 H         1 RES1    0.0000
     35 H16       12.0591    1.4095    2.4285 H         1 RES1    0.0000
     36 C17       12.1901    3.2650    1.4999 C.3       1 RES1    0.0000
     37 H17       12.2812    2.8701    0.5843 H         1 RES1    0.0000
     38 H18       13.1129    3.5243    1.7963 H         1 RES1    0.0000
     39 C18       11.3153    4.5202    1.4064 C.3       1 RES1    0.0000
     40 H19       11.7202    5.2242    0.8440 H         1 RES1    0.0000
     41 C19        9.9859    4.0557    0.8558 C.2       1 RES1    0.0000
@<TRIPOS>BOND
     1    1    3 1
     2    2   41 2
     3    3    4 1
     4    4    5 ar
     5    5    6 1
     6    7    5 ar
     7    8    7 1
     8    9    7 ar
     9   10    9 1
    10   11    9 ar
    11   12   11 1
    12   13    4 ar
    13   14   13 1
    14   15    3 1
    15   16   15 1
    16   17   15 1
    17   18   17 ar
    18   19   18 1
    19   20   18 ar
    20   21   20 1
    21   22   20 ar
    22   23   22 1
    23   24   22 ar
    24   25   24 1
    25   26   17 ar
    26   27   26 1
    27   28   15 1
    28   29   28 1
    29   30   28 1
    30   31   30 1
    31   32   30 1
    32   33   30 1
    33   34   33 1
    34   35   33 1
    35   36   33 1
    36   37   36 1
    37   38   36 1
    38   39    1 1
    39   40   39 1
    40   41   28 1
    41   11   13 ar
    42   24   26 ar
    43   36   39 1
    44   39   41 1
@<TRIPOS>SUBSTRUCTURE
     1 RES1 1

@<TRIPOS>CRYSIN
  12.8048   10.6377   11.4585  90.0000  96.2390  90.0000  14 1

