# MOL2 file generated by ConQuest
# Please check atom types

@<TRIPOS>MOLECULE
ZILMUC
    65    69     1
SMALL
NO_CHARGES
****
Generated from CSD

@<TRIPOS>ATOM
      1 O1        12.4105    6.5624    6.8542 O.3       1 RES1    0.0000
      2 O2        13.0808    5.6738    7.7801 O.3       1 RES1    0.0000
      3 C1        13.9958    6.4191    8.5112 C.3       1 RES1    0.0000
      4 C2        13.3807    7.6912    9.1082 C.3       1 RES1    0.0000
      5 C3        13.5869    8.9161    8.2525 C.3       1 RES1    0.0000
      6 C4        13.0794    8.8357    6.8018 C.3       1 RES1    0.0000
      7 C5        13.5875    9.9969    5.9419 C.3       1 RES1    0.0000
      8 C6        13.1669    9.8737    4.5164 C.3       1 RES1    0.0000
      9 C7        13.5447    8.5474    3.9037 C.3       1 RES1    0.0000
     10 C8        12.9124    7.3898    4.6976 C.3       1 RES1    0.0000
     11 C9        13.1345    5.9866    4.1592 C.3       1 RES1    0.0000
     12 C10       14.5585    5.5130    4.3635 C.3       1 RES1    0.0000
     13 O3        14.9782    5.6904    5.7146 O.3       1 RES1    0.0000
     14 C11       14.7560    6.9573    6.3179 C.3       1 RES1    0.0000
     15 C12       13.3241    7.4527    6.1723 C.3       1 RES1    0.0000
     16 O4        15.1220    6.7624    7.6586 O.3       1 RES1    0.0000
     17 C13       14.5271    5.4589    9.5624 C.3       1 RES1    0.0000
     18 C14       13.1591   11.3293    6.5431 C.3       1 RES1    0.0000
     19 C15       12.7056    5.8022    2.6992 C.3       1 RES1    0.0000
     20 O5        15.4340    6.1771    3.4721 O.3       1 RES1    0.0000
     21 C16       16.6144    5.4300    3.1694 C.3       1 RES1    0.0000
     22 C17       16.2854    4.3004    2.2111 C.ar      1 RES1    0.0000
     23 C18       15.6399    4.5703    1.0128 C.ar      1 RES1    0.0000
     24 C19       15.2891    3.5201    0.1791 C.ar      1 RES1    0.0000
     25 C20       15.5579    2.2332    0.5656 C.ar      1 RES1    0.0000
     26 C21       16.2127    1.9641    1.7020 C.ar      1 RES1    0.0000
     27 C22       16.5712    3.0003    2.5305 C.ar      1 RES1    0.0000
     28 N1        15.0971    1.1175   -0.3069 N.pl3     1 RES1    0.0000
     29 O6        14.5813    1.4014   -1.3690 O.2       1 RES1    0.0000
     30 O7        15.2998   -0.0131    0.0848 O.2       1 RES1    0.0000
     31 C23       17.5818    6.4269    2.5860 C.3       1 RES1    0.0000
     32 C24       18.0888    7.4055    3.6146 C.2       1 RES1    0.0000
     33 O8        18.0851    7.2290    4.7803 O.2       1 RES1    0.0000
     34 O9        18.6057    8.4723    3.0584 O.3       1 RES1    0.0000
     35 H1        13.7818    7.8484    9.9660 H         1 RES1    0.0000
     36 H2        12.4366    7.5514    9.2171 H         1 RES1    0.0000
     37 H3        13.1367    9.6483    8.6788 H         1 RES1    0.0000
     38 H4        14.5301    9.0952    8.2221 H         1 RES1    0.0000
     39 H5        12.1273    8.9397    6.8343 H         1 RES1    0.0000
     40 H6        14.5466    9.9602    5.9409 H         1 RES1    0.0000
     41 H7        12.2132    9.9715    4.4703 H         1 RES1    0.0000
     42 H8        13.5836   10.5753    4.0115 H         1 RES1    0.0000
     43 H9        13.2297    8.5168    2.9966 H         1 RES1    0.0000
     44 H10       14.4982    8.4539    3.9152 H         1 RES1    0.0000
     45 H11       11.9688    7.5392    4.5939 H         1 RES1    0.0000
     46 H12       12.5521    5.4335    4.6840 H         1 RES1    0.0000
     47 H13       14.5857    4.5721    4.1739 H         1 RES1    0.0000
     48 H14       15.2699    7.6475    5.8916 H         1 RES1    0.0000
     49 H15       15.1757    5.9106   10.1074 H         1 RES1    0.0000
     50 H16       14.9452    4.7110    9.1250 H         1 RES1    0.0000
     51 H17       13.8055    5.1487   10.1074 H         1 RES1    0.0000
     52 H18       13.4470   11.3747    7.4575 H         1 RES1    0.0000
     53 H19       12.2052   11.4062    6.5033 H         1 RES1    0.0000
     54 H20       13.5588   12.0474    6.0467 H         1 RES1    0.0000
     55 H21       11.8051    6.1072    2.5881 H         1 RES1    0.0000
     56 H22       12.7607    4.8726    2.4656 H         1 RES1    0.0000
     57 H23       13.2875    6.3099    2.1283 H         1 RES1    0.0000
     58 H24       16.9948    5.0089    3.9435 H         1 RES1    0.0000
     59 H25       15.4361    5.4746    0.7646 H         1 RES1    0.0000
     60 H26       14.8624    3.6931   -0.6630 H         1 RES1    0.0000
     61 H27       16.4285    1.0581    1.9356 H         1 RES1    0.0000
     62 H28       17.0286    2.8081    3.3517 H         1 RES1    0.0000
     63 H29       18.3321    5.9508    2.2184 H         1 RES1    0.0000
     64 H30       17.1407    6.9145    1.8874 H         1 RES1    0.0000
     65 H31       19.0362    9.2569    3.9215 H         1 RES1    0.0000
@<TRIPOS>BOND
     1    1    2 1
     2    2    3 1
     3    3    4 1
     4    4    5 1
     5    5    6 1
     6    6    7 1
     7    7    8 1
     8    8    9 1
     9    9   10 1
    10   10   11 1
    11   11   12 1
    12   12   13 1
    13   13   14 1
    14   14   15 1
    15   15    1 1
    16   16    3 1
    17   17    3 1
    18   18    7 1
    19   19   11 1
    20   20   12 1
    21   21   20 1
    22   22   21 1
    23   23   22 ar
    24   24   23 ar
    25   25   24 ar
    26   26   25 ar
    27   27   22 ar
    28   28   25 1
    29   29   28 2
    30   30   28 2
    31   31   21 1
    32   32   31 1
    33   33   32 2
    34   34   32 1
    35   35    4 1
    36   36    4 1
    37   37    5 1
    38   38    5 1
    39   39    6 1
    40   40    7 1
    41   41    8 1
    42   42    8 1
    43   43    9 1
    44   44    9 1
    45   45   10 1
    46   46   11 1
    47   47   12 1
    48   48   14 1
    49   49   17 1
    50   50   17 1
    51   51   17 1
    52   52   18 1
    53   53   18 1
    54   54   18 1
    55   55   19 1
    56   56   19 1
    57   57   19 1
    58   58   21 1
    59   59   23 1
    60   60   24 1
    61   61   26 1
    62   62   27 1
    63   63   31 1
    64   64   31 1
    65   65   34 1
    66    6   15 1
    67   10   15 1
    68   14   16 1
    69   26   27 ar
@<TRIPOS>SUBSTRUCTURE
     1 RES1 1

@<TRIPOS>CRYSIN
  26.5550    8.7370   11.4940  90.0000 114.3200  90.0000   5 1

