# MOL2 file generated by ConQuest
# Please check atom types

@<TRIPOS>MOLECULE
ZILNAJ
   142   150     2
SMALL
NO_CHARGES
****
Generated from CSD

@<TRIPOS>ATOM
      1 O1         6.5288    1.2405   19.5280 O.3       1 RES1    0.0000
      2 O2         6.6318    2.6502   19.1004 O.3       1 RES1    0.0000
      3 C1         6.0845    2.7576   17.8157 C.3       1 RES1    0.0000
      4 C2         4.7237    2.1001   17.6792 C.3       1 RES1    0.0000
      5 C3         4.7262    0.6788   17.1613 C.3       1 RES1    0.0000
      6 C4         5.5988   -0.2968   17.9542 C.3       1 RES1    0.0000
      7 C5         5.7930   -1.6033   17.1693 C.3       1 RES1    0.0000
      8 C6         6.6581   -2.5608   17.9141 C.3       1 RES1    0.0000
      9 C7         7.9914   -1.9554   18.2935 C.3       1 RES1    0.0000
     10 C8         7.8315   -0.7203   19.1426 C.3       1 RES1    0.0000
     11 C9         9.1000   -0.0362   19.6304 C.3       1 RES1    0.0000
     12 C10        9.8111    0.7000   18.5103 C.3       1 RES1    0.0000
     13 O3         8.9445    1.5756   17.8197 O.3       1 RES1    0.0000
     14 C11        7.6973    1.0862   17.3680 C.3       1 RES1    0.0000
     15 C12        6.9013    0.3213   18.4661 C.3       1 RES1    0.0000
     16 O4         6.9847    2.1916   16.8562 O.3       1 RES1    0.0000
     17 C13        6.0569    4.2567   17.5467 C.3       1 RES1    0.0000
     18 C14        4.4578   -2.2576   16.8160 C.3       1 RES1    0.0000
     19 C15       10.0471   -0.9447   20.4153 C.3       1 RES1    0.0000
     20 O5        10.3991   -0.2734   17.6370 O.3       1 RES1    0.0000
     21 C16       11.4659    0.2096   16.7979 C.3       1 RES1    0.0000
     22 C17       10.9673    0.6532   15.4530 C.ar      1 RES1    0.0000
     23 C18        9.9951   -0.1128   14.7725 C.ar      1 RES1    0.0000
     24 C19        9.6485    0.1851   13.4897 C.ar      1 RES1    0.0000
     25 C20       10.2493    1.2777   12.8835 C.ar      1 RES1    0.0000
     26 C21       11.1468    2.0597   13.5299 C.ar      1 RES1    0.0000
     27 C22       11.4987    1.7565   14.8026 C.ar      1 RES1    0.0000
     28 N1         9.8737    1.5788   11.4783 N.pl3     1 RES1    0.0000
     29 O6        10.3219    2.5683   10.9765 O.2       1 RES1    0.0000
     30 O7         9.1979    0.7969   10.8861 O.2       1 RES1    0.0000
     31 C23       12.3890   -0.9894   16.6133 C.3       1 RES1    0.0000
     32 C24       12.9656   -1.5224   17.9181 C.2       1 RES1    0.0000
     33 O8        12.8836   -2.7076   18.2071 O.2       1 RES1    0.0000
     34 O9        13.4684   -0.6426   18.6327 O.3       1 RES1    0.0000
     35 C25       14.0369   -1.0831   19.9134 C.3       1 RES1    0.0000
     36 C26       14.2231   -0.1426   20.7485 C.3       1 RES1    0.0000
     37 H1         4.1994    2.6321   17.0750 H         1 RES1    0.0000
     38 H2         4.3106    2.0980   18.5444 H         1 RES1    0.0000
     39 H3         3.8236    0.3532   17.1794 H         1 RES1    0.0000
     40 H4         5.0426    0.6915   16.2539 H         1 RES1    0.0000
     41 H5         5.1265   -0.5160   18.7612 H         1 RES1    0.0000
     42 H6         6.2347   -1.3724   16.3483 H         1 RES1    0.0000
     43 H7         6.2020   -2.8289   18.7170 H         1 RES1    0.0000
     44 H8         6.8140   -3.3300   17.3620 H         1 RES1    0.0000
     45 H9         8.4649   -1.7203   17.4905 H         1 RES1    0.0000
     46 H10        8.4990   -2.6055   18.7833 H         1 RES1    0.0000
     47 H11        7.4325   -1.0735   19.9415 H         1 RES1    0.0000
     48 H12        8.8031    0.6181   20.2667 H         1 RES1    0.0000
     49 H13       10.5002    1.2575   18.8796 H         1 RES1    0.0000
     50 H14        7.8344    0.4277   16.6835 H         1 RES1    0.0000
     51 H15        5.6895    4.4184   16.6755 H         1 RES1    0.0000
     52 H16        6.9492    4.6056   17.5889 H         1 RES1    0.0000
     53 H17        5.5128    4.6897   18.2091 H         1 RES1    0.0000
     54 H18        3.9115   -1.6310   16.3362 H         1 RES1    0.0000
     55 H19        4.0090   -2.5225   17.6230 H         1 RES1    0.0000
     56 H20        4.6147   -3.0300   16.2680 H         1 RES1    0.0000
     57 H21        9.5591   -1.3905   21.1119 H         1 RES1    0.0000
     58 H22       10.7494   -0.4170   20.8027 H         1 RES1    0.0000
     59 H23       10.4283   -1.5980   19.8231 H         1 RES1    0.0000
     60 H24       11.8952    0.9692   17.1994 H         1 RES1    0.0000
     61 H25        9.5743   -0.8501   15.2201 H         1 RES1    0.0000
     62 H26        9.0054   -0.3490   13.0160 H         1 RES1    0.0000
     63 H27       11.5302    2.8225   13.0903 H         1 RES1    0.0000
     64 H28       12.1284    2.3150   15.2643 H         1 RES1    0.0000
     65 H29       13.1165   -0.7277   16.0452 H         1 RES1    0.0000
     66 H30       11.8908   -1.6937   16.1917 H         1 RES1    0.0000
     67 H31       14.8817   -1.5065   19.7388 H         1 RES1    0.0000
     68 H32       13.4354   -1.7193   20.3069 H         1 RES1    0.0000
     69 H33       14.5933   -0.5032   21.5575 H         1 RES1    0.0000
     70 H34       13.3864    0.2862   20.9432 H         1 RES1    0.0000
     71 H35       14.8327    0.4990   20.3751 H         1 RES1    0.0000
     72 O10        5.4174    2.0214    5.7492 O.3       2 RES2    0.0000
     73 O11        5.4584    3.3843    6.3093 O.3       2 RES2    0.0000
     74 C27        5.9381    3.3077    7.6221 C.3       2 RES2    0.0000
     75 C28        7.2084    2.4565    7.7566 C.3       2 RES2    0.0000
     76 C29        6.9382    0.9990    8.1340 C.3       2 RES2    0.0000
     77 C30        5.9889    0.2117    7.1965 C.3       2 RES2    0.0000
     78 C31        5.5778   -1.0894    7.8429 C.3       2 RES2    0.0000
     79 C32        4.6981   -1.8767    6.8533 C.3       2 RES2    0.0000
     80 C33        3.4681   -1.0735    6.4578 C.3       2 RES2    0.0000
     81 C34        3.8700    0.2564    5.8295 C.3       2 RES2    0.0000
     82 C35        2.6833    1.1245    5.3899 C.3       2 RES2    0.0000
     83 C36        2.0602    1.8342    6.5562 C.3       2 RES2    0.0000
     84 O12        2.9795    2.5597    7.3150 O.3       2 RES2    0.0000
     85 C37        4.0992    1.8182    7.8068 C.3       2 RES2    0.0000
     86 C38        4.8303    1.0777    6.6806 C.3       2 RES2    0.0000
     87 O13        4.8983    2.7587    8.4732 O.3       2 RES2    0.0000
     88 C39        6.1188    4.7195    8.0517 C.3       2 RES2    0.0000
     89 C40        6.7863   -1.9320    8.2564 C.3       2 RES2    0.0000
     90 C41        1.6548    0.4053    4.5428 C.3       2 RES2    0.0000
     91 O14        1.3107    0.9171    7.3491 O.3       2 RES2    0.0000
     92 C42        0.4354    1.5671    8.3046 C.3       2 RES2    0.0000
     93 C43        0.9807    1.4129    9.7118 C.ar      2 RES2    0.0000
     94 C44        1.3667    2.5129   10.4405 C.ar      2 RES2    0.0000
     95 C45        1.7998    2.4087   11.7333 C.ar      2 RES2    0.0000
     96 C46        1.8893    1.1522   12.2893 C.ar      2 RES2    0.0000
     97 C47        1.5481    0.0255   11.5968 C.ar      2 RES2    0.0000
     98 C48        1.0825    0.1692   10.3180 C.ar      2 RES2    0.0000
     99 N2         2.3594    1.0139   13.6825 N.pl3     2 RES2    0.0000
    100 O15        2.5505    2.0257   14.3288 O.2       2 RES2    0.0000
    101 O16        2.5180   -0.1011   14.1060 O.2       2 RES2    0.0000
    102 C49       -0.9144    0.9075    8.1260 C.3       2 RES2    0.0000
    103 C50       -1.4832    1.2639    6.7629 C.2       2 RES2    0.0000
    104 O17       -1.3641    2.3459    6.2430 O.2       2 RES2    0.0000
    105 O18       -2.1105    0.2596    6.2089 O.3       2 RES2    0.0000
    106 C51       -2.7367    0.4947    4.9101 C.3       2 RES2    0.0000
    107 C52       -2.5832   -0.2266    4.0208 C.3       2 RES2    0.0000
    108 H36        7.7643    2.8470    8.4331 H         2 RES2    0.0000
    109 H37        7.6718    2.4704    6.9155 H         2 RES2    0.0000
    110 H38        7.7818    0.5394    8.1480 H         2 RES2    0.0000
    111 H39        6.5545    0.9916    9.0132 H         2 RES2    0.0000
    112 H40        6.4636   -0.0298    6.3976 H         2 RES2    0.0000
    113 H41        5.0871   -0.8894    8.6439 H         2 RES2    0.0000
    114 H42        4.4183   -2.6970    7.2648 H         2 RES2    0.0000
    115 H43        5.2121   -2.0735    6.0644 H         2 RES2    0.0000
    116 H44        2.9519   -1.5778    5.8255 H         2 RES2    0.0000
    117 H45        2.9381   -0.9043    7.2407 H         2 RES2    0.0000
    118 H46        4.3383   -0.0138    5.0366 H         2 RES2    0.0000
    119 H47        3.0569    1.7863    4.8037 H         2 RES2    0.0000
    120 H48        1.4574    2.4917    6.2009 H         2 RES2    0.0000
    121 H49        3.8356    1.1160    8.4050 H         2 RES2    0.0000
    122 H50        6.4495    4.7397    8.9510 H         2 RES2    0.0000
    123 H51        5.2760    5.1780    8.0095 H         2 RES2    0.0000
    124 H52        6.7476    5.1535    7.4695 H         2 RES2    0.0000
    125 H53        7.3277   -1.4352    8.8727 H         2 RES2    0.0000
    126 H54        7.3050   -2.1501    7.4776 H         2 RES2    0.0000
    127 H55        6.4840   -2.7406    8.6760 H         2 RES2    0.0000
    128 H56        2.0941   -0.0330    3.8121 H         2 RES2    0.0000
    129 H57        1.0206    1.0405    4.2015 H         2 RES2    0.0000
    130 H58        1.1982   -0.2458    5.0807 H         2 RES2    0.0000
    131 H59        0.3673    2.5140    8.1601 H         2 RES2    0.0000
    132 H60        1.3292    3.3800   10.0310 H         2 RES2    0.0000
    133 H61        2.0369    3.1906   12.2371 H         2 RES2    0.0000
    134 H62        1.6331   -0.8437   11.9942 H         2 RES2    0.0000
    135 H63        0.8191   -0.6128    9.8262 H         2 RES2    0.0000
    136 H64       -0.8157   -0.0457    8.1922 H         2 RES2    0.0000
    137 H65       -1.5124    1.2150    8.8125 H         2 RES2    0.0000
    138 H66       -2.4415    1.3597    4.6190 H         2 RES2    0.0000
    139 H67       -3.6828    0.5171    5.0727 H         2 RES2    0.0000
    140 H68       -3.0774    0.0926    3.2620 H         2 RES2    0.0000
    141 H69       -2.8905   -1.1054    4.2557 H         2 RES2    0.0000
    142 H70       -1.6492   -0.2617    3.8020 H         2 RES2    0.0000
@<TRIPOS>BOND
     1    1    2 1
     2    2    3 1
     3    3    4 1
     4    4    5 1
     5    5    6 1
     6    6    7 1
     7    7    8 1
     8    8    9 1
     9    9   10 1
    10   10   11 1
    11   11   12 1
    12   12   13 1
    13   13   14 1
    14   14   15 1
    15   15    1 1
    16   16    3 1
    17   17    3 1
    18   18    7 1
    19   19   11 1
    20   20   12 1
    21   21   20 1
    22   22   21 1
    23   23   22 ar
    24   24   23 ar
    25   25   24 ar
    26   26   25 ar
    27   27   22 ar
    28   28   25 1
    29   29   28 2
    30   30   28 2
    31   31   21 1
    32   32   31 1
    33   33   32 2
    34   34   32 1
    35   35   34 1
    36   36   35 1
    37   37    4 1
    38   38    4 1
    39   39    5 1
    40   40    5 1
    41   41    6 1
    42   42    7 1
    43   43    8 1
    44   44    8 1
    45   45    9 1
    46   46    9 1
    47   47   10 1
    48   48   11 1
    49   49   12 1
    50   50   14 1
    51   51   17 1
    52   52   17 1
    53   53   17 1
    54   54   18 1
    55   55   18 1
    56   56   18 1
    57   57   19 1
    58   58   19 1
    59   59   19 1
    60   60   21 1
    61   61   23 1
    62   62   24 1
    63   63   26 1
    64   64   27 1
    65   65   31 1
    66   66   31 1
    67   67   35 1
    68   68   35 1
    69   69   36 1
    70   70   36 1
    71   71   36 1
    72   72   73 1
    73   73   74 1
    74   74   75 1
    75   75   76 1
    76   76   77 1
    77   77   78 1
    78   78   79 1
    79   79   80 1
    80   80   81 1
    81   81   82 1
    82   82   83 1
    83   83   84 1
    84   84   85 1
    85   85   86 1
    86   86   72 1
    87   87   74 1
    88   88   74 1
    89   89   78 1
    90   90   82 1
    91   91   83 1
    92   92   91 1
    93   93   92 1
    94   94   93 ar
    95   95   94 ar
    96   96   95 ar
    97   97   96 ar
    98   98   93 ar
    99   99   96 1
   100  100   99 2
   101  101   99 2
   102  102   92 1
   103  103  102 1
   104  104  103 2
   105  105  103 1
   106  106  105 1
   107  107  106 1
   108  108   75 1
   109  109   75 1
   110  110   76 1
   111  111   76 1
   112  112   77 1
   113  113   78 1
   114  114   79 1
   115  115   79 1
   116  116   80 1
   117  117   80 1
   118  118   81 1
   119  119   82 1
   120  120   83 1
   121  121   85 1
   122  122   88 1
   123  123   88 1
   124  124   88 1
   125  125   89 1
   126  126   89 1
   127  127   89 1
   128  128   90 1
   129  129   90 1
   130  130   90 1
   131  131   92 1
   132  132   94 1
   133  133   95 1
   134  134   97 1
   135  135   98 1
   136  136  102 1
   137  137  102 1
   138  138  106 1
   139  139  106 1
   140  140  107 1
   141  141  107 1
   142  142  107 1
   143    6   15 1
   144   10   15 1
   145   14   16 1
   146   26   27 ar
   147   77   86 1
   148   81   86 1
   149   85   87 1
   150   97   98 ar
@<TRIPOS>SUBSTRUCTURE
     1 RES1 1
     2 RES2 72

@<TRIPOS>CRYSIN
  12.3920   10.6390   20.0810  90.0000  91.5100  90.0000   4 1

