# MOL2 file generated by ConQuest
# Please check atom types

@<TRIPOS>MOLECULE
ZILNOX01
    22    21     1
SMALL
NO_CHARGES
****
Generated from CSD

@<TRIPOS>ATOM
      1 C1         5.2650    1.9720    7.4363 C.3       1 RES1    0.0000
      2 C2         4.1561    2.7582    8.1062 C.3       1 RES1    0.0000
      3 C3         4.6315    4.1131    8.6837 C.3       1 RES1    0.0000
      4 C4         5.7109    4.0213    9.7304 C.3       1 RES1    0.0000
      5 N1         2.9455    2.9104    7.1676 N.pl3     1 RES1    0.0000
      6 N2         3.5703    1.8701    9.2377 N.pl3     1 RES1    0.0000
      7 N3         3.4735    4.9258    9.3280 N.pl3     1 RES1    0.0000
      8 N4         5.1117    4.9973    7.5188 N.pl3     1 RES1    0.0000
      9 O1         2.1471    3.7880    7.4240 O.2       1 RES1    0.0000
     10 O2         2.8661    2.1347    6.2525 O.2       1 RES1    0.0000
     11 O3         2.3756    1.6626    9.2622 O.2       1 RES1    0.0000
     12 O4         4.3782    1.3982    9.9979 O.2       1 RES1    0.0000
     13 O5         2.9298    4.3476   10.2576 O.2       1 RES1    0.0000
     14 O6         3.2446    6.0192    8.9244 O.2       1 RES1    0.0000
     15 O7         4.6089    4.8157    6.4297 O.2       1 RES1    0.0000
     16 O8         5.9642    5.8079    7.7707 O.2       1 RES1    0.0000
     17 H1         5.9481    1.7906    8.0884 H         1 RES1    0.0000
     18 H2         5.5422    2.4836    6.7206 H         1 RES1    0.0000
     19 H3         4.9441    1.1047    7.1844 H         1 RES1    0.0000
     20 H4         5.4169    3.5730   10.4226 H         1 RES1    0.0000
     21 H5         6.4752    3.5919    9.3603 H         1 RES1    0.0000
     22 H6         5.9651    4.8979    9.9890 H         1 RES1    0.0000
@<TRIPOS>BOND
     1    1    2 1
     2    2    3 1
     3    3    4 1
     4    4   20 1
     5    5    2 1
     6    6    2 1
     7    7    3 1
     8    8    3 1
     9    9    5 2
    10   10    5 2
    11   11    6 2
    12   12    6 2
    13   13    7 2
    14   14    7 2
    15   15    8 2
    16   16    8 2
    17   17    1 1
    18   18    1 1
    19   19    1 1
    20   21    4 1
    21   22    4 1
@<TRIPOS>SUBSTRUCTURE
     1 RES1 1

@<TRIPOS>CRYSIN
   6.1520    7.2160   11.6220  76.1700  76.9300  69.2700   2 1

