# MOL2 file generated by ConQuest
# Please check atom types

@<TRIPOS>MOLECULE
ZILPIV
    34    36     1
SMALL
NO_CHARGES
****
Generated from CSD

@<TRIPOS>ATOM
      1 C1         2.7098    3.4801    7.4982 C.ar      1 RES1    0.0000
      2 H1         3.3808    3.0746    7.9981 H         1 RES1    0.0000
      3 N1         3.9005    2.5942    4.1714 N.2       1 RES1    0.0000
      4 O1         4.9660    1.7324    3.8135 O.3       1 RES1    0.0000
      5 C2         1.7182    4.1996    8.1339 C.ar      1 RES1    0.0000
      6 H2         1.7267    4.2811    9.0596 H         1 RES1    0.0000
      7 O2         4.5390   -0.2788    4.8977 O.3       1 RES1    0.0000
      8 H3         4.7635   -0.7165    4.2416 H         1 RES1    0.0000
      9 C3         0.7178    4.7958    7.4041 C.ar      1 RES1    0.0000
     10 H4         0.0436    5.2668    7.8378 H         1 RES1    0.0000
     11 C4         0.7156    4.6936    6.0216 C.ar      1 RES1    0.0000
     12 H5         0.0477    5.1104    5.5270 H         1 RES1    0.0000
     13 C5         1.6984    3.9781    5.3807 C.ar      1 RES1    0.0000
     14 H6         1.6888    3.9067    4.4531 H         1 RES1    0.0000
     15 C6         2.7089    3.3593    6.1124 C.ar      1 RES1    0.0000
     16 C7         3.7573    2.5736    5.4460 C.2       1 RES1    0.0000
     17 C8         4.7595    1.7044    6.1304 C.3       1 RES1    0.0000
     18 H7         4.3426    1.1364    6.7971 H         1 RES1    0.0000
     19 H8         5.4604    2.2292    6.5483 H         1 RES1    0.0000
     20 C9         5.2932    0.8901    4.9567 C.3       1 RES1    0.0000
     21 C10        6.7823    0.6441    4.9176 C.ar      1 RES1    0.0000
     22 C11        7.6508    1.6047    4.4310 C.ar      1 RES1    0.0000
     23 H9         7.3141    2.4130    4.1172 H         1 RES1    0.0000
     24 C12        9.0146    1.3768    4.4061 C.ar      1 RES1    0.0000
     25 H10        9.5785    2.0368    4.0730 H         1 RES1    0.0000
     26 C13        9.5601    0.1919    4.8649 C.ar      1 RES1    0.0000
     27 C14        8.6869   -0.7581    5.3503 C.ar      1 RES1    0.0000
     28 H11        9.0253   -1.5638    5.6679 H         1 RES1    0.0000
     29 C15        7.3200   -0.5449    5.3781 C.ar      1 RES1    0.0000
     30 H12        6.7572   -1.2075    5.7094 H         1 RES1    0.0000
     31 C16       11.0503   -0.0313    4.8510 C.3       1 RES1    0.0000
     32 H13       11.4530    0.4530    5.5753 H         1 RES1    0.0000
     33 H14       11.4128    0.2796    4.0177 H         1 RES1    0.0000
     34 H15       11.2342   -0.9677    4.9506 H         1 RES1    0.0000
@<TRIPOS>BOND
     1    1    2 1
     2    3    4 1
     3    4   20 1
     4    5    1 ar
     5    6    5 1
     6    7    8 1
     7    9    5 ar
     8   10    9 1
     9   11    9 ar
    10   12   11 1
    11   13   11 ar
    12   14   13 1
    13   15    1 ar
    14   16    3 2
    15   17   16 1
    16   18   17 1
    17   19   17 1
    18   20    7 1
    19   21   20 1
    20   22   21 ar
    21   23   22 1
    22   24   22 ar
    23   25   24 1
    24   26   24 ar
    25   27   26 ar
    26   28   27 1
    27   29   21 ar
    28   30   29 1
    29   31   26 1
    30   32   31 1
    31   33   31 1
    32   34   31 1
    33   13   15 ar
    34   15   16 1
    35   17   20 1
    36   27   29 ar
@<TRIPOS>SUBSTRUCTURE
     1 RES1 1

@<TRIPOS>CRYSIN
  10.1203    9.4778   14.0262  90.0000  99.8160  90.0000  14 1

