# MOL2 file generated by ConQuest
# Please check atom types

@<TRIPOS>MOLECULE
ZILWAV
   156   160     4
SMALL
NO_CHARGES
****
Generated from CSD

@<TRIPOS>ATOM
      1 O1         4.8044   -4.6484   11.2637 O.2       1 RES1    0.0000
      2 O2         7.7728   -0.5868    7.4060 O.3       1 RES1    0.0000
      3 O3         7.9171   -2.7949   13.8491 O.3       1 RES1    0.0000
      4 O4         3.6760   -5.3845   12.9537 O.2       1 RES1    0.0000
      5 O5         5.7304   -3.1581   13.9799 O.2       1 RES1    0.0000
      6 O6         5.5408   -0.6737    7.3036 O.2       1 RES1    0.0000
      7 N1         4.0080   -4.4878   12.1844 N.pl3     1 RES1    0.0000
      8 C1         2.1261   -3.1500   12.9264 C.ar      1 RES1    0.0000
      9 H1         1.7115   -3.9419   13.1834 H         1 RES1    0.0000
     10 C2         3.3892   -3.1731   12.3597 C.ar      1 RES1    0.0000
     11 C3         4.0632   -2.0217   11.9664 C.ar      1 RES1    0.0000
     12 C4         3.3819   -0.8172   12.1608 C.ar      1 RES1    0.0000
     13 H2         3.7891   -0.0224   11.9033 H         1 RES1    0.0000
     14 C5         5.4105   -1.9494   11.3228 C.ar      1 RES1    0.0000
     15 C6         5.4409   -1.4620   10.0215 C.ar      1 RES1    0.0000
     16 H3         4.6408   -1.2466    9.5996 H         1 RES1    0.0000
     17 C7         7.8300   -2.0485   11.2604 C.ar      1 RES1    0.0000
     18 H4         8.6366   -2.2397   11.6826 H         1 RES1    0.0000
     19 C8         1.4902   -1.9421   13.1046 C.ar      1 RES1    0.0000
     20 H5         0.6399   -1.9137   13.4798 H         1 RES1    0.0000
     21 C9         7.8456   -1.5766    9.9597 C.ar      1 RES1    0.0000
     22 H6         8.6505   -1.4542    9.5113 H         1 RES1    0.0000
     23 C10        8.0316   -3.2871   15.2087 C.3       1 RES1    0.0000
     24 H7         7.6492   -2.6480   15.8130 H         1 RES1    0.0000
     25 H8         8.9579   -3.4172   15.4241 H         1 RES1    0.0000
     26 H9         7.5643   -4.1220   15.2875 H         1 RES1    0.0000
     27 C11        2.1178   -0.7729   12.7258 C.ar      1 RES1    0.0000
     28 H10        1.6917    0.0451   12.8492 H         1 RES1    0.0000
     29 C12        6.6399   -2.2441   11.9557 C.ar      1 RES1    0.0000
     30 C13        7.8236   -0.1030    6.0332 C.3       1 RES1    0.0000
     31 H11        7.3887    0.7608    5.9632 H         1 RES1    0.0000
     32 H12        7.3745   -0.7246    5.4398 H         1 RES1    0.0000
     33 C14        6.6330   -1.2884    9.3339 C.ar      1 RES1    0.0000
     34 C15        9.2686    0.0105    5.6727 C.3       1 RES1    0.0000
     35 H13        9.7105    0.5899    6.2974 H         1 RES1    0.0000
     36 H14        9.3504    0.3739    4.7882 H         1 RES1    0.0000
     37 H15        9.6745   -0.8597    5.7005 H         1 RES1    0.0000
     38 C16        6.5748   -0.8142    7.9195 C.2       1 RES1    0.0000
     39 C17        6.6769   -2.7786   13.3520 C.2       1 RES1    0.0000
     40 O7         0.1481   10.3514    0.7741 O.2       2 RES2    0.0000
     41 O8         1.0018   12.2392    3.5382 O.3       2 RES2    0.0000
     42 O9         3.0565   14.4512   -3.0901 O.3       2 RES2    0.0000
     43 O10        0.8249   14.3533   -3.1884 O.2       2 RES2    0.0000
     44 O11       -0.7119    9.6942    2.6426 O.2       2 RES2    0.0000
     45 O12        3.1936   12.0257    3.3507 O.2       2 RES2    0.0000
     46 N2        -0.5481   10.5332    1.7656 N.pl3     2 RES2    0.0000
     47 C18       -2.4903   11.7751    2.5034 C.ar      2 RES2    0.0000
     48 H16       -2.8529   10.9699    2.7956 H         2 RES2    0.0000
     49 C19       -1.2345   11.8126    1.9132 C.ar      2 RES2    0.0000
     50 C20       -0.6258   12.9913    1.4747 C.ar      2 RES2    0.0000
     51 C21        0.7466   13.5657   -0.4654 C.ar      2 RES2    0.0000
     52 H17       -0.0580   13.7608   -0.8891 H         2 RES2    0.0000
     53 C22       -1.3729   14.1590    1.6351 C.ar      2 RES2    0.0000
     54 H18       -1.0140   14.9685    1.3516 H         2 RES2    0.0000
     55 C23        3.1462   13.4675   -0.5467 C.ar      2 RES2    0.0000
     56 H19        3.9468   13.5924   -1.0026 H         2 RES2    0.0000
     57 C24        3.1487   12.9981    0.7561 C.ar      2 RES2    0.0000
     58 H20        3.9592   12.8015    1.1666 H         2 RES2    0.0000
     59 C25       -3.1904   12.9563    2.6472 C.ar      2 RES2    0.0000
     60 H21       -4.0333   12.9530    3.0415 H         2 RES2    0.0000
     61 C26        0.7260   13.0991    0.8462 C.ar      2 RES2    0.0000
     62 C27       -2.6392   14.1429    2.2068 C.ar      2 RES2    0.0000
     63 H22       -3.1181   14.9353    2.2932 H         2 RES2    0.0000
     64 C28        1.9562   12.8148    1.4665 C.ar      2 RES2    0.0000
     65 C29        1.9383   13.7475   -1.1611 C.ar      2 RES2    0.0000
     66 C30        3.1017   14.9313   -4.4660 C.3       2 RES2    0.0000
     67 H23        2.6640   15.7939   -4.5381 H         2 RES2    0.0000
     68 H24        2.6540   14.3055   -5.0573 H         2 RES2    0.0000
     69 C31        1.8553   14.2113   -2.5770 C.2       2 RES2    0.0000
     70 C32        1.0833   11.7664    4.9102 C.3       2 RES2    0.0000
     71 H25        1.5205   10.9124    4.9291 H         2 RES2    0.0000
     72 H26        0.1981   11.6807    5.2717 H         2 RES2    0.0000
     73 H27        1.5843   12.3944    5.4356 H         2 RES2    0.0000
     74 C33        4.5505   15.0485   -4.8292 C.3       2 RES2    0.0000
     75 H28        4.6306   15.4292   -5.7068 H         2 RES2    0.0000
     76 H29        4.9541   14.1784   -4.8198 H         2 RES2    0.0000
     77 H30        4.9952   15.6148   -4.1934 H         2 RES2    0.0000
     78 C34        2.1350   12.3107    2.8683 C.2       2 RES2    0.0000
     79 O13        0.1180    5.0959    9.7425 O.2       3 RES3    0.0000
     80 O14       -2.7834    0.9476   13.5748 O.3       3 RES3    0.0000
     81 O15       -0.5568    1.1696   13.7144 O.2       3 RES3    0.0000
     82 O16       -0.7125    3.2115    6.9543 O.3       3 RES3    0.0000
     83 O17        0.9609    5.7613    7.8701 O.2       3 RES3    0.0000
     84 O18       -2.9060    3.4332    7.1531 O.2       3 RES3    0.0000
     85 N3         0.8090    4.9171    8.7450 N.pl3     3 RES3    0.0000
     86 C35        2.7612    3.6877    8.0046 C.ar      3 RES3    0.0000
     87 H31        3.1140    4.4948    7.7058 H         3 RES3    0.0000
     88 C36        0.9131    2.4672    9.0325 C.ar      3 RES3    0.0000
     89 C37        1.5100    3.6449    8.5989 C.ar      3 RES3    0.0000
     90 C38       -0.4417    2.3533    9.6604 C.ar      3 RES3    0.0000
     91 C39       -0.4658    1.8815   10.9680 C.ar      3 RES3    0.0000
     92 H32        0.3386    1.6826   11.3905 H         3 RES3    0.0000
     93 C40        1.6660    1.3025    8.8709 C.ar      3 RES3    0.0000
     94 H33        1.3121    0.4910    9.1561 H         3 RES3    0.0000
     95 C41        3.4757    2.5182    7.8626 C.ar      3 RES3    0.0000
     96 H34        4.3225    2.5319    7.4766 H         3 RES3    0.0000
     97 C42       -1.6766    2.6334    9.0319 C.ar      3 RES3    0.0000
     98 C43       -2.8597    2.4367    9.7379 C.ar      3 RES3    0.0000
     99 H35       -3.6697    2.6226    9.3200 H         3 RES3    0.0000
    100 C44       -2.8698    1.9751   11.0388 C.ar      3 RES3    0.0000
    101 H36       -3.6720    1.8508   11.4914 H         3 RES3    0.0000
    102 C45       -1.6510    1.6985   11.6608 C.ar      3 RES3    0.0000
    103 C46       -2.8250    0.5316   14.9674 C.3       3 RES3    0.0000
    104 H37       -2.5275    1.2549   15.5418 H         3 RES3    0.0000
    105 H38       -2.2426   -0.2318   15.1067 H         3 RES3    0.0000
    106 C47       -1.5907    1.2473   13.0796 C.2       3 RES3    0.0000
    107 C48        2.9253    1.3235    8.2964 C.ar      3 RES3    0.0000
    108 H39        3.4034    0.5316    8.2018 H         3 RES3    0.0000
    109 C49       -4.2383    0.1677   15.2848 C.3       3 RES3    0.0000
    110 H40       -4.5235   -0.5446   14.7073 H         3 RES3    0.0000
    111 H41       -4.8035    0.9324   15.1530 H         3 RES3    0.0000
    112 H42       -4.2969   -0.1202   16.1997 H         3 RES3    0.0000
    113 C50       -0.7915    3.6766    5.5857 C.3       3 RES3    0.0000
    114 H43       -1.2830    3.0420    5.0594 H         3 RES3    0.0000
    115 H44        0.0943    3.7710    5.2276 H         3 RES3    0.0000
    116 H45       -1.2387    4.5255    5.5618 H         3 RES3    0.0000
    117 C51       -1.8451    3.1325    7.6282 C.2       3 RES3    0.0000
    118 O19        1.2289    2.7734    0.7451 O.2       4 RES4    0.0000
    119 O20        1.9632    6.6606   -3.2286 O.2       4 RES4    0.0000
    120 O21        4.1906    6.8692   -3.0779 O.3       4 RES4    0.0000
    121 O22        4.3297    4.6251    3.3490 O.3       4 RES4    0.0000
    122 O23        0.1113    2.0329    2.4427 O.2       4 RES4    0.0000
    123 O24        2.1453    4.2822    3.4720 O.2       4 RES4    0.0000
    124 N4         0.4345    2.9211    1.6673 N.pl3     4 RES4    0.0000
    125 C52       -1.4551    4.2453    2.4137 C.ar      4 RES4    0.0000
    126 H46       -1.8678    3.4496    2.6653 H         4 RES4    0.0000
    127 C53       -0.1880    4.2371    1.8459 C.ar      4 RES4    0.0000
    128 C54        0.4795    5.3961    1.4545 C.ar      4 RES4    0.0000
    129 C55        4.2555    5.8465   -0.5444 C.ar      4 RES4    0.0000
    130 H47        5.0603    5.9765   -0.9921 H         4 RES4    0.0000
    131 C56       -0.2080    6.5957    1.6565 C.ar      4 RES4    0.0000
    132 H48        0.1958    7.3939    1.4062 H         4 RES4    0.0000
    133 C57        1.8583    5.9409   -0.4898 C.ar      4 RES4    0.0000
    134 H49        1.0574    6.1404   -0.9186 H         4 RES4    0.0000
    135 C58        4.2484    5.3757    0.7586 C.ar      4 RES4    0.0000
    136 H50        5.0555    5.1857    1.1813 H         4 RES4    0.0000
    137 C59       -2.0910    5.4566    2.5982 C.ar      4 RES4    0.0000
    138 H51       -2.9388    5.4812    2.9785 H         4 RES4    0.0000
    139 C60        4.4474    4.1242    4.7016 C.3       4 RES4    0.0000
    140 H52        3.9935    3.2810    4.7714 H         4 RES4    0.0000
    141 H53        4.0515    4.7515    5.3116 H         4 RES4    0.0000
    142 H54        5.3744    4.0074    4.9207 H         4 RES4    0.0000
    143 C61        1.8272    5.4724    0.8172 C.ar      4 RES4    0.0000
    144 C62       -1.4735    6.6304    2.2197 C.ar      4 RES4    0.0000
    145 H55       -1.9056    7.4452    2.3416 H         4 RES4    0.0000
    146 C63        3.0492    5.1807    1.4489 C.ar      4 RES4    0.0000
    147 C64        3.0550    6.1208   -1.1754 C.ar      4 RES4    0.0000
    148 C65        4.2384    7.2940   -4.4713 C.3       4 RES4    0.0000
    149 H56        3.6602    8.0598   -4.6096 H         4 RES4    0.0000
    150 H57        3.9423    6.5753   -5.0510 H         4 RES4    0.0000
    151 C66        2.9876    6.5753   -2.5951 C.2       4 RES4    0.0000
    152 C67        5.6573    7.6551   -4.7761 C.3       4 RES4    0.0000
    153 H58        5.7229    7.9516   -5.6858 H         4 RES4    0.0000
    154 H59        6.2173    6.8858   -4.6495 H         4 RES4    0.0000
    155 H60        5.9423    8.3593   -4.1892 H         4 RES4    0.0000
    156 C68        3.0951    4.6473    2.8469 C.2       4 RES4    0.0000
@<TRIPOS>BOND
     1    1    7 2
     2    2   30 1
     3    3   23 1
     4    4    7 2
     5    5   39 2
     6    6   38 2
     7    7   10 1
     8    8    9 1
     9   10    8 ar
    10   11   10 ar
    11   12   11 ar
    12   13   12 1
    13   14   11 1
    14   15   14 ar
    15   16   15 1
    16   17   18 1
    17   19    8 ar
    18   20   19 1
    19   21   17 ar
    20   22   21 1
    21   23   24 1
    22   25   23 1
    23   26   23 1
    24   27   12 ar
    25   28   27 1
    26   29   14 ar
    27   30   31 1
    28   32   30 1
    29   33   15 ar
    30   34   30 1
    31   35   34 1
    32   36   34 1
    33   37   34 1
    34   38    2 1
    35   39    3 1
    36   40   46 2
    37   41   70 1
    38   42   66 1
    39   43   69 2
    40   44   46 2
    41   45   78 2
    42   46   49 1
    43   47   48 1
    44   49   47 ar
    45   50   49 ar
    46   51   52 1
    47   53   50 ar
    48   54   53 1
    49   55   56 1
    50   57   55 ar
    51   58   57 1
    52   59   47 ar
    53   60   59 1
    54   61   50 1
    55   62   53 ar
    56   63   62 1
    57   64   57 ar
    58   65   51 ar
    59   66   67 1
    60   68   66 1
    61   69   42 1
    62   70   71 1
    63   72   70 1
    64   73   70 1
    65   74   66 1
    66   75   74 1
    67   76   74 1
    68   77   74 1
    69   78   41 1
    70   79   85 2
    71   80  103 1
    72   81  106 2
    73   82  113 1
    74   83   85 2
    75   84  117 2
    76   85   89 1
    77   86   87 1
    78   88   89 ar
    79   89   86 ar
    80   90   88 1
    81   91   90 ar
    82   92   91 1
    83   93   88 ar
    84   94   93 1
    85   95   86 ar
    86   96   95 1
    87   97   90 ar
    88   98   97 ar
    89   99   98 1
    90  100   98 ar
    91  101  100 1
    92  102   91 ar
    93  103  104 1
    94  105  103 1
    95  106   80 1
    96  107   93 ar
    97  108  107 1
    98  109  103 1
    99  110  109 1
   100  111  109 1
   101  112  109 1
   102  113  114 1
   103  115  113 1
   104  116  113 1
   105  117   82 1
   106  118  124 2
   107  119  151 2
   108  120  148 1
   109  121  139 1
   110  122  124 2
   111  123  156 2
   112  124  127 1
   113  125  126 1
   114  127  125 ar
   115  128  127 ar
   116  129  130 1
   117  131  128 ar
   118  132  131 1
   119  133  134 1
   120  135  129 ar
   121  136  135 1
   122  137  125 ar
   123  138  137 1
   124  139  140 1
   125  141  139 1
   126  142  139 1
   127  143  128 1
   128  144  131 ar
   129  145  144 1
   130  146  135 ar
   131  147  129 ar
   132  148  149 1
   133  150  148 1
   134  151  120 1
   135  152  148 1
   136  153  152 1
   137  154  152 1
   138  155  152 1
   139  156  121 1
   140   17   29 ar
   141   19   27 ar
   142   21   33 ar
   143   29   39 1
   144   33   38 1
   145   51   61 ar
   146   55   65 ar
   147   59   62 ar
   148   61   64 ar
   149   64   78 1
   150   65   69 1
   151   95  107 ar
   152   97  117 1
   153  100  102 ar
   154  102  106 1
   155  133  143 ar
   156  133  147 ar
   157  137  144 ar
   158  143  146 ar
   159  146  156 1
   160  147  151 1
@<TRIPOS>SUBSTRUCTURE
     1 RES1 1
     2 RES2 40
     3 RES3 79
     4 RES4 118

@<TRIPOS>CRYSIN
   9.6495   15.4042   22.5104 107.0950  99.2060  98.2220   2 1

