# MOL2 file generated by ConQuest
# Please check atom types

@<TRIPOS>MOLECULE
ZIMDUX
    45    49     1
SMALL
NO_CHARGES
****
Generated from CSD

@<TRIPOS>ATOM
      1 O1         7.0183    6.5145    5.9727 O.3       1 RES1    0.0000
      2 O2         4.1715    6.9064    0.9972 O.3       1 RES1    0.0000
      3 O3         5.1270    6.6684    7.1574 O.2       1 RES1    0.0000
      4 O4        -3.3202    7.0346    2.7397 O.3       1 RES1    0.0000
      5 N1         2.7712    6.6940    1.0151 N.2       1 RES1    0.0000
      6 C1         0.7832    7.3567    2.1473 C.ar      1 RES1    0.0000
      7 C2         4.2871    6.5011    3.9125 C.3       1 RES1    0.0000
      8 H1         3.8172    5.8466    3.3727 H         1 RES1    0.0000
      9 H2         4.6206    6.0887    4.7246 H         1 RES1    0.0000
     10 C3         5.8582    7.0869    6.2999 C.2       1 RES1    0.0000
     11 C4         3.2011    8.2298    2.7325 C.3       1 RES1    0.0000
     12 H3         3.0024    9.1880    2.6907 H         1 RES1    0.0000
     13 C5         2.2363    7.4152    1.9348 C.2       1 RES1    0.0000
     14 C6         5.7486    8.4103    4.0033 C.3       1 RES1    0.0000
     15 H4         6.2560    9.1469    3.6032 H         1 RES1    0.0000
     16 C7         5.3757    7.2398    3.1326 C.3       1 RES1    0.0000
     17 H5         6.1239    6.6858    2.8269 H         1 RES1    0.0000
     18 C8         3.4588    7.7455    4.1824 C.3       1 RES1    0.0000
     19 H6         2.6548    7.6029    4.7258 H         1 RES1    0.0000
     20 C9         4.4488    8.7355    4.7425 C.3       1 RES1    0.0000
     21 H7         4.1742    9.6753    4.7939 H         1 RES1    0.0000
     22 C10        5.6750    8.3211    5.5033 C.3       1 RES1    0.0000
     23 H8         6.1086    9.0895    5.9297 H         1 RES1    0.0000
     24 C11        0.1643    8.1200    3.1123 C.ar      1 RES1    0.0000
     25 H9         0.6787    8.6986    3.6271 H         1 RES1    0.0000
     26 C12       -0.0258    6.5299    1.3770 C.ar      1 RES1    0.0000
     27 H10        0.3597    6.0169    0.7046 H         1 RES1    0.0000
     28 C13        4.5338    7.8748    2.0303 C.3       1 RES1    0.0000
     29 H11        4.9683    8.6668    1.6505 H         1 RES1    0.0000
     30 C14       -1.9722    7.2039    2.5749 C.ar      1 RES1    0.0000
     31 C15       -1.3806    6.4519    1.5872 C.ar      1 RES1    0.0000
     32 H12       -1.8992    5.8897    1.0581 H         1 RES1    0.0000
     33 C16       -1.2040    8.0533    3.3380 C.ar      1 RES1    0.0000
     34 H13       -1.5980    8.5765    3.9997 H         1 RES1    0.0000
     35 C17        7.4018    5.3193    6.6928 C.3       1 RES1    0.0000
     36 H14        6.8356    4.5745    6.4337 H         1 RES1    0.0000
     37 H15        7.3107    5.4578    7.6482 H         1 RES1    0.0000
     38 C18        8.8272    5.0331    6.3441 C.3       1 RES1    0.0000
     39 H16        9.1159    4.2400    6.8027 H         1 RES1    0.0000
     40 H17        9.3761    5.7738    6.6092 H         1 RES1    0.0000
     41 H18        8.9044    4.8997    5.3958 H         1 RES1    0.0000
     42 C19       -3.9573    7.7158    3.8122 C.3       1 RES1    0.0000
     43 H19       -4.8951    7.5106    3.8086 H         1 RES1    0.0000
     44 H20       -3.8376    8.6627    3.7071 H         1 RES1    0.0000
     45 H21       -3.5716    7.4347    4.6446 H         1 RES1    0.0000
@<TRIPOS>BOND
     1    1   10 1
     2    2    5 1
     3    3   10 2
     4    4   30 1
     5    5   13 2
     6    6   13 1
     7    7    8 1
     8    9    7 1
     9   10   22 1
    10   11   12 1
    11   13   11 1
    12   14   15 1
    13   16    7 1
    14   17   16 1
    15   18    7 1
    16   19   18 1
    17   20   14 1
    18   21   20 1
    19   22   14 1
    20   23   22 1
    21   24    6 ar
    22   25   24 1
    23   26    6 ar
    24   27   26 1
    25   28    2 1
    26   29   28 1
    27   30   31 ar
    28   31   26 ar
    29   32   31 1
    30   33   24 ar
    31   34   33 1
    32   35    1 1
    33   36   35 1
    34   37   35 1
    35   38   35 1
    36   39   38 1
    37   40   38 1
    38   41   38 1
    39   42    4 1
    40   43   42 1
    41   44   42 1
    42   45   42 1
    43   11   18 1
    44   11   28 1
    45   14   16 1
    46   16   28 1
    47   18   20 1
    48   20   22 1
    49   30   33 ar
@<TRIPOS>SUBSTRUCTURE
     1 RES1 1

@<TRIPOS>CRYSIN
  13.3240   10.2590   13.0600  90.0000 113.8700  90.0000  14 1

