# MOL2 file generated by ConQuest
# Please check atom types

@<TRIPOS>MOLECULE
ZIMLAL
    37    40     1
SMALL
NO_CHARGES
****
Generated from CSD

@<TRIPOS>ATOM
      1 O1         4.8661    5.3702    1.9222 O.3       1 RES1    0.0000
      2 H1         4.2872    5.3775    1.3418 H         1 RES1    0.0000
      3 O2         9.2361    1.1665    1.3393 O.3       1 RES1    0.0000
      4 N1         6.1572    4.4167   -0.2934 N.2       1 RES1    0.0000
      5 N2         6.4214    3.9327    0.9308 N.3       1 RES1    0.0000
      6 N3         8.7628    1.6961    2.5268 N.2       1 RES1    0.0000
      7 C1         7.2626    4.1234   -1.0211 C.2       1 RES1    0.0000
      8 C2         7.5014    4.4443   -2.3680 C.2       1 RES1    0.0000
      9 H2         6.8536    4.8679   -2.8831 H         1 RES1    0.0000
     10 C3         8.7086    4.1131   -2.8931 C.2       1 RES1    0.0000
     11 H3         8.8855    4.3090   -3.7845 H         1 RES1    0.0000
     12 C4         9.7037    3.4784   -2.1150 C.2       1 RES1    0.0000
     13 H4        10.5308    3.2958   -2.5001 H         1 RES1    0.0000
     14 C5         9.4858    3.1277   -0.8252 C.2       1 RES1    0.0000
     15 H5        10.1475    2.7011   -0.3303 H         1 RES1    0.0000
     16 C6         8.2216    3.4271   -0.2440 C.2       1 RES1    0.0000
     17 C7         7.6248    3.2958    1.0182 C.2       1 RES1    0.0000
     18 C8         7.9669    2.7052    2.3101 C.2       1 RES1    0.0000
     19 C9         7.3181    3.2774    3.4956 C.ar      1 RES1    0.0000
     20 C10        6.1314    3.9983    3.3494 C.ar      1 RES1    0.0000
     21 C11        5.4168    4.0977    2.0118 C.3       1 RES1    0.0000
     22 C12        4.3616    3.0015    1.8504 C.3       1 RES1    0.0000
     23 H6         3.6948    3.0959    2.5336 H         1 RES1    0.0000
     24 H7         4.7799    2.1401    1.9289 H         1 RES1    0.0000
     25 H8         3.9487    3.0784    0.9876 H         1 RES1    0.0000
     26 C13        5.5542    4.6023    4.4597 C.ar      1 RES1    0.0000
     27 H9         4.7708    5.0945    4.3605 H         1 RES1    0.0000
     28 C14        6.1293    4.4813    5.7061 C.ar      1 RES1    0.0000
     29 H10        5.7350    4.8925    6.4410 H         1 RES1    0.0000
     30 C15        7.2927    3.7501    5.8649 C.ar      1 RES1    0.0000
     31 H11        7.6741    3.6619    6.7090 H         1 RES1    0.0000
     32 C16        7.8864    3.1533    4.7774 C.ar      1 RES1    0.0000
     33 H12        8.6694    2.6631    4.8902 H         1 RES1    0.0000
     34 C17       10.0616    0.0318    1.6338 C.3       1 RES1    0.0000
     35 H13       10.2500   -0.4461    0.8233 H         1 RES1    0.0000
     36 H14        9.6033   -0.5466    2.2480 H         1 RES1    0.0000
     37 H15       10.8846    0.3292    2.0295 H         1 RES1    0.0000
@<TRIPOS>BOND
     1    1    2 1
     2    3    6 1
     3    4    5 1
     4    5   17 1
     5    6   18 2
     6    7    4 2
     7    8    7 1
     8    9    8 1
     9   10    8 2
    10   11   10 1
    11   12   10 1
    12   13   12 1
    13   14   12 2
    14   15   14 1
    15   16    7 1
    16   17   16 2
    17   18   17 1
    18   19   18 1
    19   20   19 ar
    20   21    1 1
    21   22   21 1
    22   23   22 1
    23   24   22 1
    24   25   22 1
    25   26   20 ar
    26   27   26 1
    27   28   26 ar
    28   29   28 1
    29   30   28 ar
    30   31   30 1
    31   32   19 ar
    32   33   32 1
    33   34    3 1
    34   35   34 1
    35   36   34 1
    36   37   34 1
    37    5   21 1
    38   14   16 1
    39   20   21 1
    40   30   32 ar
@<TRIPOS>SUBSTRUCTURE
     1 RES1 1

@<TRIPOS>CRYSIN
   8.8381   10.2546   16.1701  90.0000  99.3580  90.0000 231 1

