# MOL2 file generated by ConQuest
# Please check atom types

@<TRIPOS>MOLECULE
ZIMTIB
   224   232     1
SMALL
NO_CHARGES
****
Generated from CSD

@<TRIPOS>ATOM
      1 O1        -2.2207    0.3095    6.1053 O.3       1 RES1    0.0000
      2 O2        -0.2966   -3.8976    4.7353 O.3       1 RES1    0.0000
      3 C1        -3.6983   -6.1379    6.5313 C.3       1 RES1    0.0000
      4 H1        -4.2062   -6.7154    7.1044 H         1 RES1    0.0000
      5 H2        -4.0857   -5.2583    6.5402 H         1 RES1    0.0000
      6 H3        -3.7119   -6.4830    5.6361 H         1 RES1    0.0000
      7 O3        -2.4021    2.8515    4.1252 O.3       1 RES1    0.0000
      8 O4         2.7604    3.4885    8.0625 O.2       1 RES1    0.0000
      9 O5         4.1281    5.0788    1.7316 O.2       1 RES1    0.0000
     10 O6        -1.5712    0.1851    0.2002 O.2       1 RES1    0.0000
     11 O7        -0.5982    1.4842    1.6104 O.2       1 RES1    0.0000
     12 O8        -1.6466    4.7711   -0.5618 O.3       1 RES1    0.0000
     13 C2        -4.4102   -2.5370    8.5726 C.3       1 RES1    0.0000
     14 H4        -5.0804   -2.8540    9.1830 H         1 RES1    0.0000
     15 H5        -4.0238   -3.2821    8.1063 H         1 RES1    0.0000
     16 H6        -3.7253   -2.0752    9.0602 H         1 RES1    0.0000
     17 C3        -5.0226   -1.6220    7.6044 C.3       1 RES1    0.0000
     18 H7        -5.4311   -0.8866    8.0885 H         1 RES1    0.0000
     19 H8        -5.7287   -2.0935    7.1346 H         1 RES1    0.0000
     20 C4        -4.0761   -1.0701    6.6096 C.3       1 RES1    0.0000
     21 H9        -4.5715   -0.5220    5.9814 H         1 RES1    0.0000
     22 H10       -3.6863   -1.8057    6.1113 H         1 RES1    0.0000
     23 C5        -2.9611   -0.2419    7.1967 C.3       1 RES1    0.0000
     24 H11       -3.3242    0.4672    7.7486 H         1 RES1    0.0000
     25 H12       -2.3853   -0.7969    7.7468 H         1 RES1    0.0000
     26 C6        -1.0041    0.8579    6.4425 C.ar      1 RES1    0.0000
     27 C7        -0.9332    2.1854    6.8584 C.ar      1 RES1    0.0000
     28 C8        -2.1532    3.0898    6.9307 C.3       1 RES1    0.0000
     29 H13       -2.9450    2.5847    6.6879 H         1 RES1    0.0000
     30 H14       -2.2672    3.4054    7.8411 H         1 RES1    0.0000
     31 C9        -2.0074    4.2737    6.0026 C.ar      1 RES1    0.0000
     32 C10       -2.1034    4.0996    4.6160 C.ar      1 RES1    0.0000
     33 C11       -1.8594    5.1446    3.7170 C.ar      1 RES1    0.0000
     34 C12       -1.9075    4.9271    2.2361 C.3       1 RES1    0.0000
     35 H15       -2.4193    5.6464    1.8348 H         1 RES1    0.0000
     36 H16       -2.3808    4.0989    2.0608 H         1 RES1    0.0000
     37 C13       -0.5480    4.8618    1.5535 C.ar      1 RES1    0.0000
     38 C14       -0.4849    4.7428    0.1659 C.ar      1 RES1    0.0000
     39 C15        0.7281    4.6983   -0.5182 C.ar      1 RES1    0.0000
     40 C16       -0.7885   -4.5466    2.0135 C.3       1 RES1    0.0000
     41 H17       -0.0491   -5.0380    2.4043 H         1 RES1    0.0000
     42 H18       -1.6096   -4.9533    2.3331 H         1 RES1    0.0000
     43 C17       -0.7335   -3.1096    2.5118 C.ar      1 RES1    0.0000
     44 C18       -0.4807   -2.8546    3.8554 C.ar      1 RES1    0.0000
     45 C19       -0.3314   -1.5536    4.3502 C.ar      1 RES1    0.0000
     46 C20        0.0220   -1.3700    5.8132 C.3       1 RES1    0.0000
     47 H19       -0.6525   -1.8140    6.3498 H         1 RES1    0.0000
     48 H20        0.8679   -1.8148    5.9814 H         1 RES1    0.0000
     49 C21        0.1349    0.0632    6.2813 C.ar      1 RES1    0.0000
     50 C22       -1.4670   -4.5590    5.2037 C.3       1 RES1    0.0000
     51 H21       -2.1537   -3.8883    5.3389 H         1 RES1    0.0000
     52 H22       -1.7772   -5.1485    4.4989 H         1 RES1    0.0000
     53 C23       -1.3695   -5.2855    6.3409 C.3       1 RES1    0.0000
     54 H23       -1.0628   -4.6601    7.0154 H         1 RES1    0.0000
     55 H24       -0.6306   -5.8954    6.1878 H         1 RES1    0.0000
     56 C24       -2.3736   -6.0698    6.9869 C.3       1 RES1    0.0000
     57 H25       -2.0422   -6.9806    7.0100 H         1 RES1    0.0000
     58 H26       -2.4122   -5.7656    7.9070 H         1 RES1    0.0000
     59 C25       -2.3572    3.5481   -0.7581 C.3       1 RES1    0.0000
     60 H27       -1.7915    2.9327   -1.2511 H         1 RES1    0.0000
     61 H28       -2.5420    3.1509    0.1068 H         1 RES1    0.0000
     62 C26       -3.5389    3.7048   -1.4380 C.3       1 RES1    0.0000
     63 H29       -3.3189    4.1294   -2.2797 H         1 RES1    0.0000
     64 H30       -4.0634    4.3465   -0.9325 H         1 RES1    0.0000
     65 C27       -3.8137    2.6395    3.9134 C.3       1 RES1    0.0000
     66 H31       -4.2050    3.4282    3.5059 H         1 RES1    0.0000
     67 H32       -4.2533    2.4900    4.7659 H         1 RES1    0.0000
     68 C28       -4.0225    1.4712    3.0343 C.3       1 RES1    0.0000
     69 H33       -3.8847    0.6695    3.5629 H         1 RES1    0.0000
     70 H34       -3.3381    1.4846    2.3491 H         1 RES1    0.0000
     71 C29        0.3142    2.6940    7.1828 C.ar      1 RES1    0.0000
     72 H35        0.3948    3.5647    7.4977 H         1 RES1    0.0000
     73 C30        1.4335    1.9075    7.0396 C.ar      1 RES1    0.0000
     74 N1         2.7336    2.4540    7.4161 N.pl3     1 RES1    0.0000
     75 O9         3.7398    1.8456    7.0866 O.2       1 RES1    0.0000
     76 C31        1.3639    0.6053    6.5697 C.ar      1 RES1    0.0000
     77 H36        2.1390    0.1057    6.4512 H         1 RES1    0.0000
     78 C32        1.9024    4.8007    0.2125 C.ar      1 RES1    0.0000
     79 H37        2.7274    4.7899   -0.2171 H         1 RES1    0.0000
     80 C33        1.8315    4.9182    1.5785 C.ar      1 RES1    0.0000
     81 C34        0.6327    4.9419    2.2632 C.ar      1 RES1    0.0000
     82 H38        0.6206    5.0100    3.1909 H         1 RES1    0.0000
     83 C35       -1.7134    5.5345    6.4840 C.ar      1 RES1    0.0000
     84 H39       -1.6637    5.6875    7.3998 H         1 RES1    0.0000
     85 C36       -1.4904    6.5707    5.5881 C.ar      1 RES1    0.0000
     86 C37       -1.5528    6.3996    4.2413 C.ar      1 RES1    0.0000
     87 H40       -1.3922    7.1171    3.6714 H         1 RES1    0.0000
     88 N2        -1.1984    7.9185    6.1149 N.pl3     1 RES1    0.0000
     89 O10       -0.8373    8.7735    5.3318 O.2       1 RES1    0.0000
     90 O11       -1.3236    8.0992    7.2983 O.2       1 RES1    0.0000
     91 N3         3.0826    5.0646    2.3292 N.pl3     1 RES1    0.0000
     92 O12        3.0255    5.1743    3.5201 O.2       1 RES1    0.0000
     93 C38       -0.9201   -2.0263    1.6617 C.ar      1 RES1    0.0000
     94 H41       -1.1275   -2.1599    0.7652 H         1 RES1    0.0000
     95 C39       -0.7938   -0.7502    2.1687 C.ar      1 RES1    0.0000
     96 C40       -0.4886   -0.4912    3.4767 C.ar      1 RES1    0.0000
     97 H42       -0.3885    0.3838    3.7746 H         1 RES1    0.0000
     98 N4        -1.0077    0.3900    1.2568 N.pl3     1 RES1    0.0000
     99 C41       -4.4150    2.6212   -1.7458 C.3       1 RES1    0.0000
    100 H43       -5.0913    2.5649   -1.0536 H         1 RES1    0.0000
    101 H44       -3.9048    1.7969   -1.7209 H         1 RES1    0.0000
    102 C42       -5.0730    2.7106   -3.0201 C.3       1 RES1    0.0000
    103 H45       -5.6379    1.9428   -3.1411 H         1 RES1    0.0000
    104 H46       -5.6058    3.5076   -3.0485 H         1 RES1    0.0000
    105 H47       -4.4153    2.7375   -3.7177 H         1 RES1    0.0000
    106 C43       -6.3973    1.2508    3.3262 C.3       1 RES1    0.0000
    107 H48       -7.2543    1.1775    2.9008 H         1 RES1    0.0000
    108 H49       -6.2398    0.4712    3.8636 H         1 RES1    0.0000
    109 H50       -6.3816    2.0329    3.8832 H         1 RES1    0.0000
    110 C44       -5.3892    1.3546    2.3420 C.3       1 RES1    0.0000
    111 H51       -5.5463    2.1366    1.7903 H         1 RES1    0.0000
    112 H52       -5.4043    0.5711    1.7707 H         1 RES1    0.0000
    113 O1A        2.2207   -0.3095   -6.1053 O.3       1 RES1    0.0000
    114 O2A        0.2966    3.8976   -4.7353 O.3       1 RES1    0.0000
    115 C1A        3.6983    6.1379   -6.5313 C.3       1 RES1    0.0000
    116 H1A        4.2062    6.7154   -7.1044 H         1 RES1    0.0000
    117 H2A        4.0857    5.2583   -6.5402 H         1 RES1    0.0000
    118 H3A        3.7119    6.4830   -5.6361 H         1 RES1    0.0000
    119 O3A        2.4021   -2.8515   -4.1252 O.3       1 RES1    0.0000
    120 O4A       -2.7604   -3.4885   -8.0625 O.2       1 RES1    0.0000
    121 O5A       -4.1281   -5.0788   -1.7316 O.2       1 RES1    0.0000
    122 O6A        1.5712   -0.1851   -0.2002 O.2       1 RES1    0.0000
    123 O7A        0.5982   -1.4842   -1.6104 O.2       1 RES1    0.0000
    124 O8A        1.6466   -4.7711    0.5618 O.3       1 RES1    0.0000
    125 C2A        4.4102    2.5370   -8.5726 C.3       1 RES1    0.0000
    126 H4A        5.0804    2.8540   -9.1830 H         1 RES1    0.0000
    127 H5A        4.0238    3.2821   -8.1063 H         1 RES1    0.0000
    128 H6A        3.7253    2.0752   -9.0602 H         1 RES1    0.0000
    129 C3A        5.0226    1.6220   -7.6044 C.3       1 RES1    0.0000
    130 H7A        5.4311    0.8866   -8.0885 H         1 RES1    0.0000
    131 H8A        5.7287    2.0935   -7.1346 H         1 RES1    0.0000
    132 C4A        4.0761    1.0701   -6.6096 C.3       1 RES1    0.0000
    133 H9A        4.5715    0.5220   -5.9814 H         1 RES1    0.0000
    134 H10A       3.6863    1.8057   -6.1113 H         1 RES1    0.0000
    135 C5A        2.9611    0.2419   -7.1967 C.3       1 RES1    0.0000
    136 H11A       3.3242   -0.4672   -7.7486 H         1 RES1    0.0000
    137 H12A       2.3853    0.7969   -7.7468 H         1 RES1    0.0000
    138 C6A        1.0041   -0.8579   -6.4425 C.ar      1 RES1    0.0000
    139 C7A        0.9332   -2.1854   -6.8584 C.ar      1 RES1    0.0000
    140 C8A        2.1532   -3.0898   -6.9307 C.3       1 RES1    0.0000
    141 H13A       2.9450   -2.5847   -6.6879 H         1 RES1    0.0000
    142 H14A       2.2672   -3.4054   -7.8411 H         1 RES1    0.0000
    143 C9A        2.0074   -4.2737   -6.0026 C.ar      1 RES1    0.0000
    144 C10A       2.1034   -4.0996   -4.6160 C.ar      1 RES1    0.0000
    145 C11A       1.8594   -5.1446   -3.7170 C.ar      1 RES1    0.0000
    146 C12A       1.9075   -4.9271   -2.2361 C.3       1 RES1    0.0000
    147 H15A       2.4193   -5.6464   -1.8348 H         1 RES1    0.0000
    148 H16A       2.3808   -4.0989   -2.0608 H         1 RES1    0.0000
    149 C13A       0.5480   -4.8618   -1.5535 C.ar      1 RES1    0.0000
    150 C14A       0.4849   -4.7428   -0.1659 C.ar      1 RES1    0.0000
    151 C15A      -0.7281   -4.6983    0.5182 C.ar      1 RES1    0.0000
    152 C16A       0.7885    4.5466   -2.0135 C.3       1 RES1    0.0000
    153 H17A       0.0491    5.0380   -2.4043 H         1 RES1    0.0000
    154 H18A       1.6096    4.9533   -2.3331 H         1 RES1    0.0000
    155 C17A       0.7335    3.1096   -2.5118 C.ar      1 RES1    0.0000
    156 C18A       0.4807    2.8546   -3.8554 C.ar      1 RES1    0.0000
    157 C19A       0.3314    1.5536   -4.3502 C.ar      1 RES1    0.0000
    158 C20A      -0.0220    1.3700   -5.8132 C.3       1 RES1    0.0000
    159 H19A       0.6525    1.8140   -6.3498 H         1 RES1    0.0000
    160 H20A      -0.8679    1.8148   -5.9814 H         1 RES1    0.0000
    161 C21A      -0.1349   -0.0632   -6.2813 C.ar      1 RES1    0.0000
    162 C22A       1.4670    4.5590   -5.2037 C.3       1 RES1    0.0000
    163 H21A       2.1537    3.8883   -5.3389 H         1 RES1    0.0000
    164 H22A       1.7772    5.1485   -4.4989 H         1 RES1    0.0000
    165 C23A       1.3695    5.2855   -6.3409 C.3       1 RES1    0.0000
    166 H23A       1.0628    4.6601   -7.0154 H         1 RES1    0.0000
    167 H24A       0.6306    5.8954   -6.1878 H         1 RES1    0.0000
    168 C24A       2.3736    6.0698   -6.9869 C.3       1 RES1    0.0000
    169 H25A       2.0422    6.9806   -7.0100 H         1 RES1    0.0000
    170 H26A       2.4122    5.7656   -7.9070 H         1 RES1    0.0000
    171 C25A       2.3572   -3.5481    0.7581 C.3       1 RES1    0.0000
    172 H27A       1.7915   -2.9327    1.2511 H         1 RES1    0.0000
    173 H28A       2.5420   -3.1509   -0.1068 H         1 RES1    0.0000
    174 C26A       3.5389   -3.7048    1.4380 C.3       1 RES1    0.0000
    175 H29A       3.3189   -4.1294    2.2797 H         1 RES1    0.0000
    176 H30A       4.0634   -4.3465    0.9325 H         1 RES1    0.0000
    177 C27A       3.8137   -2.6395   -3.9134 C.3       1 RES1    0.0000
    178 H31A       4.2050   -3.4282   -3.5059 H         1 RES1    0.0000
    179 H32A       4.2533   -2.4900   -4.7659 H         1 RES1    0.0000
    180 C28A       4.0225   -1.4712   -3.0343 C.3       1 RES1    0.0000
    181 H33A       3.8847   -0.6695   -3.5629 H         1 RES1    0.0000
    182 H34A       3.3381   -1.4846   -2.3491 H         1 RES1    0.0000
    183 C29A      -0.3142   -2.6940   -7.1828 C.ar      1 RES1    0.0000
    184 H35A      -0.3948   -3.5647   -7.4977 H         1 RES1    0.0000
    185 C30A      -1.4335   -1.9075   -7.0396 C.ar      1 RES1    0.0000
    186 N1A       -2.7336   -2.4540   -7.4161 N.pl3     1 RES1    0.0000
    187 O9A       -3.7398   -1.8456   -7.0866 O.2       1 RES1    0.0000
    188 C31A      -1.3639   -0.6053   -6.5697 C.ar      1 RES1    0.0000
    189 H36A      -2.1390   -0.1057   -6.4512 H         1 RES1    0.0000
    190 C32A      -1.9024   -4.8007   -0.2125 C.ar      1 RES1    0.0000
    191 H37A      -2.7274   -4.7899    0.2171 H         1 RES1    0.0000
    192 C33A      -1.8315   -4.9182   -1.5785 C.ar      1 RES1    0.0000
    193 C34A      -0.6327   -4.9419   -2.2632 C.ar      1 RES1    0.0000
    194 H38A      -0.6206   -5.0100   -3.1909 H         1 RES1    0.0000
    195 C35A       1.7134   -5.5345   -6.4840 C.ar      1 RES1    0.0000
    196 H39A       1.6637   -5.6875   -7.3998 H         1 RES1    0.0000
    197 C36A       1.4904   -6.5707   -5.5881 C.ar      1 RES1    0.0000
    198 C37A       1.5528   -6.3996   -4.2413 C.ar      1 RES1    0.0000
    199 H40A       1.3922   -7.1171   -3.6714 H         1 RES1    0.0000
    200 N2A        1.1984   -7.9185   -6.1149 N.pl3     1 RES1    0.0000
    201 O10A       0.8373   -8.7735   -5.3318 O.2       1 RES1    0.0000
    202 O11A       1.3236   -8.0992   -7.2983 O.2       1 RES1    0.0000
    203 N3A       -3.0826   -5.0646   -2.3292 N.pl3     1 RES1    0.0000
    204 O12A      -3.0255   -5.1743   -3.5201 O.2       1 RES1    0.0000
    205 C38A       0.9201    2.0263   -1.6617 C.ar      1 RES1    0.0000
    206 H41A       1.1275    2.1599   -0.7652 H         1 RES1    0.0000
    207 C39A       0.7938    0.7502   -2.1687 C.ar      1 RES1    0.0000
    208 C40A       0.4886    0.4912   -3.4767 C.ar      1 RES1    0.0000
    209 H42A       0.3885   -0.3838   -3.7746 H         1 RES1    0.0000
    210 N4A        1.0077   -0.3900   -1.2568 N.pl3     1 RES1    0.0000
    211 C41A       4.4150   -2.6212    1.7458 C.3       1 RES1    0.0000
    212 H43A       5.0913   -2.5649    1.0536 H         1 RES1    0.0000
    213 H44A       3.9048   -1.7969    1.7209 H         1 RES1    0.0000
    214 C42A       5.0730   -2.7106    3.0201 C.3       1 RES1    0.0000
    215 H45A       5.6379   -1.9428    3.1411 H         1 RES1    0.0000
    216 H46A       5.6058   -3.5076    3.0485 H         1 RES1    0.0000
    217 H47A       4.4153   -2.7375    3.7177 H         1 RES1    0.0000
    218 C43A       6.3973   -1.2508   -3.3262 C.3       1 RES1    0.0000
    219 H48A       7.2543   -1.1775   -2.9008 H         1 RES1    0.0000
    220 H49A       6.2398   -0.4712   -3.8636 H         1 RES1    0.0000
    221 H50A       6.3816   -2.0329   -3.8832 H         1 RES1    0.0000
    222 C44A       5.3892   -1.3546   -2.3420 C.3       1 RES1    0.0000
    223 H51A       5.5463   -2.1366   -1.7903 H         1 RES1    0.0000
    224 H52A       5.4043   -0.5711   -1.7707 H         1 RES1    0.0000
@<TRIPOS>BOND
     1    1   23 1
     2    2   44 1
     3    3    4 1
     4    5    3 1
     5    6    3 1
     6    7   32 1
     7    8   74 2
     8    9   91 2
     9   10   98 2
    10   11   98 2
    11   12   38 1
    12   13   14 1
    13   15   13 1
    14   16   13 1
    15   17   13 1
    16   18   17 1
    17   19   17 1
    18   20   17 1
    19   21   20 1
    20   22   20 1
    21   23   20 1
    22   24   23 1
    23   25   23 1
    24   26    1 1
    25   27   26 ar
    26   28   27 1
    27   29   28 1
    28   30   28 1
    29   31   28 1
    30   32   31 ar
    31   33   32 ar
    32   34   33 1
    33   35   34 1
    34   36   34 1
    35   37   34 1
    36   38   37 ar
    37   39   38 ar
    38   40   41 1
    39   42   40 1
    40   43   40 1
    41   44   43 ar
    42   45   44 ar
    43   46   45 1
    44   47   46 1
    45   48   46 1
    46   49   26 ar
    47   50    2 1
    48   51   50 1
    49   52   50 1
    50   53   50 1
    51   54   53 1
    52   55   53 1
    53   56    3 1
    54   57   56 1
    55   58   56 1
    56   59   12 1
    57   60   59 1
    58   61   59 1
    59   62   59 1
    60   63   62 1
    61   64   62 1
    62   65    7 1
    63   66   65 1
    64   67   65 1
    65   68   65 1
    66   69   68 1
    67   70   68 1
    68   71   27 ar
    69   72   71 1
    70   73   71 ar
    71   74   73 1
    72   75   74 2
    73   76   49 ar
    74   77   76 1
    75   78   39 ar
    76   79   78 1
    77   80   78 ar
    78   81   37 ar
    79   82   81 1
    80   83   31 ar
    81   84   83 1
    82   85   83 ar
    83   86   33 ar
    84   87   86 1
    85   88   85 1
    86   89   88 2
    87   90   88 2
    88   91   80 1
    89   92   91 2
    90   93   43 ar
    91   94   93 1
    92   95   93 ar
    93   96   45 ar
    94   97   96 1
    95   98   95 1
    96   99   62 1
    97  100   99 1
    98  101   99 1
    99  102   99 1
   100  103  102 1
   101  104  102 1
   102  105  102 1
   103  106  107 1
   104  108  106 1
   105  109  106 1
   106  110   68 1
   107  111  110 1
   108  112  110 1
   109  113  135 1
   110  114  156 1
   111  115  116 1
   112  117  115 1
   113  118  115 1
   114  119  144 1
   115  120  186 2
   116  121  203 2
   117  122  210 2
   118  123  210 2
   119  124  150 1
   120  125  126 1
   121  127  125 1
   122  128  125 1
   123  129  125 1
   124  130  129 1
   125  131  129 1
   126  132  129 1
   127  133  132 1
   128  134  132 1
   129  135  132 1
   130  136  135 1
   131  137  135 1
   132  138  113 1
   133  139  138 ar
   134  140  139 1
   135  141  140 1
   136  142  140 1
   137  143  140 1
   138  144  143 ar
   139  145  144 ar
   140  146  145 1
   141  147  146 1
   142  148  146 1
   143  149  146 1
   144  150  149 ar
   145  151   40 1
   146  152   39 1
   147  153  152 1
   148  154  152 1
   149  155  152 1
   150  156  155 ar
   151  157  156 ar
   152  158  157 1
   153  159  158 1
   154  160  158 1
   155  161  138 ar
   156  162  114 1
   157  163  162 1
   158  164  162 1
   159  165  162 1
   160  166  165 1
   161  167  165 1
   162  168  115 1
   163  169  168 1
   164  170  168 1
   165  171  124 1
   166  172  171 1
   167  173  171 1
   168  174  171 1
   169  175  174 1
   170  176  174 1
   171  177  119 1
   172  178  177 1
   173  179  177 1
   174  180  177 1
   175  181  180 1
   176  182  180 1
   177  183  139 ar
   178  184  183 1
   179  185  183 ar
   180  186  185 1
   181  187  186 2
   182  188  161 ar
   183  189  188 1
   184  190  151 ar
   185  191  190 1
   186  192  190 ar
   187  193  149 ar
   188  194  193 1
   189  195  143 ar
   190  196  195 1
   191  197  195 ar
   192  198  145 ar
   193  199  198 1
   194  200  197 1
   195  201  200 2
   196  202  200 2
   197  203  192 1
   198  204  203 2
   199  205  155 ar
   200  206  205 1
   201  207  205 ar
   202  208  157 ar
   203  209  208 1
   204  210  207 1
   205  211  174 1
   206  212  211 1
   207  213  211 1
   208  214  211 1
   209  215  214 1
   210  216  214 1
   211  217  214 1
   212  218  219 1
   213  220  218 1
   214  221  218 1
   215  222  180 1
   216  223  222 1
   217  224  222 1
   218   46   49 1
   219   53   56 1
   220   73   76 ar
   221   80   81 ar
   222   85   86 ar
   223   95   96 ar
   224  106  110 1
   225  150  151 ar
   226  158  161 1
   227  165  168 1
   228  185  188 ar
   229  192  193 ar
   230  197  198 ar
   231  207  208 ar
   232  218  222 1
@<TRIPOS>SUBSTRUCTURE
     1 RES1 1

@<TRIPOS>CRYSIN
   9.4727   13.2969   18.7268 100.3920 101.2630 105.7210   2 1

