# MOL2 file generated by ConQuest
# Please check atom types

@<TRIPOS>MOLECULE
ZIMZEC
    51    55     1
SMALL
NO_CHARGES
****
Generated from CSD

@<TRIPOS>ATOM
      1 O1         2.0785    1.2040    1.6321 O.2       1 RES1    0.0000
      2 O2         7.3970    3.0437    2.1409 O.2       1 RES1    0.0000
      3 O3         5.2655    9.0591    5.1122 O.2       1 RES1    0.0000
      4 O4         5.5474    9.6241    3.0403 O.2       1 RES1    0.0000
      5 N1         5.2777    2.3894    2.5671 N.am      1 RES1    0.0000
      6 N2         5.4833    8.7975    3.9378 N.pl3     1 RES1    0.0000
      7 C1         5.5116    1.0357    2.2255 C.ar      1 RES1    0.0000
      8 C2         6.7045    0.3254    2.2546 C.ar      1 RES1    0.0000
      9 H1         7.5049    0.7334    2.4956 H         1 RES1    0.0000
     10 C3         6.6557   -1.0056    1.9122 C.ar      1 RES1    0.0000
     11 H2         7.4412   -1.5028    1.9416 H         1 RES1    0.0000
     12 C4         5.4903   -1.6332    1.5275 C.ar      1 RES1    0.0000
     13 H3         5.5028   -2.5350    1.2992 H         1 RES1    0.0000
     14 C5         4.3130   -0.9306    1.4806 C.ar      1 RES1    0.0000
     15 H4         3.5236   -1.3382    1.2072 H         1 RES1    0.0000
     16 C6         4.3338    0.4029    1.8515 C.ar      1 RES1    0.0000
     17 C7         3.2387    1.3569    1.9326 C.2       1 RES1    0.0000
     18 C8         3.8007    2.6644    2.5819 C.3       1 RES1    0.0000
     19 C9         3.2260    2.6252    3.9950 C.ar      1 RES1    0.0000
     20 C10        3.9667    2.1640    5.0746 C.ar      1 RES1    0.0000
     21 H5         4.8590    1.9287    4.9542 H         1 RES1    0.0000
     22 C11        3.3918    2.0502    6.3243 C.ar      1 RES1    0.0000
     23 H6         3.8998    1.7425    7.0403 H         1 RES1    0.0000
     24 C12        2.0823    2.3876    6.5163 C.ar      1 RES1    0.0000
     25 H7         1.7048    2.3358    7.3650 H         1 RES1    0.0000
     26 C13        1.3299    2.8017    5.4507 C.ar      1 RES1    0.0000
     27 H8         0.4327    3.0114    5.5763 H         1 RES1    0.0000
     28 C14        1.8830    2.9115    4.1944 C.ar      1 RES1    0.0000
     29 H9         1.3549    3.1789    3.4771 H         1 RES1    0.0000
     30 C15        3.4775    3.8731    1.7113 C.ar      1 RES1    0.0000
     31 C16        2.9403    5.0556    2.1883 C.ar      1 RES1    0.0000
     32 H10        2.6940    5.1249    3.0819 H         1 RES1    0.0000
     33 C17        2.7674    6.1396    1.3378 C.ar      1 RES1    0.0000
     34 H11        2.4026    6.9294    1.6657 H         1 RES1    0.0000
     35 C18        3.1300    6.0529    0.0192 C.ar      1 RES1    0.0000
     36 H12        3.0218    6.7851   -0.5433 H         1 RES1    0.0000
     37 C19        3.6557    4.8777   -0.4720 C.ar      1 RES1    0.0000
     38 H13        3.8994    4.8131   -1.3672 H         1 RES1    0.0000
     39 C20        3.8174    3.7996    0.3697 C.ar      1 RES1    0.0000
     40 H14        4.1625    3.0056    0.0310 H         1 RES1    0.0000
     41 C21        6.2758    3.3370    2.5030 C.2       1 RES1    0.0000
     42 C22        5.9938    4.7451    2.9047 C.ar      1 RES1    0.0000
     43 C23        5.6206    5.0949    4.1924 C.ar      1 RES1    0.0000
     44 H15        5.4651    4.4319    4.8264 H         1 RES1    0.0000
     45 C24        5.4785    6.4252    4.5377 C.ar      1 RES1    0.0000
     46 H16        5.2511    6.6681    5.4068 H         1 RES1    0.0000
     47 C25        5.6784    7.3782    3.5754 C.ar      1 RES1    0.0000
     48 C26        6.0552    7.0674    2.2952 C.ar      1 RES1    0.0000
     49 H17        6.1817    7.7364    1.6610 H         1 RES1    0.0000
     50 C27        6.2425    5.7433    1.9677 C.ar      1 RES1    0.0000
     51 H18        6.5369    5.5147    1.1153 H         1 RES1    0.0000
@<TRIPOS>BOND
     1    1   17 2
     2    2   41 2
     3    3    6 2
     4    4    6 2
     5    5    7 1
     6    6   47 1
     7    7    8 ar
     8    8    9 1
     9   10    8 ar
    10   11   10 1
    11   12   10 ar
    12   13   12 1
    13   14   12 ar
    14   15   14 1
    15   16    7 ar
    16   17   16 1
    17   18    5 1
    18   19   18 1
    19   20   19 ar
    20   21   20 1
    21   22   20 ar
    22   23   22 1
    23   24   22 ar
    24   25   24 1
    25   26   24 ar
    26   27   26 1
    27   28   19 ar
    28   29   28 1
    29   30   18 1
    30   31   30 ar
    31   32   31 1
    32   33   31 ar
    33   34   33 1
    34   35   33 ar
    35   36   35 1
    36   37   35 ar
    37   38   37 1
    38   39   30 ar
    39   40   39 1
    40   41    5 1
    41   42   41 1
    42   43   42 ar
    43   44   43 1
    44   45   43 ar
    45   46   45 1
    46   47   45 ar
    47   48   47 ar
    48   49   48 1
    49   50   42 ar
    50   51   50 1
    51   14   16 ar
    52   17   18 1
    53   26   28 ar
    54   37   39 ar
    55   48   50 ar
@<TRIPOS>SUBSTRUCTURE
     1 RES1 1

@<TRIPOS>CRYSIN
  12.0042   14.4363   12.4330  90.0000 106.1770  90.0000 231 1

