# MOL2 file generated by ConQuest
# Please check atom types

@<TRIPOS>MOLECULE
ZIMZAY
    49    53     1
SMALL
NO_CHARGES
****
Generated from CSD

@<TRIPOS>ATOM
      1 O1         1.4034    3.2734    7.7506 O.3       1 RES1    0.0000
      2 O2         6.9047    7.0588    6.5207 O.2       1 RES1    0.0000
      3 O3         7.8392    6.3149    8.3196 O.2       1 RES1    0.0000
      4 N1         2.0768    2.8557    9.9369 N.2       1 RES1    0.0000
      5 N2        -0.5040    5.1901    3.9196 N.ar      1 RES1    0.0000
      6 N3         6.8945    6.3957    7.5493 N.pl3     1 RES1    0.0000
      7 C1         0.9027    2.1030   10.1379 C.ar      1 RES1    0.0000
      8 C2         0.7501    1.4951   11.3824 C.ar      1 RES1    0.0000
      9 H1         1.3969    1.6175   12.0381 H         1 RES1    0.0000
     10 C3        -0.3478    0.7170   11.6453 C.ar      1 RES1    0.0000
     11 H2        -0.4597    0.3312   12.4840 H         1 RES1    0.0000
     12 C4        -1.2846    0.5114   10.6584 C.ar      1 RES1    0.0000
     13 H3        -2.0219   -0.0277   10.8307 H         1 RES1    0.0000
     14 C5        -1.1439    1.0954    9.4183 C.ar      1 RES1    0.0000
     15 H4        -1.7820    0.9339    8.7609 H         1 RES1    0.0000
     16 C6        -0.0569    1.9268    9.1313 C.ar      1 RES1    0.0000
     17 C7         0.1676    2.6077    7.8518 C.2       1 RES1    0.0000
     18 C8        -0.5927    2.7300    6.7471 C.2       1 RES1    0.0000
     19 C9        -1.9828    2.1876    6.6809 C.ar      1 RES1    0.0000
     20 C10       -3.0117    2.7725    7.4007 C.ar      1 RES1    0.0000
     21 H5        -2.8464    3.5433    7.8936 H         1 RES1    0.0000
     22 C11       -4.2757    2.2317    7.3990 C.ar      1 RES1    0.0000
     23 H6        -4.9558    2.6297    7.8936 H         1 RES1    0.0000
     24 C12       -4.5272    1.1052    6.6667 C.ar      1 RES1    0.0000
     25 H7        -5.3813    0.7349    6.6732 H         1 RES1    0.0000
     26 C13       -3.5266    0.5065    5.9117 C.ar      1 RES1    0.0000
     27 H8        -3.7097   -0.2545    5.4089 H         1 RES1    0.0000
     28 C14       -2.2363    1.0604    5.9140 C.ar      1 RES1    0.0000
     29 H9        -1.5586    0.6754    5.4072 H         1 RES1    0.0000
     30 C15       -0.1023    3.4470    5.5389 C.ar      1 RES1    0.0000
     31 C16        1.1130    3.1721    4.9292 C.ar      1 RES1    0.0000
     32 H10        1.6672    2.5041    5.2624 H         1 RES1    0.0000
     33 C17        1.4900    3.9087    3.8166 C.ar      1 RES1    0.0000
     34 H11        2.2926    3.7333    3.3814 H         1 RES1    0.0000
     35 C18        0.6544    4.9014    3.3690 C.ar      1 RES1    0.0000
     36 H12        0.9259    5.4006    2.6312 H         1 RES1    0.0000
     37 C19       -0.8635    4.4536    4.9695 C.ar      1 RES1    0.0000
     38 H13       -1.6926    4.6306    5.3519 H         1 RES1    0.0000
     39 C20        2.2491    3.3719    8.7961 C.2       1 RES1    0.0000
     40 C21        3.4415    4.1739    8.4674 C.ar      1 RES1    0.0000
     41 C22        3.6318    4.6868    7.1923 C.ar      1 RES1    0.0000
     42 H14        2.9972    4.5253    6.5316 H         1 RES1    0.0000
     43 C23        4.7522    5.4348    6.8974 C.ar      1 RES1    0.0000
     44 H15        4.8794    5.7864    6.0467 H         1 RES1    0.0000
     45 C24        5.6751    5.6469    7.8905 C.ar      1 RES1    0.0000
     46 C25        5.5148    5.1648    9.1689 C.ar      1 RES1    0.0000
     47 H16        6.1551    5.3312    9.8235 H         1 RES1    0.0000
     48 C26        4.3896    4.4315    9.4566 C.ar      1 RES1    0.0000
     49 H17        4.2579    4.1053   10.3182 H         1 RES1    0.0000
@<TRIPOS>BOND
     1    1   17 1
     2    2    6 2
     3    3    6 2
     4    4    7 1
     5    5   35 ar
     6    6   45 1
     7    7    8 ar
     8    8    9 1
     9   10    8 ar
    10   11   10 1
    11   12   10 ar
    12   13   12 1
    13   14   12 ar
    14   15   14 1
    15   16    7 ar
    16   17   16 1
    17   18   17 2
    18   19   18 1
    19   20   19 ar
    20   21   20 1
    21   22   20 ar
    22   23   22 1
    23   24   22 ar
    24   25   24 1
    25   26   24 ar
    26   27   26 1
    27   28   19 ar
    28   29   28 1
    29   30   18 1
    30   31   30 ar
    31   32   31 1
    32   33   31 ar
    33   34   33 1
    34   35   33 ar
    35   36   35 1
    36   37    5 ar
    37   38   37 1
    38   39    1 1
    39   40   39 1
    40   41   40 ar
    41   42   41 1
    42   43   41 ar
    43   44   43 1
    44   45   43 ar
    45   46   45 ar
    46   47   46 1
    47   48   40 ar
    48   49   48 1
    49    4   39 2
    50   14   16 ar
    51   26   28 ar
    52   30   37 ar
    53   46   48 ar
@<TRIPOS>SUBSTRUCTURE
     1 RES1 1

@<TRIPOS>CRYSIN
  31.2970    8.1567   18.7872  90.0000 119.9880  90.0000  15 1

