# MOL2 file generated by ConQuest
# Please check atom types

@<TRIPOS>MOLECULE
ZIPREX
    40    41     1
SMALL
NO_CHARGES
****
Generated from CSD

@<TRIPOS>ATOM
      1 N1         0.1182    0.9455    7.8500 N.pl3     1 RES1    0.0000
      2 N2         0.7524   -0.2403    7.7312 N.2       1 RES1    0.0000
      3 C1         1.2309   -0.2557    6.4858 C.2       1 RES1    0.0000
      4 C2         0.8849    0.9398    5.8134 C.2       1 RES1    0.0000
      5 C3         0.1782    1.6926    6.7074 C.2       1 RES1    0.0000
      6 H1        -0.1936    2.5551    6.5641 H         1 RES1    0.0000
      7 C4        -0.4195    1.3187    9.1115 C.ar      1 RES1    0.0000
      8 C5        -0.4074    0.3834   10.1477 C.ar      1 RES1    0.0000
      9 H2        -0.1143   -0.5056    9.9879 H         1 RES1    0.0000
     10 C6        -0.8267    0.7644   11.4088 C.ar      1 RES1    0.0000
     11 H3        -0.8274    0.1424   12.1274 H         1 RES1    0.0000
     12 C7        -1.2458    2.0698   11.6063 C.ar      1 RES1    0.0000
     13 C8        -1.3177    2.9924   10.5753 C.ar      1 RES1    0.0000
     14 H4        -1.6421    3.8715   10.7347 H         1 RES1    0.0000
     15 C9        -0.9080    2.6091    9.3064 C.ar      1 RES1    0.0000
     16 H5        -0.9602    3.2186    8.5789 H         1 RES1    0.0000
     17 C10        2.0007   -1.4447    6.0563 C.2       1 RES1    0.0000
     18 C11        3.2045   -2.4655    4.3065 C.3       1 RES1    0.0000
     19 H6         2.6440   -3.2767    4.3949 H         1 RES1    0.0000
     20 H7         4.0413   -2.6059    4.8165 H         1 RES1    0.0000
     21 C12        3.5178   -2.2075    2.8599 C.3       1 RES1    0.0000
     22 H8         2.6820   -2.1137    2.3563 H         1 RES1    0.0000
     23 H9         4.0339   -2.9574    2.4988 H         1 RES1    0.0000
     24 H10        4.0404   -1.3822    2.7809 H         1 RES1    0.0000
     25 C13        0.8510    0.7317    3.4752 C.2       1 RES1    0.0000
     26 C14        1.1255    0.7487    1.1329 C.3       1 RES1    0.0000
     27 H11        0.1504    0.5867    1.0809 H         1 RES1    0.0000
     28 H12        1.5944   -0.1080    0.9725 H         1 RES1    0.0000
     29 C15        1.5307    1.7490    0.1210 C.3       1 RES1    0.0000
     30 H13        1.0315    2.5797    0.2658 H         1 RES1    0.0000
     31 H14        1.3371    1.4033   -0.7750 H         1 RES1    0.0000
     32 H15        2.4907    1.9253    0.2034 H         1 RES1    0.0000
     33 N3        -1.6041    2.4938   12.9638 N.pl3     1 RES1    0.0000
     34 O1        -1.6963    3.6920   13.1896 O.2       1 RES1    0.0000
     35 O2        -1.7649    1.6396   13.8162 O.2       1 RES1    0.0000
     36 O3         2.1529   -2.4271    6.7430 O.2       1 RES1    0.0000
     37 O4         2.4894   -1.3018    4.8244 O.3       1 RES1    0.0000
     38 O5         1.2859    1.4035    4.5741 O.3       1 RES1    0.0000
     39 O6         0.0404   -0.1437    3.4685 O.2       1 RES1    0.0000
     40 O7         1.4791    1.2789    2.4503 O.3       1 RES1    0.0000
@<TRIPOS>BOND
     1    1    2 1
     2    2    3 2
     3    3    4 1
     4    4    5 2
     5    5    1 1
     6    6    5 1
     7    7    1 1
     8    8    7 ar
     9    9    8 1
    10   10    8 ar
    11   11   10 1
    12   12   10 ar
    13   13   12 ar
    14   14   13 1
    15   15    7 ar
    16   16   15 1
    17   17    3 1
    18   18   19 1
    19   20   18 1
    20   21   18 1
    21   22   21 1
    22   23   21 1
    23   24   21 1
    24   25   38 1
    25   26   27 1
    26   28   26 1
    27   29   26 1
    28   30   29 1
    29   31   29 1
    30   32   29 1
    31   33   12 1
    32   34   33 2
    33   35   33 2
    34   36   17 2
    35   37   17 1
    36   38    4 1
    37   39   25 2
    38   40   25 1
    39   13   15 ar
    40   18   37 1
    41   26   40 1
@<TRIPOS>SUBSTRUCTURE
     1 RES1 1

@<TRIPOS>CRYSIN
   7.4438    7.7712   15.1103  97.5890  93.8360 113.5510   2 1

