# MOL2 file generated by ConQuest
# Please check atom types

@<TRIPOS>MOLECULE
ZIPSUO
    26    26     2
SMALL
NO_CHARGES
****
Generated from CSD

@<TRIPOS>ATOM
      1 N1         8.4710    5.5376    4.0645 N.2       1 RES1    0.0000
      2 O1         9.4474    4.5650    4.3230 O.3       1 RES1    0.0000
      3 N2        10.2235    4.3660    3.2207 N.2       1 RES1    0.0000
      4 C1         9.7780    5.1673    2.3139 C.2       1 RES1    0.0000
      5 C2         8.6721    5.9184    2.8268 C.2       1 RES1    0.0000
      6 N3         7.9172    6.8121    2.1645 N.3       1 RES1    0.0000
      7 H1         8.0651    6.9233    1.3250 H         1 RES1    0.0000
      8 C3         6.8711    7.5975    2.7812 C.3       1 RES1    0.0000
      9 H2         7.2693    8.1704    3.4553 H         1 RES1    0.0000
     10 C4        10.3936    5.2616    0.9645 C.2       1 RES1    0.0000
     11 O2        10.0563    6.1140    0.1772 O.2       1 RES1    0.0000
     12 O3        11.2807    4.3243    0.7583 O.3       1 RES1    0.0000
     13 H3        11.9355    4.4573    1.2348 H         1 RES1    0.0000
     14 H4         7.2693    8.1704    3.4553 Du        2 SUP2    0.0000
     15 N1A        5.2713    5.5376    1.4978 N.2       1 RES1    0.0000
     16 O1A        4.2948    4.5650    1.2394 O.3       1 RES1    0.0000
     17 N2A        3.5188    4.3660    2.3416 N.2       1 RES1    0.0000
     18 C1A        3.9643    5.1673    3.2484 C.2       1 RES1    0.0000
     19 C2A        5.0702    5.9184    2.7356 C.2       1 RES1    0.0000
     20 N3A        5.8251    6.8121    3.3978 N.pl3     1 RES1    0.0000
     21 H1A        5.6771    6.9233    4.2374 H         1 RES1    0.0000
     22 H2A        6.4730    8.1704    2.1070 H         1 RES1    0.0000
     23 C4A        3.3487    5.2616    4.5978 C.2       1 RES1    0.0000
     24 O2A        3.6860    6.1140    5.3851 O.2       1 RES1    0.0000
     25 O3A        2.4615    4.3243    4.8041 O.3       1 RES1    0.0000
     26 H3A        1.8068    4.4573    4.3275 H         1 RES1    0.0000
@<TRIPOS>BOND
     1    1    2 1
     2    2    3 1
     3    3    4 2
     4    4    5 1
     5    5    1 2
     6    6    5 1
     7    7    6 1
     8    8    6 1
     9    9    8 1
    10   10    4 1
    11   11   10 2
    12   12   10 1
    13   13   12 1
    14   15   16 1
    15   16   17 1
    16   17   18 2
    17   18   19 1
    18   19   15 2
    19   20    8 1
    20   21   20 1
    21   22    8 1
    22   23   18 1
    23   24   23 2
    24   25   23 1
    25   26   25 1
    26   19   20 1
@<TRIPOS>SUBSTRUCTURE
     1 RES1 1
     2 SUP2 14

@<TRIPOS>CRYSIN
  18.0547    4.9647   14.0765  90.0000 127.7860  90.0000  15 1

