# MOL2 file generated by ConQuest
# Please check atom types

@<TRIPOS>MOLECULE
ZIPSOI
   108   112     4
SMALL
NO_CHARGES
****
Generated from CSD

@<TRIPOS>ATOM
      1 N1         6.0945    4.8281    2.1263 N.2       1 RES1    0.0000
      2 O1         5.8302    5.5379    0.9553 O.3       1 RES1    0.0000
      3 N2         4.5274    5.9559    0.9261 N.2       1 RES1    0.0000
      4 C1         3.9849    5.5374    2.0262 C.2       1 RES1    0.0000
      5 C2         4.9656    4.8250    2.7916 C.2       1 RES1    0.0000
      6 N3         4.8158    4.2675    3.9967 N.3       1 RES1    0.0000
      7 H1         4.0383    4.3206    4.4054 H         1 RES1    0.0000
      8 C3         5.9169    3.5755    4.6399 C.3       1 RES1    0.0000
      9 H2         6.2869    2.9099    4.0065 H         1 RES1    0.0000
     10 H3         5.5658    3.0813    5.4237 H         1 RES1    0.0000
     11 N4         6.9958    4.4463    5.0830 N.pl3     1 RES1    0.0000
     12 H4         7.7435    4.4650    4.6206 H         1 RES1    0.0000
     13 C4         6.8890    5.2211    6.1720 C.2       1 RES1    0.0000
     14 N5         5.7765    5.3843    6.8578 N.2       1 RES1    0.0000
     15 O2         6.1020    6.2584    7.9065 O.3       1 RES1    0.0000
     16 N6         7.4174    6.6241    7.8404 N.2       1 RES1    0.0000
     17 C5         7.9189    6.0168    6.8018 C.2       1 RES1    0.0000
     18 C6         2.5434    5.7662    2.3553 C.2       1 RES1    0.0000
     19 N7         1.9105    6.6139    1.5862 N.am      1 RES1    0.0000
     20 H5         1.0587    6.7857    1.7268 H         1 RES1    0.0000
     21 H6         2.3369    7.0132    0.9273 H         1 RES1    0.0000
     22 O3         2.0511    5.1598    3.2925 O.2       1 RES1    0.0000
     23 C7         9.3418    6.1723    6.3683 C.2       1 RES1    0.0000
     24 N8        10.0969    6.9346    7.1593 N.am      1 RES1    0.0000
     25 H7        10.9407    7.0760    6.9581 H         1 RES1    0.0000
     26 H8         9.7489    7.2950    7.8836 H         1 RES1    0.0000
     27 O4         9.7115    5.6207    5.3422 O.2       1 RES1    0.0000
     28 N9         6.2184    0.7404    2.3502 N.2       2 RES2    0.0000
     29 O5         5.8552    1.4228    1.1757 O.3       2 RES2    0.0000
     30 N10        4.5260    1.7544    1.2105 N.2       2 RES2    0.0000
     31 C8         4.0575    1.3125    2.3418 C.2       2 RES2    0.0000
     32 C9         5.1230    0.6528    3.0658 C.2       2 RES2    0.0000
     33 N11        5.0484    0.0531    4.2679 N.3       2 RES2    0.0000
     34 H9         4.2965    0.0934    4.7239 H         2 RES2    0.0000
     35 C10        6.1803   -0.6585    4.8273 C.3       2 RES2    0.0000
     36 H10        6.5628   -1.2427    4.1255 H         2 RES2    0.0000
     37 H11        5.8565   -1.2410    5.5584 H         2 RES2    0.0000
     38 N12        7.2328    0.1940    5.3458 N.pl3     2 RES2    0.0000
     39 H12        8.0113    0.2258    4.9356 H         2 RES2    0.0000
     40 C11        7.0297    0.9385    6.4498 C.2       2 RES2    0.0000
     41 N13        5.8830    1.0249    7.0767 N.2       2 RES2    0.0000
     42 O6         6.0938    1.9196    8.1254 O.3       2 RES2    0.0000
     43 N14        7.3881    2.3586    8.1159 N.2       2 RES2    0.0000
     44 C12        7.9791    1.7892    7.1215 C.2       2 RES2    0.0000
     45 C13        2.6328    1.4965    2.7596 C.2       2 RES2    0.0000
     46 N15        1.8591    2.1126    1.8757 N.am      2 RES2    0.0000
     47 H13        1.0070    2.2444    2.0523 H         2 RES2    0.0000
     48 H14        2.1979    2.3904    1.1127 H         2 RES2    0.0000
     49 O7         2.2668    1.0701    3.8506 O.2       2 RES2    0.0000
     50 C14        9.4171    1.9724    6.8122 C.2       2 RES2    0.0000
     51 N16       10.0409    2.9470    7.4672 N.am      2 RES2    0.0000
     52 H15       10.8957    3.1000    7.3202 H         2 RES2    0.0000
     53 H16        9.5984    3.4395    8.0463 H         2 RES2    0.0000
     54 O8         9.9362    1.2308    5.9883 O.2       2 RES2    0.0000
     55 N17       -1.3788    3.3020    7.0660 N.2       3 RES3    0.0000
     56 O9        -1.1143    4.2273    8.0913 O.3       3 RES3    0.0000
     57 N18        0.1828    4.6435    8.0407 N.2       3 RES3    0.0000
     58 C15        0.7386    4.0144    7.0475 C.2       3 RES3    0.0000
     59 C16       -0.2442    3.1660    6.4239 C.2       3 RES3    0.0000
     60 N19       -0.0856    2.3642    5.3402 N.3       3 RES3    0.0000
     61 H17        0.6736    2.3853    4.8953 H         3 RES3    0.0000
     62 C17       -1.1384    1.4778    4.9020 C.3       3 RES3    0.0000
     63 H18       -0.7574    0.8285    4.2585 H         3 RES3    0.0000
     64 H19       -1.4673    0.9660    5.6826 H         3 RES3    0.0000
     65 N20       -2.2561    2.1415    4.2809 N.pl3     3 RES3    0.0000
     66 H20       -3.0178    2.1985    4.7169 H         3 RES3    0.0000
     67 C18       -2.1620    2.6764    3.0500 C.2       3 RES3    0.0000
     68 N21       -1.0506    2.6999    2.3493 N.2       3 RES3    0.0000
     69 O10       -1.3757    3.3445    1.1552 O.3       3 RES3    0.0000
     70 N22       -2.6909    3.7023    1.1572 N.2       3 RES3    0.0000
     71 C19       -3.1890    3.3188    2.2863 C.2       3 RES3    0.0000
     72 C20        2.1704    4.1808    6.6650 C.2       3 RES3    0.0000
     73 N23        2.8438    5.0933    7.3512 N.am      3 RES3    0.0000
     74 H21        3.6907    5.2476    7.1663 H         3 RES3    0.0000
     75 H22        2.4448    5.5447    7.9921 H         3 RES3    0.0000
     76 O11        2.6164    3.4959    5.7577 O.2       3 RES3    0.0000
     77 C21       -4.6271    3.5373    2.6482 C.2       3 RES3    0.0000
     78 N24       -5.3319    4.2417    1.8043 N.am      3 RES3    0.0000
     79 H23       -6.1824    4.3970    1.9630 H         3 RES3    0.0000
     80 H24       -4.9543    4.5617    1.0760 H         3 RES3    0.0000
     81 O12       -5.0482    3.0464    3.6886 O.2       3 RES3    0.0000
     82 N25       13.3334    7.1276    1.8584 N.2       4 RES4    0.0000
     83 O13       13.1247    7.9498    0.7408 O.3       4 RES4    0.0000
     84 N26       11.8277    8.3894    0.7228 N.2       4 RES4    0.0000
     85 C22       11.2418    7.8838    1.7667 C.2       4 RES4    0.0000
     86 C23       12.1876    7.0938    2.4991 C.2       4 RES4    0.0000
     87 N27       12.0055    6.4504    3.6493 N.3       4 RES4    0.0000
     88 H25       11.2227    6.4869    4.0503 H         4 RES4    0.0000
     89 C24       13.0847    5.6905    4.2480 C.3       4 RES4    0.0000
     90 H26       13.4344    5.0541    3.5744 H         4 RES4    0.0000
     91 H27       12.7183    5.1593    5.0003 H         4 RES4    0.0000
     92 N28       14.1869    6.4959    4.7424 N.pl3     4 RES4    0.0000
     93 H28       14.9336    6.5226    4.2777 H         4 RES4    0.0000
     94 C25       14.1076    7.2023    5.8816 C.2       4 RES4    0.0000
     95 N29       13.0162    7.3256    6.5924 N.2       4 RES4    0.0000
     96 O14       13.3680    8.1174    7.7128 O.3       4 RES4    0.0000
     97 N30       14.6894    8.4559    7.6474 N.2       4 RES4    0.0000
     98 C26       15.1631    7.9198    6.5590 C.2       4 RES4    0.0000
     99 C27        9.7974    8.0946    2.0668 C.2       4 RES4    0.0000
    100 N31        9.1995    9.0420    1.3647 N.am      4 RES4    0.0000
    101 H29        8.3406    9.1998    1.4819 H         4 RES4    0.0000
    102 H30        9.6577    9.5139    0.7803 H         4 RES4    0.0000
    103 O15        9.2594    7.3864    2.8971 O.2       4 RES4    0.0000
    104 C28       16.5856    8.0884    6.1151 C.2       4 RES4    0.0000
    105 N32       17.3716    8.7347    6.9784 N.am      4 RES4    0.0000
    106 H31       18.2192    8.8705    6.7849 H         4 RES4    0.0000
    107 H32       17.0417    9.0250    7.7401 H         4 RES4    0.0000
    108 O16       16.9313    7.6391    5.0257 O.2       4 RES4    0.0000
@<TRIPOS>BOND
     1    1    2 1
     2    2    3 1
     3    3    4 2
     4    4    5 1
     5    5    1 2
     6    6    5 1
     7    7    6 1
     8    8    6 1
     9    9    8 1
    10   10    8 1
    11   11    8 1
    12   12   11 1
    13   13   11 1
    14   14   13 2
    15   15   14 1
    16   16   15 1
    17   17   13 1
    18   18    4 1
    19   19   18 1
    20   20   19 1
    21   21   19 1
    22   22   18 2
    23   23   17 1
    24   24   23 1
    25   25   24 1
    26   26   24 1
    27   27   23 2
    28   28   29 1
    29   29   30 1
    30   30   31 2
    31   31   32 1
    32   32   28 2
    33   33   32 1
    34   34   33 1
    35   35   33 1
    36   36   35 1
    37   37   35 1
    38   38   35 1
    39   39   38 1
    40   40   38 1
    41   41   40 2
    42   42   41 1
    43   43   42 1
    44   44   40 1
    45   45   31 1
    46   46   45 1
    47   47   46 1
    48   48   46 1
    49   49   45 2
    50   50   44 1
    51   51   50 1
    52   52   51 1
    53   53   51 1
    54   54   50 2
    55   55   56 1
    56   56   57 1
    57   57   58 2
    58   58   59 1
    59   59   55 2
    60   60   59 1
    61   61   60 1
    62   62   60 1
    63   63   62 1
    64   64   62 1
    65   65   62 1
    66   66   65 1
    67   67   65 1
    68   68   67 2
    69   69   68 1
    70   70   69 1
    71   71   67 1
    72   72   58 1
    73   73   72 1
    74   74   73 1
    75   75   73 1
    76   76   72 2
    77   77   71 1
    78   78   77 1
    79   79   78 1
    80   80   78 1
    81   81   77 2
    82   82   83 1
    83   83   84 1
    84   84   85 2
    85   85   86 1
    86   86   82 2
    87   87   86 1
    88   88   87 1
    89   89   87 1
    90   90   89 1
    91   91   89 1
    92   92   89 1
    93   93   92 1
    94   94   92 1
    95   95   94 2
    96   96   95 1
    97   97   96 1
    98   98   94 1
    99   99   85 1
   100  100   99 1
   101  101  100 1
   102  102  100 1
   103  103   99 2
   104  104   98 1
   105  105  104 1
   106  106  105 1
   107  107  105 1
   108  108  104 2
   109   16   17 2
   110   43   44 2
   111   70   71 2
   112   97   98 2
@<TRIPOS>SUBSTRUCTURE
     1 RES1 1
     2 RES2 28
     3 RES3 55
     4 RES4 82

@<TRIPOS>CRYSIN
  14.3340   16.9770   18.0210  90.0000 103.8670  90.0000  14 1

