# MOL2 file generated by ConQuest
# Please check atom types

@<TRIPOS>MOLECULE
ZIQCIN
    72    76     1
SMALL
NO_CHARGES
****
Generated from CSD

@<TRIPOS>ATOM
      1 O1         3.0444    5.2843    3.9920 O.3       1 RES1    0.0000
      2 C1         3.1787    4.7126    2.6810 C.3       1 RES1    0.0000
      3 H1         2.9037    3.7727    2.6956 H         1 RES1    0.0000
      4 C2         4.6426    4.8195    2.3027 C.3       1 RES1    0.0000
      5 H2         4.7507    5.1954    1.4155 H         1 RES1    0.0000
      6 H3         5.0801    3.9540    2.3390 H         1 RES1    0.0000
      7 C3         5.1833    5.7552    3.3683 C.3       1 RES1    0.0000
      8 H4         5.0833    6.6777    3.0521 H         1 RES1    0.0000
      9 C4         6.6458    5.5370    3.7752 C.3       1 RES1    0.0000
     10 H5         6.8563    4.6056    3.5538 H         1 RES1    0.0000
     11 C5         6.7301    5.6434    5.2928 C.3       1 RES1    0.0000
     12 H6         7.6539    5.5691    5.5809 H         1 RES1    0.0000
     13 H7         6.3853    6.5010    5.5857 H         1 RES1    0.0000
     14 C6         5.9113    4.5257    5.8874 C.3       1 RES1    0.0000
     15 H8         6.4596    3.7142    5.8746 H         1 RES1    0.0000
     16 C7         5.0697    3.6669    7.9162 C.3       1 RES1    0.0000
     17 H9         5.6516    2.9005    7.7978 H         1 RES1    0.0000
     18 H10        4.1916    3.4418    7.5717 H         1 RES1    0.0000
     19 O2         4.7453    4.2743    5.1014 O.3       1 RES1    0.0000
     20 C8         4.9777    4.0192    9.3546 C.3       1 RES1    0.0000
     21 H11        4.4097    4.7857    9.4610 H         1 RES1    0.0000
     22 H12        5.8528    4.2196    9.6919 H         1 RES1    0.0000
     23 H13        4.6089    3.2786    9.8418 H         1 RES1    0.0000
     24 N1         4.3029    5.5642    4.5404 N.3       1 RES1    0.0000
     25 O3         5.6000    4.8045    7.2109 O.3       1 RES1    0.0000
     26 C9         2.3044    5.4723    1.8071 C.1       1 RES1    0.0000
     27 N2         1.6528    6.0677    1.0903 N.1       1 RES1    0.0000
     28 C10        9.0708    6.0688    3.1646 C.3       1 RES1    0.0000
     29 H14        9.6079    6.6383    2.5916 H         1 RES1    0.0000
     30 H15        9.2921    6.2883    4.0832 H         1 RES1    0.0000
     31 N3         7.2618    7.8266    2.9476 N.3       1 RES1    0.0000
     32 C11        7.5821    6.4005    2.9276 C.3       1 RES1    0.0000
     33 H16        7.4097    6.1206    2.0041 H         1 RES1    0.0000
     34 C12        7.4995    8.4740    1.6515 C.3       1 RES1    0.0000
     35 H17        8.3888    8.2489    1.3381 H         1 RES1    0.0000
     36 H18        7.4555    9.4375    1.7612 H         1 RES1    0.0000
     37 C13        7.8546    8.6012    4.0438 C.3       1 RES1    0.0000
     38 H19        8.7650    8.8432    3.8112 H         1 RES1    0.0000
     39 H20        7.8864    8.0531    4.8435 H         1 RES1    0.0000
     40 C14        9.4523    4.6473    2.9126 C.ar      1 RES1    0.0000
     41 C15       10.0358    3.8785    3.8644 C.ar      1 RES1    0.0000
     42 H21       10.1831    4.2320    4.7118 H         1 RES1    0.0000
     43 C16       10.4179    2.5684    3.5912 C.ar      1 RES1    0.0000
     44 H22       10.8170    2.0575    4.2573 H         1 RES1    0.0000
     45 C17       10.2131    2.0316    2.3607 C.ar      1 RES1    0.0000
     46 H23       10.4594    1.1525    2.1806 H         1 RES1    0.0000
     47 C18        9.6424    2.8037    1.3937 C.ar      1 RES1    0.0000
     48 H24        9.5105    2.4525    0.5427 H         1 RES1    0.0000
     49 C19        9.2610    4.0856    1.6645 C.ar      1 RES1    0.0000
     50 H25        8.8657    4.5932    0.9924 H         1 RES1    0.0000
     51 C20        6.4925    8.0452    0.6359 C.ar      1 RES1    0.0000
     52 C21        6.8190    7.2619   -0.4436 C.ar      1 RES1    0.0000
     53 H26        7.7035    7.0255   -0.6032 H         1 RES1    0.0000
     54 C22        5.7874    6.8184   -1.3115 C.ar      1 RES1    0.0000
     55 H27        5.9886    6.2736   -2.0368 H         1 RES1    0.0000
     56 C23        4.4955    7.1977   -1.0734 C.ar      1 RES1    0.0000
     57 H28        3.8197    6.9039   -1.6403 H         1 RES1    0.0000
     58 C24        4.1903    7.9822   -0.0411 C.ar      1 RES1    0.0000
     59 H29        3.3095    8.2456    0.0991 H         1 RES1    0.0000
     60 C25        5.1711    8.3986    0.8075 C.ar      1 RES1    0.0000
     61 H30        4.9415    8.9389    1.5279 H         1 RES1    0.0000
     62 C26        7.0637    9.8483    4.3241 C.ar      1 RES1    0.0000
     63 C27        5.7341    9.7740    4.6816 C.ar      1 RES1    0.0000
     64 H31        5.3173    8.9434    4.7227 H         1 RES1    0.0000
     65 C28        5.0121   10.9085    4.9795 C.ar      1 RES1    0.0000
     66 H32        4.1208   10.8388    5.2376 H         1 RES1    0.0000
     67 C29        5.6109   12.1410    4.8943 C.ar      1 RES1    0.0000
     68 H33        5.1260   12.9120    5.0804 H         1 RES1    0.0000
     69 C30        6.9252   12.2243    4.5329 C.ar      1 RES1    0.0000
     70 H34        7.3383   13.0560    4.4833 H         1 RES1    0.0000
     71 C31        7.6444   11.0875    4.2410 C.ar      1 RES1    0.0000
     72 H35        8.5353   11.1607    3.9841 H         1 RES1    0.0000
@<TRIPOS>BOND
     1    1    2 1
     2    2    3 1
     3    4    2 1
     4    5    4 1
     5    6    4 1
     6    7    4 1
     7    8    7 1
     8    9    7 1
     9   10    9 1
    10   11    9 1
    11   12   11 1
    12   13   11 1
    13   14   11 1
    14   15   14 1
    15   16   17 1
    16   18   16 1
    17   19   14 1
    18   20   16 1
    19   21   20 1
    20   22   20 1
    21   23   20 1
    22   24    1 1
    23   25   14 1
    24   26    2 1
    25   27   26 3
    26   28   29 1
    27   30   28 1
    28   31   32 1
    29   32    9 1
    30   33   32 1
    31   34   31 1
    32   35   34 1
    33   36   34 1
    34   37   31 1
    35   38   37 1
    36   39   37 1
    37   40   28 1
    38   41   40 ar
    39   42   41 1
    40   43   41 ar
    41   44   43 1
    42   45   43 ar
    43   46   45 1
    44   47   45 ar
    45   48   47 1
    46   49   40 ar
    47   50   49 1
    48   51   34 1
    49   52   51 ar
    50   53   52 1
    51   54   52 ar
    52   55   54 1
    53   56   54 ar
    54   57   56 1
    55   58   56 ar
    56   59   58 1
    57   60   51 ar
    58   61   60 1
    59   62   37 1
    60   63   62 ar
    61   64   63 1
    62   65   63 ar
    63   66   65 1
    64   67   65 ar
    65   68   67 1
    66   69   67 ar
    67   70   69 1
    68   71   62 ar
    69   72   71 1
    70    7   24 1
    71   16   25 1
    72   19   24 1
    73   28   32 1
    74   47   49 ar
    75   58   60 ar
    76   69   71 ar
@<TRIPOS>SUBSTRUCTURE
     1 RES1 1

@<TRIPOS>CRYSIN
  10.2933   11.2552   12.6152  90.0000 106.6280  90.0000   4 1

