# MOL2 file generated by ConQuest
# Please check atom types

@<TRIPOS>MOLECULE
ZIQCUZ
    43    45     1
SMALL
NO_CHARGES
****
Generated from CSD

@<TRIPOS>ATOM
      1 C1         2.6687    2.9601   27.4283 C.ar      1 RES1    0.0000
      2 C2         2.2125    1.6726   27.2585 C.ar      1 RES1    0.0000
      3 H1         2.5214    1.1402   26.5638 H         1 RES1    0.0000
      4 C3         1.2790    1.2018   28.1580 C.ar      1 RES1    0.0000
      5 H2         0.9659    0.3297   28.0793 H         1 RES1    0.0000
      6 C4         0.8039    2.0017   29.1744 C.ar      1 RES1    0.0000
      7 H3         0.1708    1.6640   29.7649 H         1 RES1    0.0000
      8 C5         1.2562    3.3077   29.3276 C.ar      1 RES1    0.0000
      9 C6         2.2298    3.7662   28.4419 C.ar      1 RES1    0.0000
     10 H4         2.5816    4.6216   28.5393 H         1 RES1    0.0000
     11 C7         0.7021    4.2383   30.3323 C.2       1 RES1    0.0000
     12 H5         1.1547    5.0438   30.4423 H         1 RES1    0.0000
     13 C8        -0.3616    4.0590   31.0939 C.2       1 RES1    0.0000
     14 H6        -0.8243    3.2541   31.0409 H         1 RES1    0.0000
     15 C9        -0.8333    5.0919   32.0205 C.2       1 RES1    0.0000
     16 C10       -1.8088    4.7301   33.0905 C.ar      1 RES1    0.0000
     17 C11       -2.3468    3.4568   33.2376 C.ar      1 RES1    0.0000
     18 H7        -2.1248    2.7869   32.6321 H         1 RES1    0.0000
     19 C12       -3.2130    3.1832   34.2868 C.ar      1 RES1    0.0000
     20 H8        -3.5733    2.3296   34.3681 H         1 RES1    0.0000
     21 C13       -3.5565    4.1563   35.2216 C.ar      1 RES1    0.0000
     22 C14       -3.0120    5.4142   35.0546 C.ar      1 RES1    0.0000
     23 H9        -3.2256    6.0860   35.6630 H         1 RES1    0.0000
     24 C15       -2.1627    5.6977   34.0111 C.ar      1 RES1    0.0000
     25 H10       -1.8192    6.5574   33.9238 H         1 RES1    0.0000
     26 C16       -4.4585    3.8531   36.3556 C.ar      1 RES1    0.0000
     27 C17       -4.4007    2.6267   37.0207 C.ar      1 RES1    0.0000
     28 H11       -3.7614    2.0011   36.7658 H         1 RES1    0.0000
     29 C18       -5.2674    2.3222   38.0453 C.ar      1 RES1    0.0000
     30 H12       -5.2082    1.4933   38.4640 H         1 RES1    0.0000
     31 C19       -6.2270    3.2313   38.4650 C.ar      1 RES1    0.0000
     32 C20       -6.2656    4.4577   37.8402 C.ar      1 RES1    0.0000
     33 H13       -6.8878    5.0900   38.1175 H         1 RES1    0.0000
     34 C21       -5.3983    4.7714   36.8061 C.ar      1 RES1    0.0000
     35 H14       -5.4453    5.6102   36.4066 H         1 RES1    0.0000
     36 C22       -7.1825    2.8794   39.5759 C.3       1 RES1    0.0000
     37 H15       -6.7120    2.4103   40.2694 H         1 RES1    0.0000
     38 H16       -7.8839    2.3204   39.2297 H         1 RES1    0.0000
     39 H17       -7.5642    3.6836   39.9354 H         1 RES1    0.0000
     40 N1         3.6324    3.5178   26.4636 N.pl3     1 RES1    0.0000
     41 O1         3.9693    2.8233   25.5234 O.2       1 RES1    0.0000
     42 O2         4.0556    4.6377   26.6391 O.2       1 RES1    0.0000
     43 O3        -0.4310    6.2425   31.9272 O.2       1 RES1    0.0000
@<TRIPOS>BOND
     1    1    2 ar
     2    2    3 1
     3    4    2 ar
     4    5    4 1
     5    6    4 ar
     6    7    6 1
     7    8    6 ar
     8    9    1 ar
     9   10    9 1
    10   11    8 1
    11   12   11 1
    12   13   11 2
    13   14   13 1
    14   15   13 1
    15   16   15 1
    16   17   16 ar
    17   18   17 1
    18   19   17 ar
    19   20   19 1
    20   21   19 ar
    21   22   21 ar
    22   23   22 1
    23   24   16 ar
    24   25   24 1
    25   26   21 1
    26   27   26 ar
    27   28   27 1
    28   29   27 ar
    29   30   29 1
    30   31   29 ar
    31   32   31 ar
    32   33   32 1
    33   34   26 ar
    34   35   34 1
    35   36   31 1
    36   37   36 1
    37   38   36 1
    38   39   36 1
    39   40    1 1
    40   41   40 2
    41   42   40 2
    42   43   15 2
    43    8    9 ar
    44   22   24 ar
    45   32   34 ar
@<TRIPOS>SUBSTRUCTURE
     1 RES1 1

@<TRIPOS>CRYSIN
  17.8210    6.1630   32.3570  90.0000 103.1600  90.0000  15 1

