# MOL2 file generated by ConQuest
# Please check atom types

@<TRIPOS>MOLECULE
ZIQCUZ01
    43    45     1
SMALL
NO_CHARGES
****
Generated from CSD

@<TRIPOS>ATOM
      1 O1        11.3368   -0.2582   -5.9837 O.2       1 RES1    0.0000
      2 O2        11.4230    1.5562   -4.8681 O.2       1 RES1    0.0000
      3 O3         6.9359    3.1610    0.4200 O.2       1 RES1    0.0000
      4 N1        10.9998    0.4363   -5.0436 N.pl3     1 RES1    0.0000
      5 C1        10.0360   -0.1214   -4.0788 C.ar      1 RES1    0.0000
      6 C2         9.5798   -1.4089   -4.2487 C.ar      1 RES1    0.0000
      7 C3         8.6462   -1.8797   -3.3491 C.ar      1 RES1    0.0000
      8 C4         8.1711   -1.0798   -2.3327 C.ar      1 RES1    0.0000
      9 C5         8.6234    0.2262   -2.1796 C.ar      1 RES1    0.0000
     10 C6         9.5970    0.6847   -3.0653 C.ar      1 RES1    0.0000
     11 C7         8.0692    1.1568   -1.1749 C.2       1 RES1    0.0000
     12 C8         7.0053    0.9775   -0.4134 C.2       1 RES1    0.0000
     13 C9         6.5336    2.0104    0.5132 C.2       1 RES1    0.0000
     14 C10        5.5580    1.6486    1.5832 C.ar      1 RES1    0.0000
     15 C11        5.0199    0.3753    1.7303 C.ar      1 RES1    0.0000
     16 C12        4.1536    0.1017    2.7795 C.ar      1 RES1    0.0000
     17 C13        3.8100    1.0748    3.7143 C.ar      1 RES1    0.0000
     18 C14        4.3545    2.3327    3.5473 C.ar      1 RES1    0.0000
     19 C15        5.2040    2.6162    2.5038 C.ar      1 RES1    0.0000
     20 C16        2.9079    0.7716    4.8482 C.ar      1 RES1    0.0000
     21 C17        2.9656   -0.4548    5.5133 C.ar      1 RES1    0.0000
     22 C18        2.0988   -0.7593    6.5379 C.ar      1 RES1    0.0000
     23 C19        1.1392    0.1498    6.9576 C.ar      1 RES1    0.0000
     24 C20        1.1007    1.3762    6.3328 C.ar      1 RES1    0.0000
     25 C21        1.9681    1.6899    5.2988 C.ar      1 RES1    0.0000
     26 C22        0.1836   -0.2021    8.0685 C.3       1 RES1    0.0000
     27 H1         9.8893   -1.9416   -4.9449 H         1 RES1    0.0000
     28 H2         8.3338   -2.7517   -3.4295 H         1 RES1    0.0000
     29 H3         7.5383   -1.4177   -1.7410 H         1 RES1    0.0000
     30 H4         9.9486    1.5402   -2.9667 H         1 RES1    0.0000
     31 H5         8.5217    1.9622   -1.0662 H         1 RES1    0.0000
     32 H6         6.5423    0.1729   -0.4666 H         1 RES1    0.0000
     33 H7         5.2411   -0.2947    1.1245 H         1 RES1    0.0000
     34 H8         3.7937   -0.7518    2.8598 H         1 RES1    0.0000
     35 H9         4.1407    3.0043    4.1544 H         1 RES1    0.0000
     36 H10        5.5472    3.4758    2.4162 H         1 RES1    0.0000
     37 H11        3.6046   -1.0806    5.2578 H         1 RES1    0.0000
     38 H12        2.1577   -1.5881    6.9560 H         1 RES1    0.0000
     39 H13        0.4781    2.0083    6.6113 H         1 RES1    0.0000
     40 H14        1.9204    2.5288    4.9002 H         1 RES1    0.0000
     41 H15        0.6547   -0.6713    8.7607 H         1 RES1    0.0000
     42 H16       -0.5174   -0.7609    7.7235 H         1 RES1    0.0000
     43 H17       -0.1979    0.6019    8.4296 H         1 RES1    0.0000
@<TRIPOS>BOND
     1    1    4 2
     2    2    4 2
     3    3   13 2
     4    4    5 1
     5    5    6 ar
     6    6    7 ar
     7    7    8 ar
     8    8    9 ar
     9    9   10 ar
    10   10    5 ar
    11   11    9 1
    12   12   11 2
    13   13   12 1
    14   14   13 1
    15   15   14 ar
    16   16   15 ar
    17   17   16 ar
    18   18   17 ar
    19   19   14 ar
    20   20   17 1
    21   21   20 ar
    22   22   21 ar
    23   23   22 ar
    24   24   23 ar
    25   25   20 ar
    26   26   23 1
    27   27    6 1
    28   28    7 1
    29   29    8 1
    30   30   10 1
    31   31   11 1
    32   32   12 1
    33   33   15 1
    34   34   16 1
    35   35   18 1
    36   36   19 1
    37   37   21 1
    38   38   22 1
    39   39   24 1
    40   40   25 1
    41   41   26 1
    42   42   26 1
    43   43   26 1
    44   18   19 ar
    45   24   25 ar
@<TRIPOS>SUBSTRUCTURE
     1 RES1 1

@<TRIPOS>CRYSIN
  17.8214    6.1630   32.3569  90.0000 103.1650  90.0000  15 1

