# MOL2 file generated by ConQuest
# Please check atom types

@<TRIPOS>MOLECULE
ZIRHOZ
   255   270     3
SMALL
NO_CHARGES
****
Generated from CSD

@<TRIPOS>ATOM
      1 O1        10.6563   14.1423    8.5786 O.3       1 RES1    0.0000
      2 C1        10.7267   13.2763    9.7418 C.3       1 RES1    0.0000
      3 C2        11.7200   12.1895    9.3727 C.3       1 RES1    0.0000
      4 O2        11.2289   11.5502    8.1601 O.3       1 RES1    0.0000
      5 N1        10.9391   10.1875    8.4146 N.2       1 RES1    0.0000
      6 C3        11.2697    9.8957    9.6184 C.2       1 RES1    0.0000
      7 C4        11.8536   11.0578   10.3883 C.3       1 RES1    0.0000
      8 C5        11.0939    8.5128   10.1238 C.3       1 RES1    0.0000
      9 C6        11.1291   14.1542   10.9462 C.3       1 RES1    0.0000
     10 C7         9.9275   15.0103   11.3794 C.3       1 RES1    0.0000
     11 C8        10.0823   16.0102   12.5559 C.3       1 RES1    0.0000
     12 C9         8.5867   16.2860   12.8581 C.3       1 RES1    0.0000
     13 C10        7.9606   14.8910   12.9005 C.3       1 RES1    0.0000
     14 C11        8.7189   14.1273   11.7957 C.3       1 RES1    0.0000
     15 C12        8.3334   17.2261   14.0138 C.3       1 RES1    0.0000
     16 C13       10.8097   15.3358   13.7182 C.3       1 RES1    0.0000
     17 C14       10.7323   17.3592   12.2251 C.3       1 RES1    0.0000
     18 C15       10.5001   18.3533   13.3730 C.3       1 RES1    0.0000
     19 C16        9.0172   18.5790   13.7195 C.3       1 RES1    0.0000
     20 C17        8.7935   19.6380   14.8111 C.3       1 RES1    0.0000
     21 C18        7.2993   19.7019   15.1570 C.3       1 RES1    0.0000
     22 C19        6.6634   20.8108   14.3443 C.3       1 RES1    0.0000
     23 C20        7.7650   21.4618   13.5213 C.3       1 RES1    0.0000
     24 C21        9.0566   21.0494   14.2309 C.3       1 RES1    0.0000
     25 C22        6.5592   18.4034   15.3794 C.3       1 RES1    0.0000
     26 C23        6.8392   17.4444   14.2397 C.3       1 RES1    0.0000
     27 O3        13.3595    9.7261   11.6088 O.3       1 RES1    0.0000
     28 C24       13.2958   10.7633   10.7797 C.2       1 RES1    0.0000
     29 O4        14.2652   11.3628   10.3767 O.2       1 RES1    0.0000
     30 C25       14.6718    9.2390   11.9427 C.3       1 RES1    0.0000
     31 O5         6.9363   17.6809   16.5587 O.3       1 RES1    0.0000
     32 O6         8.4572   13.7650    8.2625 O.2       1 RES1    0.0000
     33 C26        9.6672   19.3815   16.0529 C.3       1 RES1    0.0000
     34 C27       12.4024   14.9540   10.6553 C.3       1 RES1    0.0000
     35 C28        9.4871   14.2825    7.9415 C.2       1 RES1    0.0000
     36 C29        6.7759   20.9457   15.8346 C.3       1 RES1    0.0000
     37 C30        6.6000   18.3054   17.7612 C.3       1 RES1    0.0000
     38 C31        9.6264   15.2087    6.7682 C.3       1 RES1    0.0000
     39 H1         9.8445   12.8738    9.8892 H         1 RES1    0.0000
     40 H2        12.6050   12.5945    9.2295 H         1 RES1    0.0000
     41 H3        11.3528   11.2453   11.2117 H         1 RES1    0.0000
     42 H4        10.6648    8.5017   10.9887 H         1 RES1    0.0000
     43 H5        10.5452    7.9945    9.4839 H         1 RES1    0.0000
     44 H6        11.9521    8.0869   10.1845 H         1 RES1    0.0000
     45 H7        11.3274   13.5186   11.6766 H         1 RES1    0.0000
     46 H8         9.6574   15.5249   10.5866 H         1 RES1    0.0000
     47 H9         8.2378   16.7242   12.0253 H         1 RES1    0.0000
     48 H10        8.0900   14.4509   13.7908 H         1 RES1    0.0000
     49 H11        7.0193   14.8863   12.7384 H         1 RES1    0.0000
     50 H12        9.0285   13.2804   12.1415 H         1 RES1    0.0000
     51 H13        8.1069   13.9806   11.0389 H         1 RES1    0.0000
     52 H14        8.7217   16.8433   14.8306 H         1 RES1    0.0000
     53 H15       10.7182   15.8596   14.5259 H         1 RES1    0.0000
     54 H16       10.4354   14.4304   13.8882 H         1 RES1    0.0000
     55 H17       11.7425   15.2477   13.5269 H         1 RES1    0.0000
     56 H18       11.6679   17.2745   12.0379 H         1 RES1    0.0000
     57 H19       10.2947   17.7202   11.3719 H         1 RES1    0.0000
     58 H20       10.9870   18.0672   14.1646 H         1 RES1    0.0000
     59 H21       10.8730   19.2090   13.0965 H         1 RES1    0.0000
     60 H22        8.5951   18.9256   12.9049 H         1 RES1    0.0000
     61 H23        5.7657   20.6958   13.9573 H         1 RES1    0.0000
     62 H24        7.6454   22.4372   13.4798 H         1 RES1    0.0000
     63 H25        7.7397   21.0880   12.6253 H         1 RES1    0.0000
     64 H26        9.2648   21.6794   14.9594 H         1 RES1    0.0000
     65 H27        9.7685   21.0305   13.5866 H         1 RES1    0.0000
     66 H28        5.5673   18.6011   15.4275 H         1 RES1    0.0000
     67 H29        6.3932   16.5866   14.4096 H         1 RES1    0.0000
     68 H30        6.4242   17.8105   13.4138 H         1 RES1    0.0000
     69 H31       14.5634    8.5305   12.6033 H         1 RES1    0.0000
     70 H32       15.1600    9.9947   12.3709 H         1 RES1    0.0000
     71 H33       15.1304    8.9391   11.1551 H         1 RES1    0.0000
     72 H34        9.4112   20.0448   16.6966 H         1 RES1    0.0000
     73 H35        9.5307   18.4800   16.3573 H         1 RES1    0.0000
     74 H36       10.5832   19.5417   15.7824 H         1 RES1    0.0000
     75 H37       12.7020   15.3709   11.4316 H         1 RES1    0.0000
     76 H38       13.0566   14.3872   10.2504 H         1 RES1    0.0000
     77 H39       12.1716   15.6522   10.0117 H         1 RES1    0.0000
     78 H40        5.9979   20.9052   16.4233 H         1 RES1    0.0000
     79 H41        7.3837   21.5973   16.2097 H         1 RES1    0.0000
     80 H42        6.7225   17.6606   18.4841 H         1 RES1    0.0000
     81 H43        5.6475   18.5888   17.7647 H         1 RES1    0.0000
     82 H44        7.1755   19.0899   17.9217 H         1 RES1    0.0000
     83 H45        8.7977   15.1840    6.2483 H         1 RES1    0.0000
     84 H46        9.7488   16.1266    7.0682 H         1 RES1    0.0000
     85 H47       10.3594   14.9376    6.2200 H         1 RES1    0.0000
     86 N2        10.5001   10.0748   19.0426 N.2       2 RES2    0.0000
     87 O7        10.4622   11.4578   18.7778 O.3       2 RES2    0.0000
     88 C32       11.0292    9.8686   20.1804 C.2       2 RES2    0.0000
     89 C33       11.4527   11.1250   20.9077 C.3       2 RES2    0.0000
     90 C34       12.9201   11.0851   21.2752 C.2       2 RES2    0.0000
     91 O8        13.1251   10.2002   22.2487 O.3       2 RES2    0.0000
     92 C35       14.5029    9.9105   22.5893 C.3       2 RES2    0.0000
     93 O9        13.7995   11.7090   20.7302 O.2       2 RES2    0.0000
     94 C36       11.1276   12.1895   19.8569 C.3       2 RES2    0.0000
     95 C37       10.1920   13.3065   20.2863 C.3       2 RES2    0.0000
     96 O10        9.9866   14.1260   19.0988 O.3       2 RES2    0.0000
     97 C38        8.7471   14.2188   18.5855 C.2       2 RES2    0.0000
     98 O11        7.7678   13.7252   19.0492 O.2       2 RES2    0.0000
     99 C39        8.7808   15.0608   17.3387 C.3       2 RES2    0.0000
    100 C40       10.7492   14.2149   21.4122 C.3       2 RES2    0.0000
    101 C41        9.6278   15.1202   21.9318 C.3       2 RES2    0.0000
    102 C42        9.9542   16.1627   23.0583 C.3       2 RES2    0.0000
    103 C43        8.5163   16.5086   23.5109 C.3       2 RES2    0.0000
    104 C44        8.4319   17.4998   24.6692 C.3       2 RES2    0.0000
    105 C45        9.1298   18.8133   24.2278 C.3       2 RES2    0.0000
    106 C46       10.5480   18.5091   23.7447 C.3       2 RES2    0.0000
    107 C47       10.6127   17.4705   22.6128 C.3       2 RES2    0.0000
    108 C48        9.0665   19.9349   25.2818 C.3       2 RES2    0.0000
    109 C49        9.3324   21.3057   24.5941 C.3       2 RES2    0.0000
    110 C50        7.9718   21.7410   24.0177 C.3       2 RES2    0.0000
    111 C51        6.9433   21.1623   24.9632 C.3       2 RES2    0.0000
    112 C52        7.6201   20.0805   25.7586 C.3       2 RES2    0.0000
    113 C53        6.8575   18.8418   26.1387 C.3       2 RES2    0.0000
    114 O12        7.3608   18.3716   27.4041 O.3       2 RES2    0.0000
    115 C54        6.3820   17.6688   28.1298 C.3       2 RES2    0.0000
    116 C55       10.0344   19.7203   26.4422 C.3       2 RES2    0.0000
    117 C56        6.9841   17.7748   25.0703 C.3       2 RES2    0.0000
    118 C57        7.8354   15.1366   23.6655 C.3       2 RES2    0.0000
    119 C58        8.4615   14.2981   22.5296 C.3       2 RES2    0.0000
    120 C59       10.7745   15.4984   24.1684 C.3       2 RES2    0.0000
    121 C60       12.0070   14.9643   20.9340 C.3       2 RES2    0.0000
    122 C61       11.1769    8.4982   20.7141 C.3       2 RES2    0.0000
    123 C62        7.2008   21.3615   26.4325 C.3       2 RES2    0.0000
    124 H48       10.9194   11.2515   21.7480 H         2 RES2    0.0000
    125 H49       14.5747    9.0110   22.9668 H         2 RES2    0.0000
    126 H50       14.8350   10.5471   23.2244 H         2 RES2    0.0000
    127 H51       15.0348    9.9351   21.8045 H         2 RES2    0.0000
    128 H52       11.9648   12.5596   19.5176 H         2 RES2    0.0000
    129 H53        9.3267   12.9292   20.5731 H         2 RES2    0.0000
    130 H54        7.8874   15.3463   17.1238 H         2 RES2    0.0000
    131 H55        9.3478   15.7980   17.4819 H         2 RES2    0.0000
    132 H56        9.1002   14.5433   16.5804 H         2 RES2    0.0000
    133 H57       11.0066   13.6048   22.1658 H         2 RES2    0.0000
    134 H58        9.2958   15.6235   21.1731 H         2 RES2    0.0000
    135 H59        8.0971   16.9604   22.7250 H         2 RES2    0.0000
    136 H60        8.9046   17.1329   25.4548 H         2 RES2    0.0000
    137 H61        8.6373   19.1289   23.4538 H         2 RES2    0.0000
    138 H62       11.0995   18.1966   24.4779 H         2 RES2    0.0000
    139 H63       10.9152   19.3302   23.3909 H         2 RES2    0.0000
    140 H64       10.1048   17.8393   21.8328 H         2 RES2    0.0000
    141 H65       11.5146   17.3033   22.3386 H         2 RES2    0.0000
    142 H66        9.6377   21.9382   25.2695 H         2 RES2    0.0000
    143 H67       10.0119   21.1866   23.9218 H         2 RES2    0.0000
    144 H68        7.8916   22.7021   23.9658 H         2 RES2    0.0000
    145 H69        7.8354   21.3529   23.1271 H         2 RES2    0.0000
    146 H70        6.0204   21.0120   24.6381 H         2 RES2    0.0000
    147 H71        5.9303   19.1104   26.2119 H         2 RES2    0.0000
    148 H72        6.8083   17.3444   28.9512 H         2 RES2    0.0000
    149 H73        5.6574   18.2746   28.3983 H         2 RES2    0.0000
    150 H74        6.0232   16.9172   27.6193 H         2 RES2    0.0000
    151 H75        9.8923   20.3610   27.1355 H         2 RES2    0.0000
    152 H76        9.9261   18.8250   26.7805 H         2 RES2    0.0000
    153 H77       10.9799   19.8271   26.1083 H         2 RES2    0.0000
    154 H78        6.5986   16.9378   25.4046 H         2 RES2    0.0000
    155 H79        6.5100   18.0816   24.2768 H         2 RES2    0.0000
    156 H80        8.0281   14.7425   24.5344 H         2 RES2    0.0000
    157 H81        6.8660   15.2087   23.5669 H         2 RES2    0.0000
    158 H82        8.8301   13.4796   22.8695 H         2 RES2    0.0000
    159 H83        7.8382   14.1552   21.8297 H         2 RES2    0.0000
    160 H84       10.8294   16.0342   24.9679 H         2 RES2    0.0000
    161 H85       10.4242   14.6316   24.3962 H         2 RES2    0.0000
    162 H86       11.7003   15.3565   23.8527 H         2 RES2    0.0000
    163 H87       12.3770   15.3832   21.6789 H         2 RES2    0.0000
    164 H88       11.6848   15.6420   20.3061 H         2 RES2    0.0000
    165 H89       12.5768   14.3688   20.5197 H         2 RES2    0.0000
    166 H90       10.8139    8.4607   21.6129 H         2 RES2    0.0000
    167 H91       10.7070    7.8631   20.1396 H         2 RES2    0.0000
    168 H92       12.0999    8.2512   20.7427 H         2 RES2    0.0000
    169 H93        6.4439   21.3550   27.0413 H         2 RES2    0.0000
    170 H94        7.8776   21.9875   26.7460 H         2 RES2    0.0000
    171 C63        7.2402    8.3539   10.3996 C.3       3 RES3    0.0000
    172 C64        7.1037    7.2575   11.4454 C.3       3 RES3    0.0000
    173 C65        5.6855    7.1556   12.0018 C.3       3 RES3    0.0000
    174 C66        5.5800    6.1288   13.1377 C.3       3 RES3    0.0000
    175 C67        4.1632    5.9524   13.7094 C.3       3 RES3    0.0000
    176 C68        4.4347    4.8589   14.7750 C.3       3 RES3    0.0000
    177 C69        5.4731    3.9209   14.0933 C.3       3 RES3    0.0000
    178 C70        6.0738    4.7094   12.9002 C.3       3 RES3    0.0000
    179 C71        3.2557    4.0677   15.3719 C.3       3 RES3    0.0000
    180 C72        3.7875    3.0939   16.4462 C.3       3 RES3    0.0000
    181 O13        4.0577    3.8685   17.6519 O.3       3 RES3    0.0000
    182 C73        2.8125    2.0121   16.8791 C.3       3 RES3    0.0000
    183 O14        3.4485    1.2457   17.9255 O.3       3 RES3    0.0000
    184 N3         3.3950   -0.1329   17.6243 N.2       3 RES3    0.0000
    185 C74        2.8392   -0.2994   16.4814 C.2       3 RES3    0.0000
    186 C75        2.6592   -1.6546   15.9169 C.3       3 RES3    0.0000
    187 C76        2.1259    4.9433   15.9251 C.3       3 RES3    0.0000
    188 C77        3.1713    5.4274   12.6593 C.3       3 RES3    0.0000
    189 C78        3.7087    7.3191   14.2419 C.3       3 RES3    0.0000
    190 C79        3.8115    8.3796   13.1547 C.3       3 RES3    0.0000
    191 C80        5.2156    8.5225   12.5490 C.3       3 RES3    0.0000
    192 C81        5.3310    9.6926   11.5434 C.3       3 RES3    0.0000
    193 C82        6.7267    9.6550   10.9205 C.3       3 RES3    0.0000
    194 C83        7.6299   10.5676   11.7043 C.3       3 RES3    0.0000
    195 C84        6.7956   11.2124   12.7984 C.3       3 RES3    0.0000
    196 C85        5.3577   11.0243   12.3241 C.3       3 RES3    0.0000
    197 C86        4.2138    9.6805   10.4917 C.3       3 RES3    0.0000
    198 C87        0.9722    1.0348   15.4171 C.2       3 RES3    0.0000
    199 O15        0.1829    1.8386   15.8148 O.2       3 RES3    0.0000
    200 O16        0.6824    0.0429   14.5821 O.3       3 RES3    0.0000
    201 C88        2.4383    0.9915   15.8032 C.3       3 RES3    0.0000
    202 C89       -0.6880   -0.1212   14.1888 C.3       3 RES3    0.0000
    203 O17        6.5107    8.0391    9.2009 O.3       3 RES3    0.0000
    204 O18        6.2877    3.5346   17.5423 O.2       3 RES3    0.0000
    205 C90        7.2613   10.9169   10.2900 C.3       3 RES3    0.0000
    206 C91        5.3169    3.9740   18.1071 C.2       3 RES3    0.0000
    207 C92        7.2079    7.2018    8.3229 C.3       3 RES3    0.0000
    208 C93        5.3352    4.7786   19.3765 C.3       3 RES3    0.0000
    209 H95        8.1955    8.4175   10.1845 H         3 RES3    0.0000
    210 H96        7.6778    7.4585   12.1792 H         3 RES3    0.0000
    211 H97        7.3401    6.4112   11.0452 H         3 RES3    0.0000
    212 H98        5.1157    6.8527   11.2651 H         3 RES3    0.0000
    213 H99        6.1329    6.5385   13.8253 H         3 RES3    0.0000
    214 H100       4.8779    5.2859   15.5343 H         3 RES3    0.0000
    215 H101       6.1428    3.6800   14.7395 H         3 RES3    0.0000
    216 H102       5.0088    3.1358   13.7814 H         3 RES3    0.0000
    217 H103       7.0643    4.6780   12.8955 H         3 RES3    0.0000
    218 H104       5.7713    4.3597   12.0599 H         3 RES3    0.0000
    219 H105       2.9054    3.5198   14.6421 H         3 RES3    0.0000
    220 H106       4.6176    2.7066   16.1531 H         3 RES3    0.0000
    221 H107       1.9796    2.4129   17.2401 H         3 RES3    0.0000
    222 H108       2.9659   -1.6634   14.9782 H         3 RES3    0.0000
    223 H109       1.7306   -1.9037   15.9175 H         3 RES3    0.0000
    224 H110       3.1966   -2.2651   16.3887 H         3 RES3    0.0000
    225 H111       1.4801    4.3905   16.3133 H         3 RES3    0.0000
    226 H112       2.4847    5.5487   16.5709 H         3 RES3    0.0000
    227 H113       1.6996    5.4707   15.2201 H         3 RES3    0.0000
    228 H114       2.2905    5.4193   13.0369 H         3 RES3    0.0000
    229 H115       3.3922    4.5302   12.3646 H         3 RES3    0.0000
    230 H116       3.1896    6.0313   11.9122 H         3 RES3    0.0000
    231 H117       4.2983    7.5653   14.9782 H         3 RES3    0.0000
    232 H118       2.7956    7.2573   14.5667 H         3 RES3    0.0000
    233 H119       3.5160    9.2287   13.4829 H         3 RES3    0.0000
    234 H120       3.2416    8.0890   12.4180 H         3 RES3    0.0000
    235 H121       5.8093    8.7441   13.3039 H         3 RES3    0.0000
    236 H122       8.5768   10.3171   11.8808 H         3 RES3    0.0000
    237 H123       6.9194   10.7052   13.6243 H         3 RES3    0.0000
    238 H124       7.0207   12.1489   12.9175 H         3 RES3    0.0000
    239 H125       4.7260   10.9619   13.0557 H         3 RES3    0.0000
    240 H126       5.1002   11.7423   11.6986 H         3 RES3    0.0000
    241 H127       4.4952   10.2575    9.7729 H         3 RES3    0.0000
    242 H128       3.3823    9.9988   10.8881 H         3 RES3    0.0000
    243 H129       4.0816    8.7749   10.1593 H         3 RES3    0.0000
    244 H130       2.9954    1.1500   14.9971 H         3 RES3    0.0000
    245 H131      -0.7710   -1.0186   13.7908 H         3 RES3    0.0000
    246 H132      -1.2311   -0.0760   14.9720 H         3 RES3    0.0000
    247 H133      -0.9244    0.5298   13.5269 H         3 RES3    0.0000
    248 H134       6.6634   11.6149   10.0651 H         3 RES3    0.0000
    249 H135       7.9831   10.8366    9.5970 H         3 RES3    0.0000
    250 H136       6.7225    7.1341    7.4797 H         3 RES3    0.0000
    251 H137       7.3260    6.3250    8.7206 H         3 RES3    0.0000
    252 H138       8.0830    7.6290    8.1268 H         3 RES3    0.0000
    253 H139       6.1414    4.6513   19.8380 H         3 RES3    0.0000
    254 H140       4.5923    4.5322   19.9480 H         3 RES3    0.0000
    255 H141       5.2592    5.7459   19.1720 H         3 RES3    0.0000
@<TRIPOS>BOND
     1    1    2 1
     2    2    3 1
     3    3    4 1
     4    4    5 1
     5    5    6 2
     6    6    7 1
     7    7    3 1
     8    8    6 1
     9    9    2 1
    10   10    9 1
    11   11   10 1
    12   12   11 1
    13   13   12 1
    14   14   10 1
    15   15   12 1
    16   16   11 1
    17   17   11 1
    18   18   17 1
    19   19   15 1
    20   20   19 1
    21   21   20 1
    22   22   21 1
    23   23   22 1
    24   24   20 1
    25   25   21 1
    26   26   15 1
    27   27   28 1
    28   28    7 1
    29   29   28 2
    30   30   27 1
    31   31   25 1
    32   32   35 2
    33   33   20 1
    34   34    9 1
    35   35    1 1
    36   36   21 1
    37   37   31 1
    38   38   35 1
    39   39    2 1
    40   40    3 1
    41   41    7 1
    42   42    8 1
    43   43    8 1
    44   44    8 1
    45   45    9 1
    46   46   10 1
    47   47   12 1
    48   48   13 1
    49   49   13 1
    50   50   14 1
    51   51   14 1
    52   52   15 1
    53   53   16 1
    54   54   16 1
    55   55   16 1
    56   56   17 1
    57   57   17 1
    58   58   18 1
    59   59   18 1
    60   60   19 1
    61   61   22 1
    62   62   23 1
    63   63   23 1
    64   64   24 1
    65   65   24 1
    66   66   25 1
    67   67   26 1
    68   68   26 1
    69   69   30 1
    70   70   30 1
    71   71   30 1
    72   72   33 1
    73   73   33 1
    74   74   33 1
    75   75   34 1
    76   76   34 1
    77   77   34 1
    78   78   36 1
    79   79   36 1
    80   80   37 1
    81   81   37 1
    82   82   37 1
    83   83   38 1
    84   84   38 1
    85   85   38 1
    86   86   87 1
    87   87   94 1
    88   88   86 2
    89   89   88 1
    90   90   89 1
    91   91   90 1
    92   92   91 1
    93   93   90 2
    94   94   89 1
    95   95   94 1
    96   96   95 1
    97   97   96 1
    98   98   97 2
    99   99   97 1
   100  100   95 1
   101  101  100 1
   102  102  101 1
   103  103  102 1
   104  104  103 1
   105  105  104 1
   106  106  105 1
   107  107  102 1
   108  108  105 1
   109  109  108 1
   110  110  109 1
   111  111  110 1
   112  112  108 1
   113  113  112 1
   114  114  113 1
   115  115  114 1
   116  116  108 1
   117  117  104 1
   118  118  103 1
   119  119  101 1
   120  120  102 1
   121  121  100 1
   122  122   88 1
   123  123  111 1
   124  124   89 1
   125  125   92 1
   126  126   92 1
   127  127   92 1
   128  128   94 1
   129  129   95 1
   130  130   99 1
   131  131   99 1
   132  132   99 1
   133  133  100 1
   134  134  101 1
   135  135  103 1
   136  136  104 1
   137  137  105 1
   138  138  106 1
   139  139  106 1
   140  140  107 1
   141  141  107 1
   142  142  109 1
   143  143  109 1
   144  144  110 1
   145  145  110 1
   146  146  111 1
   147  147  113 1
   148  148  115 1
   149  149  115 1
   150  150  115 1
   151  151  116 1
   152  152  116 1
   153  153  116 1
   154  154  117 1
   155  155  117 1
   156  156  118 1
   157  157  118 1
   158  158  119 1
   159  159  119 1
   160  160  120 1
   161  161  120 1
   162  162  120 1
   163  163  121 1
   164  164  121 1
   165  165  121 1
   166  166  122 1
   167  167  122 1
   168  168  122 1
   169  169  123 1
   170  170  123 1
   171  171  172 1
   172  172  173 1
   173  173  174 1
   174  174  175 1
   175  175  176 1
   176  176  177 1
   177  177  178 1
   178  178  174 1
   179  179  176 1
   180  180  179 1
   181  181  180 1
   182  182  180 1
   183  183  182 1
   184  184  183 1
   185  185  184 2
   186  186  185 1
   187  187  179 1
   188  188  175 1
   189  189  175 1
   190  190  189 1
   191  191  173 1
   192  192  191 1
   193  193  171 1
   194  194  193 1
   195  195  194 1
   196  196  192 1
   197  197  192 1
   198  198  199 2
   199  200  198 1
   200  201  182 1
   201  202  200 1
   202  203  171 1
   203  204  206 2
   204  205  193 1
   205  206  181 1
   206  207  203 1
   207  208  206 1
   208  209  171 1
   209  210  172 1
   210  211  172 1
   211  212  173 1
   212  213  174 1
   213  214  176 1
   214  215  177 1
   215  216  177 1
   216  217  178 1
   217  218  178 1
   218  219  179 1
   219  220  180 1
   220  221  182 1
   221  222  186 1
   222  223  186 1
   223  224  186 1
   224  225  187 1
   225  226  187 1
   226  227  187 1
   227  228  188 1
   228  229  188 1
   229  230  188 1
   230  231  189 1
   231  232  189 1
   232  233  190 1
   233  234  190 1
   234  235  191 1
   235  236  194 1
   236  237  195 1
   237  238  195 1
   238  239  196 1
   239  240  196 1
   240  241  197 1
   241  242  197 1
   242  243  197 1
   243  244  201 1
   244  245  202 1
   245  246  202 1
   246  247  202 1
   247  248  205 1
   248  249  205 1
   249  250  207 1
   250  251  207 1
   251  252  207 1
   252  253  208 1
   253  254  208 1
   254  255  208 1
   255   13   14 1
   256   18   19 1
   257   22   36 1
   258   23   24 1
   259   25   26 1
   260  106  107 1
   261  111  112 1
   262  112  123 1
   263  113  117 1
   264  118  119 1
   265  185  201 1
   266  190  191 1
   267  192  193 1
   268  194  205 1
   269  195  196 1
   270  198  201 1
@<TRIPOS>SUBSTRUCTURE
     1 RES1 1
     2 RES2 86
     3 RES3 171

@<TRIPOS>CRYSIN
  14.0696   20.5356   31.4141  90.0000  90.0000  90.0000  19 1

