# MOL2 file generated by ConQuest
# Please check atom types

@<TRIPOS>MOLECULE
ZIRHUF
   246   258     3
SMALL
NO_CHARGES
****
Generated from CSD

@<TRIPOS>ATOM
      1 O1         1.0580    4.6723   16.0264 O.3       1 RES1    0.0000
      2 C1         0.1150    5.3258   16.6908 C.2       1 RES1    0.0000
      3 O2        -1.0578    5.3563   16.3904 O.2       1 RES1    0.0000
      4 C2         0.7049    6.1302   17.8304 C.3       1 RES1    0.0000
      5 C3         1.2994    7.4536   17.3080 C.3       1 RES1    0.0000
      6 O3         2.5941    7.5627   17.9449 O.3       1 RES1    0.0000
      7 N1         2.9172    6.3286   18.5565 N.2       1 RES1    0.0000
      8 C4         1.9191    5.5352   18.4959 C.2       1 RES1    0.0000
      9 C5         1.9628    4.1871   19.1295 C.3       1 RES1    0.0000
     10 C6         0.4859    8.6931   17.6549 C.3       1 RES1    0.0000
     11 O4        -0.7231    8.6030   16.8556 O.3       1 RES1    0.0000
     12 C7        -1.8832    8.2390   17.4519 C.2       1 RES1    0.0000
     13 O5        -1.9890    7.9949   18.6242 O.2       1 RES1    0.0000
     14 C8        -2.9846    8.2030   16.4477 C.3       1 RES1    0.0000
     15 C9         1.1810   10.0125   17.3166 C.3       1 RES1    0.0000
     16 C10        0.4044   11.1898   17.9301 C.3       1 RES1    0.0000
     17 C11        0.9935   12.6125   17.7382 C.3       1 RES1    0.0000
     18 C12        0.2267   13.3930   18.8205 C.3       1 RES1    0.0000
     19 C13        0.6230   14.8617   18.9518 C.3       1 RES1    0.0000
     20 C14        0.3675   15.5527   17.5988 C.3       1 RES1    0.0000
     21 C15        0.7392   17.0604   17.5977 C.3       1 RES1    0.0000
     22 C16        0.1613   17.7315   18.8339 C.2       1 RES1    0.0000
     23 C17       -0.2315   17.0445   19.9106 C.2       1 RES1    0.0000
     24 C18       -0.1622   15.5543   20.0549 C.3       1 RES1    0.0000
     25 C19        0.0646   19.2343   18.7945 C.3       1 RES1    0.0000
     26 C20       -0.6186   19.7570   17.5430 C.3       1 RES1    0.0000
     27 O6        -0.5964   21.1902   17.5200 O.3       1 RES1    0.0000
     28 C21        0.1088   19.2366   16.3350 C.3       1 RES1    0.0000
     29 C22        0.1155   17.7019   16.3417 C.3       1 RES1    0.0000
     30 C23        2.2644   17.2824   17.5798 C.3       1 RES1    0.0000
     31 C24        1.0285   14.7847   16.4403 C.3       1 RES1    0.0000
     32 C25        0.6783   13.2879   16.4012 C.3       1 RES1    0.0000
     33 C26        0.3035   12.4956   20.0486 C.3       1 RES1    0.0000
     34 C27        0.2423   11.0572   19.4756 C.3       1 RES1    0.0000
     35 C28        2.4971   12.5894   18.0200 C.3       1 RES1    0.0000
     36 C29        1.3974   10.1435   15.7985 C.3       1 RES1    0.0000
     37 C30        0.6071    3.9458   14.8590 C.3       1 RES1    0.0000
     38 H1        -0.0283    6.2929   18.5082 H         1 RES1    0.0000
     39 H2         1.4279    7.3982   16.3257 H         1 RES1    0.0000
     40 H3         2.8767    4.0129   19.4451 H         1 RES1    0.0000
     41 H4         1.7167    3.5202   18.4747 H         1 RES1    0.0000
     42 H5         1.3517    4.1328   19.8541 H         1 RES1    0.0000
     43 H6         0.2286    8.6777   18.6197 H         1 RES1    0.0000
     44 H7        -3.6939    7.6380   16.7756 H         1 RES1    0.0000
     45 H8        -2.6961    7.9227   15.5747 H         1 RES1    0.0000
     46 H9        -3.3498    9.0955   16.3666 H         1 RES1    0.0000
     47 H10        2.0632    9.9779   17.7460 H         1 RES1    0.0000
     48 H11       -0.4952   11.1675   17.5155 H         1 RES1    0.0000
     49 H12       -0.7029   13.4044   18.5045 H         1 RES1    0.0000
     50 H13        1.6282   14.9350   19.1217 H         1 RES1    0.0000
     51 H14       -0.6292   15.5214   17.4560 H         1 RES1    0.0000
     52 H15       -0.6132   17.5203   20.6386 H         1 RES1    0.0000
     53 H16       -1.0814   15.1748   20.0884 H         1 RES1    0.0000
     54 H17        0.2777   15.3565   20.9063 H         1 RES1    0.0000
     55 H18       -0.4203   19.5343   19.5753 H         1 RES1    0.0000
     56 H19        0.9794   19.5905   18.7945 H         1 RES1    0.0000
     57 H20       -1.5791   19.4500   17.4932 H         1 RES1    0.0000
     58 H21       -0.3183   19.5717   15.4929 H         1 RES1    0.0000
     59 H22        1.0408   19.5755   16.3555 H         1 RES1    0.0000
     60 H23       -0.8147   17.3779   16.3220 H         1 RES1    0.0000
     61 H24        0.6144   17.3367   15.5524 H         1 RES1    0.0000
     62 H25        2.4393   18.2453   17.6754 H         1 RES1    0.0000
     63 H26        2.6629   16.9452   16.7384 H         1 RES1    0.0000
     64 H27        2.6740   16.8103   18.3223 H         1 RES1    0.0000
     65 H28        0.7459   15.1823   15.5747 H         1 RES1    0.0000
     66 H29        2.0165   14.8900   16.5191 H         1 RES1    0.0000
     67 H30       -0.2949   13.1721   16.2477 H         1 RES1    0.0000
     68 H31        1.1772   12.8405   15.6453 H         1 RES1    0.0000
     69 H32       -0.4190   12.6663   20.6721 H         1 RES1    0.0000
     70 H33        1.1563   12.6419   20.5234 H         1 RES1    0.0000
     71 H34       -0.6427   10.6298   19.6794 H         1 RES1    0.0000
     72 H35        0.9782   10.5043   19.8430 H         1 RES1    0.0000
     73 H36        2.8669   13.4831   18.0360 H         1 RES1    0.0000
     74 H37        2.9554   12.0892   17.3370 H         1 RES1    0.0000
     75 H38        2.6801   12.1529   18.8651 H         1 RES1    0.0000
     76 H39        2.0337   10.8865   15.6193 H         1 RES1    0.0000
     77 H40        0.5395   10.3563   15.3293 H         1 RES1    0.0000
     78 H41        1.7671    9.3072   15.4632 H         1 RES1    0.0000
     79 H42        1.3739    3.5295   14.4705 H         1 RES1    0.0000
     80 H43       -0.0467    3.2766   15.0876 H         1 RES1    0.0000
     81 H44        0.2101    4.5618   14.2399 H         1 RES1    0.0000
     82 H45       -1.3505   21.5014   17.7981 H         1 RES1    0.0000
     83 O7         6.4049    3.7270   14.7173 O.3       2 RES2    0.0000
     84 C31        5.1100    3.3932   14.6597 C.2       2 RES2    0.0000
     85 O8         4.5525    3.0449   13.6417 O.2       2 RES2    0.0000
     86 C32        4.4466    3.5018   15.9986 C.3       2 RES2    0.0000
     87 C33        7.2168    3.6440   13.5086 C.3       2 RES2    0.0000
     88 C34        8.2544    2.5164   13.6525 C.3       2 RES2    0.0000
     89 C35        7.5944    1.1608   13.3253 C.3       2 RES2    0.0000
     90 C36        8.4845   -0.1227   13.3142 C.3       2 RES2    0.0000
     91 C37        7.5474   -1.0832   12.5531 C.3       2 RES2    0.0000
     92 C38        7.0741   -0.2724   11.3496 C.3       2 RES2    0.0000
     93 C39        6.9394    1.1604   11.9062 C.3       2 RES2    0.0000
     94 C40        8.0869   -2.4810   12.2988 C.3       2 RES2    0.0000
     95 C41        8.5152   -3.1326   13.6298 C.3       2 RES2    0.0000
     96 C42        9.3764   -2.1900   14.4838 C.3       2 RES2    0.0000
     97 C43        8.7710   -0.7850   14.6660 C.3       2 RES2    0.0000
     98 C44        9.1505   -4.5393   13.4131 C.3       2 RES2    0.0000
     99 C45        8.2952   -5.3526   12.4453 C.2       2 RES2    0.0000
    100 C46        8.5732   -6.8397   12.3739 C.3       2 RES2    0.0000
    101 C47        8.5593   -7.5003   13.7436 C.3       2 RES2    0.0000
    102 O9         8.9466   -8.8737   13.6045 O.3       2 RES2    0.0000
    103 C48        9.5064   -6.7790   14.6716 C.3       2 RES2    0.0000
    104 C49        9.1650   -5.2874   14.7720 C.3       2 RES2    0.0000
    105 C50        7.3400   -4.8050   11.6860 C.2       2 RES2    0.0000
    106 C51        7.0092   -3.3465   11.6511 C.3       2 RES2    0.0000
    107 C52       10.5800   -4.4447   12.8580 C.3       2 RES2    0.0000
    108 C53        9.7911    0.1531   12.5546 C.3       2 RES2    0.0000
    109 C54        8.9500    2.5688   15.0096 C.3       2 RES2    0.0000
    110 C55        7.8044    5.0438   13.3324 C.3       2 RES2    0.0000
    111 O10        8.8224    4.9843   12.3114 O.3       2 RES2    0.0000
    112 N2         8.7691    6.1782   11.5399 N.2       2 RES2    0.0000
    113 C56        7.6952    6.8097   11.8180 C.2       2 RES2    0.0000
    114 C57        6.8100    6.0875   12.8018 C.3       2 RES2    0.0000
    115 C58        6.2344    6.9502   13.8975 C.2       2 RES2    0.0000
    116 O11        5.0393    6.4937   14.2641 O.3       2 RES2    0.0000
    117 C59        4.4373    7.1087   15.4275 C.3       2 RES2    0.0000
    118 O12        6.7901    7.8995   14.4080 O.2       2 RES2    0.0000
    119 C60        7.3285    8.0719   11.1179 C.3       2 RES2    0.0000
    120 H46        3.5010    3.7375   15.8907 H         2 RES2    0.0000
    121 H47        4.5246    2.6434   16.4261 H         2 RES2    0.0000
    122 H48        4.8785    4.1590   16.5674 H         2 RES2    0.0000
    123 H49        6.6112    3.4490   12.7676 H         2 RES2    0.0000
    124 H50        8.9460    2.6678   12.9386 H         2 RES2    0.0000
    125 H51        6.8730    0.9985   13.9685 H         2 RES2    0.0000
    126 H52        6.7501   -1.2084   13.1617 H         2 RES2    0.0000
    127 H53        6.1971   -0.6164   11.0127 H         2 RES2    0.0000
    128 H54        7.7368   -0.3297   10.6260 H         2 RES2    0.0000
    129 H55        7.3768    1.8004   11.2730 H         2 RES2    0.0000
    130 H56        5.9919    1.4350   12.0166 H         2 RES2    0.0000
    131 H57        8.8674   -2.4130   11.6596 H         2 RES2    0.0000
    132 H58        7.6951   -3.2954   14.1433 H         2 RES2    0.0000
    133 H59       10.2412   -2.0739   14.0466 H         2 RES2    0.0000
    134 H60        9.5469   -2.5891   15.3442 H         2 RES2    0.0000
    135 H61        7.9261   -0.8430   15.1620 H         2 RES2    0.0000
    136 H62        9.4191   -0.2080   15.2141 H         2 RES2    0.0000
    137 H63        7.8487   -7.2614   11.8270 H         2 RES2    0.0000
    138 H64        9.4339   -6.9916   11.9348 H         2 RES2    0.0000
    139 H65        7.6459   -7.4656   14.0949 H         2 RES2    0.0000
    140 H66       10.3899   -6.8980   14.2325 H         2 RES2    0.0000
    141 H67        9.4904   -7.1677   15.5598 H         2 RES2    0.0000
    142 H68        8.2972   -5.2156   15.1769 H         2 RES2    0.0000
    143 H69        9.7841   -4.8466   15.3405 H         2 RES2    0.0000
    144 H70        6.8631   -5.3749   11.1317 H         2 RES2    0.0000
    145 H71        6.8717   -3.0499   10.7190 H         2 RES2    0.0000
    146 H72        6.1664   -3.1492   12.1616 H         2 RES2    0.0000
    147 H73       10.9048   -5.3168   12.6040 H         2 RES2    0.0000
    148 H74       10.6652   -3.8536   12.0984 H         2 RES2    0.0000
    149 H75       11.1702   -4.1215   13.5595 H         2 RES2    0.0000
    150 H76       10.2375   -0.6782   12.3103 H         2 RES2    0.0000
    151 H77        9.6723    0.6370   11.7229 H         2 RES2    0.0000
    152 H78       10.4108    0.6482   13.1357 H         2 RES2    0.0000
    153 H79        9.7485    1.9858   15.0021 H         2 RES2    0.0000
    154 H80        8.3463    2.2856   15.7234 H         2 RES2    0.0000
    155 H81        9.2459    3.4677   15.2029 H         2 RES2    0.0000
    156 H82        8.2136    5.3430   14.1990 H         2 RES2    0.0000
    157 H83        6.0423    5.6390   12.3326 H         2 RES2    0.0000
    158 H84        3.5219    6.7724   15.5003 H         2 RES2    0.0000
    159 H85        4.4411    8.0857   15.3479 H         2 RES2    0.0000
    160 H86        4.9301    6.8230   16.2402 H         2 RES2    0.0000
    161 H87        7.1040    8.7733   11.7489 H         2 RES2    0.0000
    162 H88        6.5879    7.9115   10.5257 H         2 RES2    0.0000
    163 H89        8.0895    8.3293   10.6186 H         2 RES2    0.0000
    164 H90        8.3230   -9.3934   13.8719 H         2 RES2    0.0000
    165 O13        1.0493    7.6026   11.7805 O.3       3 RES3    0.0000
    166 C61        2.4500    7.8023   11.4574 C.3       3 RES3    0.0000
    167 C62        2.8762    6.6602   10.5420 C.3       3 RES3    0.0000
    168 O14        4.3134    6.7612   10.3818 O.3       3 RES3    0.0000
    169 N3         4.8098    5.4433   10.1394 N.2       3 RES3    0.0000
    170 C63        3.9077    4.5981   10.4699 C.2       3 RES3    0.0000
    171 C64        2.6852    5.2432   11.0782 C.3       3 RES3    0.0000
    172 C65        1.3940    4.5880   10.6331 C.2       3 RES3    0.0000
    173 O15        0.5926    4.3338   11.6563 O.3       3 RES3    0.0000
    174 C66       -0.6177    3.6202   11.3503 C.3       3 RES3    0.0000
    175 O16        1.1482    4.3076    9.4902 O.2       3 RES3    0.0000
    176 C67        4.1031    3.1386   10.2762 C.3       3 RES3    0.0000
    177 C68        2.5921    9.1905   10.7989 C.3       3 RES3    0.0000
    178 C69        2.6774   10.2883   11.8831 C.3       3 RES3    0.0000
    179 C70        2.7851   11.7689   11.4243 C.3       3 RES3    0.0000
    180 C71        3.2700   12.4280   12.7323 C.3       3 RES3    0.0000
    181 C72        4.3802   11.5104   13.2298 C.3       3 RES3    0.0000
    182 C73        3.9086   10.0985   12.8163 C.3       3 RES3    0.0000
    183 C74        3.5527   13.9301   12.6103 C.3       3 RES3    0.0000
    184 C75        2.2903   14.6633   12.1251 C.3       3 RES3    0.0000
    185 C76        2.5370   16.1825   11.8876 C.3       3 RES3    0.0000
    186 C77        3.3446   16.7723   13.0401 C.2       3 RES3    0.0000
    187 C78        3.9582   16.0223   13.9555 C.2       3 RES3    0.0000
    188 C79        4.0186   14.5213   13.9392 C.3       3 RES3    0.0000
    189 C80        3.4292   18.2841   13.0892 C.3       3 RES3    0.0000
    190 C81        2.0565   18.9587   12.9788 C.3       3 RES3    0.0000
    191 O17        2.1633   20.3801   12.8498 O.3       3 RES3    0.0000
    192 C82        1.3033   18.4450   11.7827 C.3       3 RES3    0.0000
    193 C83        1.1728   16.9188   11.8363 C.3       3 RES3    0.0000
    194 C84        3.3016   16.4264   10.5744 C.3       3 RES3    0.0000
    195 C85        1.6522   13.9754   10.9090 C.3       3 RES3    0.0000
    196 C86        1.4580   12.4598   11.0648 C.3       3 RES3    0.0000
    197 C87        3.8195   11.9006   10.3018 C.3       3 RES3    0.0000
    198 C88        1.4722    9.4123    9.7743 C.3       3 RES3    0.0000
    199 O18        1.5405    7.1121   13.9139 O.2       3 RES3    0.0000
    200 C89       -0.7553    7.2998   13.2368 C.3       3 RES3    0.0000
    201 C90        0.7172    7.3187   13.0506 C.2       3 RES3    0.0000
    202 H91        2.9578    7.7672   12.3066 H         3 RES3    0.0000
    203 H92        2.4528    6.7593    9.6742 H         3 RES3    0.0000
    204 H93        2.7293    5.2362   12.0649 H         3 RES3    0.0000
    205 H94       -1.0728    3.4640   12.1765 H         3 RES3    0.0000
    206 H95       -0.3699    2.7952   10.9421 H         3 RES3    0.0000
    207 H96       -1.1809    4.1328   10.7227 H         3 RES3    0.0000
    208 H97        3.9360    2.6621   11.1019 H         3 RES3    0.0000
    209 H98        3.5071    2.8139    9.5776 H         3 RES3    0.0000
    210 H99        5.0186    2.9956    9.9940 H         3 RES3    0.0000
    211 H100       3.4617    9.1723   10.2728 H         3 RES3    0.0000
    212 H101       1.8728   10.1933   12.4256 H         3 RES3    0.0000
    213 H102       2.4970   12.3590   13.3811 H         3 RES3    0.0000
    214 H103       5.2275   11.7558   12.8011 H         3 RES3    0.0000
    215 H104       4.5050   11.5759   14.2139 H         3 RES3    0.0000
    216 H105       4.6377    9.6519   12.3177 H         3 RES3    0.0000
    217 H106       3.6558    9.5845   13.6153 H         3 RES3    0.0000
    218 H107       4.2862   14.0957   11.9422 H         3 RES3    0.0000
    219 H108       1.6589   14.5903   12.8792 H         3 RES3    0.0000
    220 H109       4.4091   16.4843   14.6861 H         3 RES3    0.0000
    221 H110       3.4887   14.1463   14.6935 H         3 RES3    0.0000
    222 H111       4.9461   14.2493   14.0875 H         3 RES3    0.0000
    223 H112       3.9606   18.5788   12.3438 H         3 RES3    0.0000
    224 H113       3.8795   18.5713   13.9313 H         3 RES3    0.0000
    225 H114       1.5139   18.7661   13.7863 H         3 RES3    0.0000
    226 H115       1.8175   18.6912   10.9532 H         3 RES3    0.0000
    227 H116       0.4129   18.8636   11.7414 H         3 RES3    0.0000
    228 H117       0.6882   16.6192   11.0239 H         3 RES3    0.0000
    229 H118       0.6476   16.6623   12.6263 H         3 RES3    0.0000
    230 H119       3.5809   17.3592   10.4996 H         3 RES3    0.0000
    231 H120       2.7330   16.2595    9.7821 H         3 RES3    0.0000
    232 H121       4.1302   15.8829   10.4885 H         3 RES3    0.0000
    233 H122       2.2082   14.1275   10.1353 H         3 RES3    0.0000
    234 H123       0.7791   14.3823   10.7413 H         3 RES3    0.0000
    235 H124       1.1256   12.1080   10.1910 H         3 RES3    0.0000
    236 H125       0.8000   12.2672   11.7712 H         3 RES3    0.0000
    237 H126       4.0626   12.8255   10.1130 H         3 RES3    0.0000
    238 H127       3.5096   11.5347    9.4660 H         3 RES3    0.0000
    239 H128       4.6389   11.4186   10.5071 H         3 RES3    0.0000
    240 H129       1.6663   10.2046    9.2690 H         3 RES3    0.0000
    241 H130       1.3689    8.6702    9.1649 H         3 RES3    0.0000
    242 H131       0.6390    9.5582   10.2468 H         3 RES3    0.0000
    243 H132      -0.9941    6.8942   14.0987 H         3 RES3    0.0000
    244 H133      -1.1846    6.7874   12.5222 H         3 RES3    0.0000
    245 H134      -1.0863    8.2056   13.2026 H         3 RES3    0.0000
    246 H135       2.7526   20.6621   13.4034 H         3 RES3    0.0000
@<TRIPOS>BOND
     1    1    2 1
     2    2    3 2
     3    4    2 1
     4    5    4 1
     5    6    5 1
     6    7    6 1
     7    8    4 1
     8    9    8 1
     9   10    5 1
    10   11   10 1
    11   12   11 1
    12   13   12 2
    13   14   12 1
    14   15   10 1
    15   16   15 1
    16   17   16 1
    17   18   17 1
    18   19   18 1
    19   20   19 1
    20   21   20 1
    21   22   21 1
    22   23   22 2
    23   24   19 1
    24   25   22 1
    25   26   25 1
    26   27   26 1
    27   28   26 1
    28   29   21 1
    29   30   21 1
    30   31   20 1
    31   32   17 1
    32   33   18 1
    33   34   16 1
    34   35   17 1
    35   36   15 1
    36   37    1 1
    37   38    4 1
    38   39    5 1
    39   40    9 1
    40   41    9 1
    41   42    9 1
    42   43   10 1
    43   44   14 1
    44   45   14 1
    45   46   14 1
    46   47   15 1
    47   48   16 1
    48   49   18 1
    49   50   19 1
    50   51   20 1
    51   52   23 1
    52   53   24 1
    53   54   24 1
    54   55   25 1
    55   56   25 1
    56   57   26 1
    57   58   28 1
    58   59   28 1
    59   60   29 1
    60   61   29 1
    61   62   30 1
    62   63   30 1
    63   64   30 1
    64   65   31 1
    65   66   31 1
    66   67   32 1
    67   68   32 1
    68   69   33 1
    69   70   33 1
    70   71   34 1
    71   72   34 1
    72   73   35 1
    73   74   35 1
    74   75   35 1
    75   76   36 1
    76   77   36 1
    77   78   36 1
    78   79   37 1
    79   80   37 1
    80   81   37 1
    81   82   27 1
    82   83   84 1
    83   84   85 2
    84   86   84 1
    85   87   83 1
    86   88   87 1
    87   89   88 1
    88   90   89 1
    89   91   90 1
    90   92   91 1
    91   93   89 1
    92   94   91 1
    93   95   94 1
    94   96   95 1
    95   97   90 1
    96   98   95 1
    97   99   98 1
    98  100   99 1
    99  101  100 1
   100  102  101 1
   101  103  101 1
   102  104   98 1
   103  105   99 2
   104  106   94 1
   105  107   98 1
   106  108   90 1
   107  109   88 1
   108  110   87 1
   109  111  110 1
   110  112  111 1
   111  113  112 2
   112  114  110 1
   113  115  114 1
   114  116  115 1
   115  117  116 1
   116  118  115 2
   117  119  113 1
   118  120   86 1
   119  121   86 1
   120  122   86 1
   121  123   87 1
   122  124   88 1
   123  125   89 1
   124  126   91 1
   125  127   92 1
   126  128   92 1
   127  129   93 1
   128  130   93 1
   129  131   94 1
   130  132   95 1
   131  133   96 1
   132  134   96 1
   133  135   97 1
   134  136   97 1
   135  137  100 1
   136  138  100 1
   137  139  101 1
   138  140  103 1
   139  141  103 1
   140  142  104 1
   141  143  104 1
   142  144  105 1
   143  145  106 1
   144  146  106 1
   145  147  107 1
   146  148  107 1
   147  149  107 1
   148  150  108 1
   149  151  108 1
   150  152  108 1
   151  153  109 1
   152  154  109 1
   153  155  109 1
   154  156  110 1
   155  157  114 1
   156  158  117 1
   157  159  117 1
   158  160  117 1
   159  161  119 1
   160  162  119 1
   161  163  119 1
   162  164  102 1
   163  165  166 1
   164  166  167 1
   165  167  168 1
   166  168  169 1
   167  169  170 2
   168  170  171 1
   169  171  167 1
   170  172  171 1
   171  173  172 1
   172  174  173 1
   173  175  172 2
   174  176  170 1
   175  177  166 1
   176  178  177 1
   177  179  178 1
   178  180  179 1
   179  181  180 1
   180  182  178 1
   181  183  180 1
   182  184  183 1
   183  185  184 1
   184  186  185 1
   185  187  186 2
   186  188  183 1
   187  189  186 1
   188  190  189 1
   189  191  190 1
   190  192  190 1
   191  193  185 1
   192  194  185 1
   193  195  184 1
   194  196  179 1
   195  197  179 1
   196  198  177 1
   197  199  201 2
   198  200  201 1
   199  201  165 1
   200  202  166 1
   201  203  167 1
   202  204  171 1
   203  205  174 1
   204  206  174 1
   205  207  174 1
   206  208  176 1
   207  209  176 1
   208  210  176 1
   209  211  177 1
   210  212  178 1
   211  213  180 1
   212  214  181 1
   213  215  181 1
   214  216  182 1
   215  217  182 1
   216  218  183 1
   217  219  184 1
   218  220  187 1
   219  221  188 1
   220  222  188 1
   221  223  189 1
   222  224  189 1
   223  225  190 1
   224  226  192 1
   225  227  192 1
   226  228  193 1
   227  229  193 1
   228  230  194 1
   229  231  194 1
   230  232  194 1
   231  233  195 1
   232  234  195 1
   233  235  196 1
   234  236  196 1
   235  237  197 1
   236  238  197 1
   237  239  197 1
   238  240  198 1
   239  241  198 1
   240  242  198 1
   241  243  200 1
   242  244  200 1
   243  245  200 1
   244  246  191 1
   245    7    8 2
   246   23   24 1
   247   28   29 1
   248   31   32 1
   249   33   34 1
   250   92   93 1
   251   96   97 1
   252  103  104 1
   253  105  106 1
   254  113  114 1
   255  181  182 1
   256  187  188 1
   257  192  193 1
   258  195  196 1
@<TRIPOS>SUBSTRUCTURE
     1 RES1 1
     2 RES2 83
     3 RES3 165

@<TRIPOS>CRYSIN
  12.2885   18.7343   37.1800  90.0000  90.0000  90.0000  19 1

