# MOL2 file generated by ConQuest
# Please check atom types

@<TRIPOS>MOLECULE
ZIRKES
    46    48     1
SMALL
USER_CHARGES
****
Generated from CSD

@<TRIPOS>ATOM
      1 C1         0.8690    9.9650    5.0200 C.3       1 RES1    0.0000
      2 H1         1.8113   10.2048    4.7839 H         1 RES1    0.0000
      3 C2        -0.0415   11.1079    4.5054 C.3       1 RES1    0.0000
      4 H2        -0.9960   10.8115    4.5346 H         1 RES1    0.0000
      5 C3         0.3288   11.4747    3.0815 C.ar      1 RES1    0.0000
      6 C4         1.4415   12.2574    2.8248 C.ar      1 RES1    0.0000
      7 H3         1.9618   12.5857    3.5484 H         1 RES1    0.0000
      8 C5         1.8061   12.5675    1.5223 C.ar      1 RES1    0.0000
      9 H4         2.5733   13.1034    1.3588 H         1 RES1    0.0000
     10 C6         1.0570   12.0986    0.4674 C.ar      1 RES1    0.0000
     11 H5         1.3038   12.3147   -0.4234 H         1 RES1    0.0000
     12 C7        -0.0451   11.3189    0.7049 C.ar      1 RES1    0.0000
     13 H6        -0.5638   10.9948   -0.0214 H         1 RES1    0.0000
     14 C8        -0.4040   11.0018    2.0087 C.ar      1 RES1    0.0000
     15 H7        -1.1635   10.4528    2.1655 H         1 RES1    0.0000
     16 C9         0.5454    8.6533    4.3200 C.ar      1 RES1    0.0000
     17 C10        1.2997    8.2338    3.2353 C.ar      1 RES1    0.0000
     18 H8         2.0284    8.7635    2.9346 H         1 RES1    0.0000
     19 C11        0.9981    7.0444    2.5852 C.ar      1 RES1    0.0000
     20 H9         1.5189    6.7681    1.8412 H         1 RES1    0.0000
     21 C12       -0.0497    6.2656    3.0129 C.ar      1 RES1    0.0000
     22 H10       -0.2560    5.4522    2.5675 H         1 RES1    0.0000
     23 C13       -0.7968    6.6724    4.0919 C.ar      1 RES1    0.0000
     24 H11       -1.5153    6.1318    4.3979 H         1 RES1    0.0000
     25 C14       -0.5136    7.8592    4.7340 C.ar      1 RES1    0.0000
     26 H12       -1.0493    8.1366    5.4673 H         1 RES1    0.0000
     27 C15        1.8865    9.8305    7.2377 C.2       1 RES1    0.0000
     28 C16        1.6848    9.6074    8.6994 C.ar      1 RES1    0.0000
     29 C17        0.6713    8.7919    9.1936 C.ar      1 RES1    0.0000
     30 H13        0.0374    8.4130    8.5949 H         1 RES1    0.0000
     31 C18        0.5802    8.5281   10.5484 C.ar      1 RES1    0.0000
     32 H14       -0.1055    7.9667   10.8917 H         1 RES1    0.0000
     33 C19        1.5112    9.1008   11.3886 C.ar      1 RES1    0.0000
     34 C20        2.5179    9.9277   10.9431 C.ar      1 RES1    0.0000
     35 H15        3.1345   10.3194   11.5510 H         1 RES1    0.0000
     36 C21        2.6035   10.1717    9.5836 C.ar      1 RES1    0.0000
     37 H16        3.2958   10.7292    9.2488 H         1 RES1    0.0000
     38 N1         0.1357   12.3004    5.3834 N.2       1 RES1    0.0000
     39 N2        -0.8813   12.6695    5.9762 N.1       1 RES1    1.0000
     40 N3        -1.7339   13.1358    6.5594 N.2       1 RES1   -1.0000
     41 N4         0.8014    9.8417    6.4677 N.am      1 RES1    0.0000
     42 H17        0.0922    9.8165    6.7966 H         1 RES1    0.0000
     43 N5         1.4349    8.7805   12.8277 N.pl3     1 RES1    0.0000
     44 O1         3.0311    9.9865    6.7891 O.2       1 RES1    0.0000
     45 O2         2.3510    9.1526   13.5554 O.2       1 RES1    0.0000
     46 O3         0.4593    8.1488   13.2241 O.2       1 RES1    0.0000
@<TRIPOS>BOND
     1    1    2 1
     2    3    1 1
     3    4    3 1
     4    5    3 1
     5    6    5 ar
     6    7    6 1
     7    8    6 ar
     8    9    8 1
     9   10    8 ar
    10   11   10 1
    11   12   10 ar
    12   13   12 1
    13   14    5 ar
    14   15   14 1
    15   16    1 1
    16   17   16 ar
    17   18   17 1
    18   19   17 ar
    19   20   19 1
    20   21   19 ar
    21   22   21 1
    22   23   21 ar
    23   24   23 1
    24   25   16 ar
    25   26   25 1
    26   27   28 1
    27   28   29 ar
    28   29   30 1
    29   31   29 ar
    30   32   31 1
    31   33   31 ar
    32   34   33 ar
    33   35   34 1
    34   36   28 ar
    35   37   36 1
    36   38    3 1
    37   39   38 2
    38   40   39 2
    39   41    1 1
    40   42   41 1
    41   43   33 1
    42   44   27 2
    43   45   43 2
    44   46   43 2
    45   12   14 ar
    46   23   25 ar
    47   27   41 1
    48   34   36 ar
@<TRIPOS>SUBSTRUCTURE
     1 RES1 1

@<TRIPOS>CRYSIN
   5.1209   13.4823   26.8004  90.0000  90.0000  90.0000  19 1

