# MOL2 file generated by ConQuest
# Please check atom types

@<TRIPOS>MOLECULE
ZITHER
    29    31     1
SMALL
NO_CHARGES
****
Generated from CSD

@<TRIPOS>ATOM
      1 O1         1.3210    2.8171   13.0622 O.3       1 RES1    0.0000
      2 N1         1.6994    3.2699   14.3762 N.3       1 RES1    0.0000
      3 C1         1.6784    3.6178   11.8751 C.3       1 RES1    0.0000
      4 C2         2.9274    4.4987   12.0505 C.3       1 RES1    0.0000
      5 C3         2.7278    5.8218   12.8194 C.3       1 RES1    0.0000
      6 C4         0.4307    4.4439   11.5425 C.3       1 RES1    0.0000
      7 C5         0.2632    5.6221   12.5051 C.3       1 RES1    0.0000
      8 C6         1.4689    6.5528   12.3362 C.3       1 RES1    0.0000
      9 C7         1.4087    4.6966   14.6525 C.3       1 RES1    0.0000
     10 C8         0.1159    5.1831   13.9863 C.3       1 RES1    0.0000
     11 C9         2.5995    5.6079   14.3313 C.3       1 RES1    0.0000
     12 C10        1.9409    2.5398   10.8259 C.3       1 RES1    0.0000
     13 H1         3.2763    4.7086   11.1701 H         1 RES1    0.0000
     14 H2         3.6030    3.9775   12.5122 H         1 RES1    0.0000
     15 H3         3.5035    6.3977   12.6531 H         1 RES1    0.0000
     16 H4         0.5008    4.7785   10.6353 H         1 RES1    0.0000
     17 H5        -0.3535    3.8751   11.5917 H         1 RES1    0.0000
     18 H6        -0.5440    6.1148   12.2496 H         1 RES1    0.0000
     19 H7         1.3367    7.3619   12.8549 H         1 RES1    0.0000
     20 H8         1.5671    6.8002   11.4037 H         1 RES1    0.0000
     21 H9         1.2627    4.7653   15.6191 H         1 RES1    0.0000
     22 H10       -0.2298    5.9323   14.4968 H         1 RES1    0.0000
     23 H11       -0.5414    4.4713   14.0325 H         1 RES1    0.0000
     24 H12        2.4797    6.4636   14.7705 H         1 RES1    0.0000
     25 H13        3.4144    5.2064   14.6710 H         1 RES1    0.0000
     26 H14        2.7422    2.0623   11.0513 H         1 RES1    0.0000
     27 H15        2.0450    2.9504    9.9649 H         1 RES1    0.0000
     28 H16        1.2006    1.9295   10.8025 H         1 RES1    0.0000
     29 H17        2.6158    3.1431   14.3835 H         1 RES1    0.0000
@<TRIPOS>BOND
     1    1    2 1
     2    2    9 1
     3    3    1 1
     4    4    3 1
     5    5    4 1
     6    6    3 1
     7    7    6 1
     8    8    5 1
     9    9   10 1
    10   10    7 1
    11   11    5 1
    12   12    3 1
    13   13    4 1
    14   14    4 1
    15   15    5 1
    16   16    6 1
    17   17    6 1
    18   18    7 1
    19   19    8 1
    20   20    8 1
    21   21    9 1
    22   22   10 1
    23   23   10 1
    24   24   11 1
    25   25   11 1
    26   26   12 1
    27   27   12 1
    28   28   12 1
    29   29    2 1
    30    7    8 1
    31    9   11 1
@<TRIPOS>SUBSTRUCTURE
     1 RES1 1

@<TRIPOS>CRYSIN
   6.5461   10.1390   13.8210  90.0000  90.0000  90.0000  19 1

