# MOL2 file generated by ConQuest
# Please check atom types

@<TRIPOS>MOLECULE
ZIVBUB
    23    24     1
SMALL
NO_CHARGES
****
Generated from CSD

@<TRIPOS>ATOM
      1 O1         1.1114   12.0884   -0.1184 O.3       1 RES1    0.0000
      2 O2         0.9131   10.8163    1.6493 O.2       1 RES1    0.0000
      3 O3         5.2144   14.2027   -4.3246 O.2       1 RES1    0.0000
      4 O4         3.6301   15.6481   -4.5421 O.2       1 RES1    0.0000
      5 N1         2.8201   10.6369    0.4382 N.am      1 RES1    0.0000
      6 N2         4.1150   14.6462   -4.0329 N.pl3     1 RES1    0.0000
      7 C1         1.8993   12.6943   -1.0809 C.ar      1 RES1    0.0000
      8 C2         3.1314   12.1810   -1.4200 C.ar      1 RES1    0.0000
      9 C3         3.8582   12.8298   -2.4008 C.ar      1 RES1    0.0000
     10 H1         4.6954   12.5122   -2.6516 H         1 RES1    0.0000
     11 C4         3.3292   13.9494   -3.0004 C.ar      1 RES1    0.0000
     12 C5         2.0959   14.4504   -2.6613 C.ar      1 RES1    0.0000
     13 H2         1.7605   15.2087   -3.0823 H         1 RES1    0.0000
     14 C6         1.3653   13.8112   -1.6870 C.ar      1 RES1    0.0000
     15 H3         0.5259   14.1274   -1.4415 H         1 RES1    0.0000
     16 C7         1.6202   11.1188    0.7235 C.2       1 RES1    0.0000
     17 C8         3.6287   10.9490   -0.7364 C.3       1 RES1    0.0000
     18 H4         3.6000   10.2030   -1.3543 H         1 RES1    0.0000
     19 H5         4.5514   11.0804   -0.4662 H         1 RES1    0.0000
     20 C9         3.3513    9.5884    1.2908 C.3       1 RES1    0.0000
     21 H6         4.2195    9.3284    0.9754 H         1 RES1    0.0000
     22 H7         2.7626    8.8288    1.2693 H         1 RES1    0.0000
     23 H8         3.4223    9.9128    2.1909 H         1 RES1    0.0000
@<TRIPOS>BOND
     1    1    7 1
     2    2   16 2
     3    3    6 2
     4    4    6 2
     5    5   16 1
     6    6   11 1
     7    7    8 ar
     8    8    9 ar
     9    9   10 1
    10   11    9 ar
    11   12   11 ar
    12   13   12 1
    13   14    7 ar
    14   15   14 1
    15   16    1 1
    16   17    5 1
    17   18   17 1
    18   19   17 1
    19   20    5 1
    20   21   20 1
    21   22   20 1
    22   23   20 1
    23    8   17 1
    24   12   14 ar
@<TRIPOS>SUBSTRUCTURE
     1 RES1 1

@<TRIPOS>CRYSIN
   6.0420   13.6880   10.9040  90.0000  99.1300  90.0000 231 1

