# MOL2 file generated by ConQuest
# Please check atom types

@<TRIPOS>MOLECULE
ZIVCAI
    25    25     1
SMALL
NO_CHARGES
****
Generated from CSD

@<TRIPOS>ATOM
      1 O1         0.7766    4.2657    2.2811 O.3       1 RES1    0.0000
      2 O2         2.7244    3.7780    3.3406 O.2       1 RES1    0.0000
      3 O3         2.5328   10.1036    0.9197 O.2       1 RES1    0.0000
      4 O4         0.6141   10.4706    1.8415 O.2       1 RES1    0.0000
      5 N1         1.3348    2.1402    2.6191 N.am      1 RES1    0.0000
      6 N2         1.5230    9.7231    1.4947 N.pl3     1 RES1    0.0000
      7 C1         1.0680    5.6219    2.1758 C.ar      1 RES1    0.0000
      8 C2         2.2515    6.0853    1.6331 C.ar      1 RES1    0.0000
      9 H1         2.9340    5.4938    1.4093 H         1 RES1    0.0000
     10 C3         2.3994    7.4402    1.4299 C.ar      1 RES1    0.0000
     11 H2         3.1873    7.7755    1.0669 H         1 RES1    0.0000
     12 C4         1.3751    8.2914    1.7664 C.ar      1 RES1    0.0000
     13 C5         0.2051    7.8389    2.3312 C.ar      1 RES1    0.0000
     14 H3        -0.4729    8.4341    2.5609 H         1 RES1    0.0000
     15 C6         0.0605    6.4829    2.5484 C.ar      1 RES1    0.0000
     16 H4        -0.7139    6.1536    2.9445 H         1 RES1    0.0000
     17 C7         1.7158    3.4000    2.7855 C.2       1 RES1    0.0000
     18 C8         0.1311    1.7366    1.9056 C.3       1 RES1    0.0000
     19 H5         0.0605    0.7793    1.9122 H         1 RES1    0.0000
     20 H6         0.1771    2.0475    0.9984 H         1 RES1    0.0000
     21 H7        -0.6388    2.1171    2.3356 H         1 RES1    0.0000
     22 C9         2.1361    1.0854    3.2184 C.3       1 RES1    0.0000
     23 H8         1.7438    0.2329    3.0167 H         1 RES1    0.0000
     24 H9         2.1652    1.2073    4.1697 H         1 RES1    0.0000
     25 H10        3.0270    1.1195    2.8635 H         1 RES1    0.0000
@<TRIPOS>BOND
     1    1    7 1
     2    2   17 2
     3    3    6 2
     4    4    6 2
     5    5   17 1
     6    6   12 1
     7    7    8 ar
     8    8    9 1
     9   10    8 ar
    10   11   10 1
    11   12   10 ar
    12   13   12 ar
    13   14   13 1
    14   15    7 ar
    15   16   15 1
    16   17    1 1
    17   18    5 1
    18   19   18 1
    19   20   18 1
    20   21   18 1
    21   22    5 1
    22   23   22 1
    23   24   22 1
    24   25   22 1
    25   13   15 ar
@<TRIPOS>SUBSTRUCTURE
     1 RES1 1

@<TRIPOS>CRYSIN
  11.2070   12.1950    7.3631  90.0000  90.0000  90.0000  29 1

