# MOL2 file generated by ConQuest
# Please check atom types

@<TRIPOS>MOLECULE
ZIVJET
    21    21     1
SMALL
NO_CHARGES
****
Generated from CSD

@<TRIPOS>ATOM
      1 O1         1.8921    4.5468    3.0444 O.3       1 RES1    0.0000
      2 O2         1.0014    1.1610    5.0203 O.2       1 RES1    0.0000
      3 O3         3.1017   -1.2744    1.5381 O.3       1 RES1    0.0000
      4 N1         1.5689    3.4333    3.7610 N.2       1 RES1    0.0000
      5 C1         2.0211    2.3458    3.2334 C.2       1 RES1    0.0000
      6 C2         1.6302    1.0897    3.9463 C.2       1 RES1    0.0000
      7 C3         2.0313   -0.1588    3.3737 C.2       1 RES1    0.0000
      8 C4         2.6946   -0.1685    2.1855 C.2       1 RES1    0.0000
      9 C5         3.0770    1.0422    1.5082 C.2       1 RES1    0.0000
     10 C6         2.7565    2.2486    2.0003 C.2       1 RES1    0.0000
     11 C7         2.8185   -2.5661    2.1406 C.3       1 RES1    0.0000
     12 C8         3.2405   -3.6223    1.1545 C.3       1 RES1    0.0000
     13 H1         1.3879    5.1948    3.5926 H         1 RES1    0.0000
     14 H2         1.7753   -0.8856    4.0922 H         1 RES1    0.0000
     15 H3         3.6353    1.2442    0.7672 H         1 RES1    0.0000
     16 H4         3.1306    2.8685    1.3510 H         1 RES1    0.0000
     17 H5         3.2792   -2.7000    3.1417 H         1 RES1    0.0000
     18 H6         1.7920   -2.5304    2.7394 H         1 RES1    0.0000
     19 H7         3.1405   -4.6818    1.1695 H         1 RES1    0.0000
     20 H8         2.6526   -3.4376    0.4004 H         1 RES1    0.0000
     21 H9         4.1874   -3.4711    1.2612 H         1 RES1    0.0000
@<TRIPOS>BOND
     1    1    4 1
     2    2    6 2
     3    3    8 1
     4    4    5 2
     5    5    6 1
     6    6    7 1
     7    7    8 2
     8    8    9 1
     9    9   10 2
    10   10    5 1
    11   11    3 1
    12   12   11 1
    13   13    1 1
    14   14    7 1
    15   15    9 1
    16   16   10 1
    17   17   11 1
    18   18   11 1
    19   19   12 1
    20   20   12 1
    21   21   12 1
@<TRIPOS>SUBSTRUCTURE
     1 RES1 1

@<TRIPOS>CRYSIN
   3.9790   10.8000   18.7130  90.0000  90.7100  90.0000 231 1

