# MOL2 file generated by ConQuest
# Please check atom types

@<TRIPOS>MOLECULE
ZIVMOG
    44    47     1
SMALL
NO_CHARGES
****
Generated from CSD

@<TRIPOS>ATOM
      1 N1         6.2259    1.9005    2.2442 N.3       1 RES1    0.0000
      2 C1         5.0549    2.1277    1.5769 C.2       1 RES1    0.0000
      3 N2         4.2359    2.9168    2.2210 N.2       1 RES1    0.0000
      4 C2         4.9305    3.2096    3.3541 C.2       1 RES1    0.0000
      5 C3         6.1502    2.6119    3.4017 C.2       1 RES1    0.0000
      6 N3         4.4030    4.1049    4.3423 N.pl3     1 RES1    0.0000
      7 O1         5.1512    4.4384    5.2497 O.2       1 RES1    0.0000
      8 O2         3.2534    4.4920    4.2364 O.2       1 RES1    0.0000
      9 C4         7.3652    1.0671    1.7213 C.3       1 RES1    0.0000
     10 C5         8.5775    1.2731    2.6558 C.ar      1 RES1    0.0000
     11 C6         9.6818    2.0261    2.3025 C.ar      1 RES1    0.0000
     12 C7        10.7254    2.2146    3.1971 C.ar      1 RES1    0.0000
     13 C8        10.6766    1.6566    4.4517 C.ar      1 RES1    0.0000
     14 C9         9.5978    0.8749    4.8043 C.ar      1 RES1    0.0000
     15 C10        8.5601    0.6763    3.9108 C.ar      1 RES1    0.0000
     16 C11        6.9733   -0.4222    1.7461 C.ar      1 RES1    0.0000
     17 C12        5.7003   -0.8731    2.0674 C.ar      1 RES1    0.0000
     18 C13        5.4161   -2.2340    2.0590 C.ar      1 RES1    0.0000
     19 C14        6.3853   -3.1431    1.7197 C.ar      1 RES1    0.0000
     20 C15        7.6661   -2.7144    1.4266 C.ar      1 RES1    0.0000
     21 C16        7.9569   -1.3637    1.4559 C.ar      1 RES1    0.0000
     22 C17        7.6289    1.5799    0.2865 C.ar      1 RES1    0.0000
     23 C18        7.7978    0.7437   -0.8053 C.ar      1 RES1    0.0000
     24 C19        8.0642    1.2759   -2.0631 C.ar      1 RES1    0.0000
     25 C20        8.1536    2.6331   -2.2556 C.ar      1 RES1    0.0000
     26 C21        7.9564    3.4757   -1.1843 C.ar      1 RES1    0.0000
     27 C22        7.7031    2.9491    0.0709 C.ar      1 RES1    0.0000
     28 H1         4.8832    1.7951    0.6644 H         1 RES1    0.0000
     29 H2         6.8789    2.6544    4.1058 H         1 RES1    0.0000
     30 H3         9.6922    2.4105    1.4070 H         1 RES1    0.0000
     31 H4        11.4800    2.7310    2.9431 H         1 RES1    0.0000
     32 H5        11.3554    1.8700    5.0341 H         1 RES1    0.0000
     33 H6         9.5935    0.3862    5.7083 H         1 RES1    0.0000
     34 H7         7.8505    0.0822    4.2036 H         1 RES1    0.0000
     35 H8         4.9538   -0.1894    2.3744 H         1 RES1    0.0000
     36 H9         4.4457   -2.5564    2.1985 H         1 RES1    0.0000
     37 H10        6.2221   -4.0550    1.6924 H         1 RES1    0.0000
     38 H11        8.4366   -3.3528    1.2722 H         1 RES1    0.0000
     39 H12        8.8538   -1.0218    1.2585 H         1 RES1    0.0000
     40 H13        7.7857   -0.2328   -0.6918 H         1 RES1    0.0000
     41 H14        8.1699    0.6892   -2.8024 H         1 RES1    0.0000
     42 H15        8.2930    3.0914   -3.1815 H         1 RES1    0.0000
     43 H16        7.9874    4.4440   -1.2996 H         1 RES1    0.0000
     44 H17        7.5450    3.5903    0.8130 H         1 RES1    0.0000
@<TRIPOS>BOND
     1    1    2 1
     2    2    3 2
     3    3    4 1
     4    4    5 2
     5    5    1 1
     6    6    4 1
     7    7    6 2
     8    8    6 2
     9    9    1 1
    10   10    9 1
    11   11   10 ar
    12   12   11 ar
    13   13   12 ar
    14   14   13 ar
    15   15   10 ar
    16   16    9 1
    17   17   16 ar
    18   18   17 ar
    19   19   18 ar
    20   20   19 ar
    21   21   16 ar
    22   22    9 1
    23   23   22 ar
    24   24   23 ar
    25   25   24 ar
    26   26   25 ar
    27   27   22 ar
    28   28    2 1
    29   29    5 1
    30   30   11 1
    31   31   12 1
    32   32   13 1
    33   33   14 1
    34   34   15 1
    35   35   17 1
    36   36   18 1
    37   37   19 1
    38   38   20 1
    39   39   21 1
    40   40   23 1
    41   41   24 1
    42   42   25 1
    43   43   26 1
    44   44   27 1
    45   14   15 ar
    46   20   21 ar
    47   26   27 ar
@<TRIPOS>SUBSTRUCTURE
     1 RES1 1

@<TRIPOS>CRYSIN
   9.8300    9.2390   19.6540  90.0000  96.1100  90.0000  14 1

