# MOL2 file generated by ConQuest
# Please check atom types

@<TRIPOS>MOLECULE
ZIVMIA
    14    14     1
SMALL
NO_CHARGES
****
Generated from CSD

@<TRIPOS>ATOM
      1 O1         5.3975    0.4663    8.5129 O.3       1 RES1    0.0000
      2 O2         4.0255    2.6434    8.8716 O.2       1 RES1    0.0000
      3 O3         3.6212    2.8126    6.7516 O.2       1 RES1    0.0000
      4 O4         7.2612   -2.5143    8.3729 O.2       1 RES1    0.0000
      5 O5         6.6576   -1.2722   10.1366 O.3       1 RES1    0.0000
      6 H1         7.0596   -1.9461   10.6743 H         1 RES1    0.0000
      7 N1         4.1287    2.2599    7.7163 N.pl3     1 RES1    0.0000
      8 C1         6.7204   -1.5215    8.8900 C.2       1 RES1    0.0000
      9 C2         6.0870   -0.5849    7.9813 C.2       1 RES1    0.0000
     10 C3         6.0197   -0.5704    6.6318 C.2       1 RES1    0.0000
     11 H2         6.4355   -1.2187    6.0663 H         1 RES1    0.0000
     12 C4         5.2477    0.5437    6.2757 C.2       1 RES1    0.0000
     13 H3         5.0267    0.8197    5.4259 H         1 RES1    0.0000
     14 C5         4.9085    1.1130    7.4417 C.2       1 RES1    0.0000
@<TRIPOS>BOND
     1    1    9 1
     2    2    7 2
     3    3    7 2
     4    4    8 2
     5    5    6 1
     6    7   14 1
     7    8    5 1
     8    9    8 1
     9   10    9 2
    10   11   10 1
    11   12   10 1
    12   13   12 1
    13   14    1 1
    14   12   14 2
@<TRIPOS>SUBSTRUCTURE
     1 RES1 1

@<TRIPOS>CRYSIN
  22.1620    5.5650   10.5700  90.0000 109.3300  90.0000  15 1

