# MOL2 file generated by ConQuest
# Please check atom types

@<TRIPOS>MOLECULE
ZIVQEA
    42    42     1
SMALL
NO_CHARGES
****
Generated from CSD

@<TRIPOS>ATOM
      1 O1         0.0674    3.0424    5.5321 O.2       1 RES1    0.0000
      2 O2         2.3907    6.3070    7.2532 O.2       1 RES1    0.0000
      3 N1        -0.8099    3.9500    5.8643 N.pl3     1 RES1    0.0000
      4 O3         1.9866    8.5372    6.9709 O.3       1 RES1    0.0000
      5 N2         0.9714    7.0902    5.6550 N.am      1 RES1    0.0000
      6 H1         0.6105    7.8031    5.3111 H         1 RES1    0.0000
      7 C1        -0.6052    5.2264    5.7444 C.2       1 RES1    0.0000
      8 H2        -1.2554    5.8217    6.0704 H         1 RES1    0.0000
      9 C2         1.8322    7.2195    6.6833 C.2       1 RES1    0.0000
     10 C3         0.6306    5.7837    5.1048 C.3       1 RES1    0.0000
     11 H3         1.3838    5.1622    5.2670 H         1 RES1    0.0000
     12 C4         2.9059    8.9975    8.0212 C.3       1 RES1    0.0000
     13 C5        -2.0931    2.6211    7.5971 C.ar      1 RES1    0.0000
     14 C6        -2.1369    3.4524    6.3321 C.3       1 RES1    0.0000
     15 H4        -2.5380    2.9148    5.6182 H         1 RES1    0.0000
     16 H5        -2.7225    4.2234    6.4854 H         1 RES1    0.0000
     17 C7        -1.0507    2.6762    8.5182 C.ar      1 RES1    0.0000
     18 H6        -0.2863    3.1928    8.3378 H         1 RES1    0.0000
     19 C8         2.6983   10.5027    7.9827 C.3       1 RES1    0.0000
     20 H7         1.7789   10.7086    8.2138 H         1 RES1    0.0000
     21 H8         2.8888   10.8331    7.0906 H         1 RES1    0.0000
     22 H9         3.2940   10.9275    8.6189 H         1 RES1    0.0000
     23 C9        -3.2053    1.8422    7.8750 C.ar      1 RES1    0.0000
     24 H10       -3.9105    1.7990    7.2546 H         1 RES1    0.0000
     25 C10        0.4011    5.9017    3.5900 C.3       1 RES1    0.0000
     26 H11        1.1968    6.2623    3.1692 H         1 RES1    0.0000
     27 H12       -0.3496    6.4931    3.4219 H         1 RES1    0.0000
     28 H13        0.2100    5.0245    3.2229 H         1 RES1    0.0000
     29 C11       -1.1495    1.9602    9.7103 C.ar      1 RES1    0.0000
     30 H14       -0.4508    1.9996   10.3381 H         1 RES1    0.0000
     31 C12        4.3382    8.6421    7.6617 C.3       1 RES1    0.0000
     32 H15        4.4500    7.6797    7.6921 H         1 RES1    0.0000
     33 H16        4.9428    9.0578    8.2956 H         1 RES1    0.0000
     34 H17        4.5364    8.9634    6.7686 H         1 RES1    0.0000
     35 C13       -3.2887    1.1211    9.0652 C.ar      1 RES1    0.0000
     36 H18       -4.0424    0.5887    9.2435 H         1 RES1    0.0000
     37 C14       -2.2664    1.1945    9.9746 C.ar      1 RES1    0.0000
     38 H19       -2.3262    0.7185   10.7827 H         1 RES1    0.0000
     39 C15        2.4971    8.4258    9.3680 C.3       1 RES1    0.0000
     40 H20        1.5796    8.6736    9.5596 H         1 RES1    0.0000
     41 H21        3.0787    8.7785   10.0593 H         1 RES1    0.0000
     42 H22        2.5723    7.4581    9.3449 H         1 RES1    0.0000
@<TRIPOS>BOND
     1    1    3 1
     2    2    9 2
     3    3    7 2
     4    4    9 1
     5    5    6 1
     6    7    8 1
     7    9    5 1
     8   10    5 1
     9   11   10 1
    10   12    4 1
    11   13   14 1
    12   14    3 1
    13   15   14 1
    14   16   14 1
    15   17   13 ar
    16   18   17 1
    17   19   12 1
    18   20   19 1
    19   21   19 1
    20   22   19 1
    21   23   13 ar
    22   24   23 1
    23   25   10 1
    24   26   25 1
    25   27   25 1
    26   28   25 1
    27   29   17 ar
    28   30   29 1
    29   31   12 1
    30   32   31 1
    31   33   31 1
    32   34   31 1
    33   35   23 ar
    34   36   35 1
    35   37   29 ar
    36   38   37 1
    37   39   12 1
    38   40   39 1
    39   41   39 1
    40   42   39 1
    41    7   10 1
    42   35   37 ar
@<TRIPOS>SUBSTRUCTURE
     1 RES1 1

@<TRIPOS>CRYSIN
   5.9160   13.1120   20.2530  90.0000  90.0000  90.0000  19 1

