# MOL2 file generated by ConQuest
# Please check atom types

@<TRIPOS>MOLECULE
ZIVXIN
    37    39     1
SMALL
NO_CHARGES
****
Generated from CSD

@<TRIPOS>ATOM
      1 O1        10.1604    7.8955    3.6889 O.2       1 RES1    0.0000
      2 O2         8.3408    6.8988    4.3129 O.2       1 RES1    0.0000
      3 O3        16.8128    5.2135    7.8081 O.2       1 RES1    0.0000
      4 O4        14.0643    4.9604    4.1173 O.2       1 RES1    0.0000
      5 O5        17.0688    3.6219    6.3164 O.3       1 RES1    0.0000
      6 O6        15.6820    3.5116    4.4096 O.3       1 RES1    0.0000
      7 N1        12.4232    4.9249    8.6069 N.pl3     1 RES1    0.0000
      8 H1        12.2150    4.4390    9.2672 H         1 RES1    0.0000
      9 N2         9.5453    7.1590    4.4550 N.pl3     1 RES1    0.0000
     10 C1        13.7002    5.2733    8.2299 C.2       1 RES1    0.0000
     11 H2        14.4872    5.0579    8.7178 H         1 RES1    0.0000
     12 C2        13.6781    5.9710    7.0586 C.2       1 RES1    0.0000
     13 C3        12.2940    6.0607    6.6751 C.ar      1 RES1    0.0000
     14 C4        11.5411    5.4034    7.6815 C.ar      1 RES1    0.0000
     15 C5        10.1438    5.3395    7.6493 C.ar      1 RES1    0.0000
     16 H3         9.6543    4.9141    8.3437 H         1 RES1    0.0000
     17 C6         9.5019    5.9139    6.5767 C.ar      1 RES1    0.0000
     18 H4         8.5559    5.8793    6.5132 H         1 RES1    0.0000
     19 C7        10.2553    6.5526    5.5748 C.ar      1 RES1    0.0000
     20 C8        11.6344    6.6480    5.5962 C.ar      1 RES1    0.0000
     21 H5        12.1119    7.0938    4.9063 H         1 RES1    0.0000
     22 C9        14.8328    6.6051    6.3268 C.3       1 RES1    0.0000
     23 H6        15.3437    7.1625    6.9660 H         1 RES1    0.0000
     24 H7        14.4720    7.2063    5.6283 H         1 RES1    0.0000
     25 C10       15.7988    5.6091    5.6653 C.3       1 RES1    0.0000
     26 H8        16.4582    6.1528    5.1451 H         1 RES1    0.0000
     27 C11       16.5988    4.8255    6.6897 C.2       1 RES1    0.0000
     28 C12       15.1023    4.7023    4.6679 C.2       1 RES1    0.0000
     29 C13       16.9912    3.2055    4.9344 C.3       1 RES1    0.0000
     30 C14       17.0778    1.7028    4.9448 C.3       1 RES1    0.0000
     31 H9        16.3734    1.3387    5.5220 H         1 RES1    0.0000
     32 H10       17.9535    1.4286    5.2859 H         1 RES1    0.0000
     33 H11       16.9605    1.3622    4.0338 H         1 RES1    0.0000
     34 C15       18.0710    3.8748    4.1165 C.3       1 RES1    0.0000
     35 H12       18.0466    3.5301    3.2000 H         1 RES1    0.0000
     36 H13       18.9471    3.6856    4.5142 H         1 RES1    0.0000
     37 H14       17.9200    4.8430    4.1056 H         1 RES1    0.0000
@<TRIPOS>BOND
     1    1    9 2
     2    2    9 2
     3    3   27 2
     4    4   28 2
     5    5   27 1
     6    6   28 1
     7    7    8 1
     8    9   19 1
     9   10    7 1
    10   11   10 1
    11   12   10 2
    12   13   12 1
    13   14    7 1
    14   15   14 ar
    15   16   15 1
    16   17   15 ar
    17   18   17 1
    18   19   17 ar
    19   20   13 ar
    20   21   20 1
    21   22   12 1
    22   23   22 1
    23   24   22 1
    24   25   22 1
    25   26   25 1
    26   27   25 1
    27   28   25 1
    28   29    5 1
    29   30   29 1
    30   31   30 1
    31   32   30 1
    32   33   30 1
    33   34   29 1
    34   35   34 1
    35   36   34 1
    36   37   34 1
    37    6   29 1
    38   13   14 ar
    39   19   20 ar
@<TRIPOS>SUBSTRUCTURE
     1 RES1 1

@<TRIPOS>CRYSIN
  26.0300    7.8151   14.1710  90.0000 103.0520  90.0000  15 1

