# MOL2 file generated by ConQuest
# Please check atom types

@<TRIPOS>MOLECULE
ZIWHOE
    58    60     2
SMALL
NO_CHARGES
****
Generated from CSD

@<TRIPOS>ATOM
      1 O1         6.5901    0.7962    0.2179 O.2       1 RES1    0.0000
      2 O2         7.3971    2.3654    1.4785 O.2       1 RES1    0.0000
      3 O3         6.8007    4.3915   -0.3248 O.2       1 RES1    0.0000
      4 O4         6.1945    5.7136    1.2872 O.2       1 RES1    0.0000
      5 N1         6.4778    1.8208    0.8741 N.pl3     1 RES1    0.0000
      6 N2         6.0815    4.6945    0.6211 N.pl3     1 RES1    0.0000
      7 C1         5.1407    2.4136    0.9710 C.ar      1 RES1    0.0000
      8 C2         4.9687    3.7979    0.9502 C.ar      1 RES1    0.0000
      9 C3         3.7004    4.3321    1.1098 C.ar      1 RES1    0.0000
     10 C4         2.6060    3.4655    1.2954 C.ar      1 RES1    0.0000
     11 C5         2.7795    2.0947    1.3146 C.ar      1 RES1    0.0000
     12 H1         2.0334    1.5195    1.4369 H         1 RES1    0.0000
     13 C6         4.0647    1.5608    1.1521 C.ar      1 RES1    0.0000
     14 H2         4.1975    0.6202    1.1663 H         1 RES1    0.0000
     15 C7         3.2318    5.7562    1.0656 C.3       1 RES1    0.0000
     16 H3         3.6878    6.2589    0.3450 H         1 RES1    0.0000
     17 H4         3.3940    6.2106    1.9293 H         1 RES1    0.0000
     18 C8         1.7085    5.6253    0.7785 C.3       1 RES1    0.0000
     19 C9         1.3388    4.2684    1.4189 C.3       1 RES1    0.0000
     20 H5         1.0797    4.3818    2.3683 H         1 RES1    0.0000
     21 H6         0.5945    3.8356    0.9298 H         1 RES1    0.0000
     22 C10        1.4826    5.5460   -0.7312 C.3       1 RES1    0.0000
     23 H7         0.5277    5.4170   -0.9120 H         1 RES1    0.0000
     24 H8         1.9893    4.7908   -1.0983 H         1 RES1    0.0000
     25 H9         1.7859    6.3781   -1.1518 H         1 RES1    0.0000
     26 C11        0.9084    6.7725    1.3794 C.3       1 RES1    0.0000
     27 H10        1.2209    7.6215    1.0011 H         1 RES1    0.0000
     28 H11        1.0314    6.7825    2.3521 H         1 RES1    0.0000
     29 H12       -0.0416    6.6527    1.1712 H         1 RES1    0.0000
     30 O5         4.6445    8.6419    2.5041 O.2       2 RES2    0.0000
     31 O6         5.5056   10.1771    3.7700 O.2       2 RES2    0.0000
     32 O7         4.9502   12.1848    1.9406 O.2       2 RES2    0.0000
     33 O8         4.3038   13.6279    3.4250 O.2       2 RES2    0.0000
     34 N3         4.5686    9.6677    3.1643 N.pl3     2 RES2    0.0000
     35 N4         4.2059   12.5557    2.8405 N.pl3     2 RES2    0.0000
     36 C12        3.2461   10.2993    3.2708 C.ar      2 RES2    0.0000
     37 C13        3.0885   11.6855    3.2136 C.ar      2 RES2    0.0000
     38 C14        1.8264   12.2393    3.3731 C.ar      2 RES2    0.0000
     39 C15        0.7258   11.3917    3.6035 C.ar      2 RES2    0.0000
     40 C16        0.8857   10.0212    3.6612 C.ar      2 RES2    0.0000
     41 H13        0.1364    9.4578    3.8116 H         2 RES2    0.0000
     42 C17        2.1615    9.4696    3.4959 C.ar      2 RES2    0.0000
     43 H14        2.2827    8.5283    3.5379 H         2 RES2    0.0000
     44 C18        1.3614   13.6620    3.2776 C.3       2 RES2    0.0000
     45 H15        1.8133   14.1354    2.5352 H         2 RES2    0.0000
     46 H16        1.5320   14.1490    4.1227 H         2 RES2    0.0000
     47 C19       -0.1685   13.5273    3.0077 C.3       2 RES2    0.0000
     48 C20       -0.5367   12.2043    3.7164 C.3       2 RES2    0.0000
     49 H17       -0.7760   12.3624    4.6637 H         2 RES2    0.0000
     50 H18       -1.2928   11.7543    3.2625 H         2 RES2    0.0000
     51 C21       -0.4113   13.3670    1.5088 C.3       2 RES2    0.0000
     52 H19       -1.3662   13.2165    1.3461 H         2 RES2    0.0000
     53 H20        0.1013   12.6008    1.1744 H         2 RES2    0.0000
     54 H21       -0.1248   14.1806    1.0432 H         2 RES2    0.0000
     55 C22       -0.9446   14.7199    3.5431 C.3       2 RES2    0.0000
     56 H22       -0.6371   15.5371    3.0973 H         2 RES2    0.0000
     57 H23       -0.7964   14.7993    4.5082 H         2 RES2    0.0000
     58 H24       -1.9001   14.5926    3.3678 H         2 RES2    0.0000
@<TRIPOS>BOND
     1    1    5 2
     2    2    5 2
     3    3    6 2
     4    4    6 2
     5    5    7 1
     6    6    8 1
     7    7    8 ar
     8    8    9 ar
     9    9   10 ar
    10   10   11 ar
    11   11   12 1
    12   13    7 ar
    13   14   13 1
    14   15    9 1
    15   16   15 1
    16   17   15 1
    17   18   15 1
    18   19   10 1
    19   20   19 1
    20   21   19 1
    21   22   18 1
    22   23   22 1
    23   24   22 1
    24   25   22 1
    25   26   18 1
    26   27   26 1
    27   28   26 1
    28   29   26 1
    29   30   34 2
    30   31   34 2
    31   32   35 2
    32   33   35 2
    33   34   36 1
    34   35   37 1
    35   36   37 ar
    36   37   38 ar
    37   38   39 ar
    38   39   40 ar
    39   40   41 1
    40   42   36 ar
    41   43   42 1
    42   44   38 1
    43   45   44 1
    44   46   44 1
    45   47   44 1
    46   48   39 1
    47   49   48 1
    48   50   48 1
    49   51   47 1
    50   52   51 1
    51   53   51 1
    52   54   51 1
    53   55   47 1
    54   56   55 1
    55   57   55 1
    56   58   55 1
    57   11   13 ar
    58   18   19 1
    59   40   42 ar
    60   47   48 1
@<TRIPOS>SUBSTRUCTURE
     1 RES1 1
     2 RES2 30

@<TRIPOS>CRYSIN
   8.9310   15.0890   16.7840  90.0000 105.1710  90.0000  14 1

