# MOL2 file generated by ConQuest
# Please check atom types

@<TRIPOS>MOLECULE
ZIWPUS
    69    72     3
SMALL
NO_CHARGES
****
Generated from CSD

@<TRIPOS>ATOM
      1 N1         5.7555   15.7179    4.9179 N.pl3     1 RES1    0.0000
      2 H1         5.9782   16.5660    5.0304 H         1 RES1    0.0000
      3 C1         4.7853   15.0972    5.6327 C.2       1 RES1    0.0000
      4 H2         4.2483   15.5137    6.2961 H         1 RES1    0.0000
      5 C2         4.6930   13.7798    5.2573 C.2       1 RES1    0.0000
      6 C3         5.6791   13.5855    4.2173 C.ar      1 RES1    0.0000
      7 C4         6.0610   12.5202    3.3844 C.ar      1 RES1    0.0000
      8 H3         5.6585   11.6646    3.4807 H         1 RES1    0.0000
      9 C5         7.0256   12.7339    2.4281 C.ar      1 RES1    0.0000
     10 H4         7.2817   12.0167    1.8605 H         1 RES1    0.0000
     11 C6         7.6423   13.9880    2.2699 C.ar      1 RES1    0.0000
     12 H5         8.3062   14.1032    1.6000 H         1 RES1    0.0000
     13 C7         7.2972   15.0470    3.0709 C.ar      1 RES1    0.0000
     14 H6         7.7114   15.8962    2.9708 H         1 RES1    0.0000
     15 C8         6.3191   14.8305    4.0333 C.ar      1 RES1    0.0000
     16 C9         3.7248   12.8473    5.8182 C.2       1 RES1    0.0000
     17 C10        2.5890   13.3854    6.6384 C.3       1 RES1    0.0000
     18 H7         1.9407   13.8259    6.0501 H         1 RES1    0.0000
     19 H8         2.9330   14.0323    7.2879 H         1 RES1    0.0000
     20 H9         2.1510   12.6481    7.1123 H         1 RES1    0.0000
     21 N2         3.9024   11.5976    5.5584 N.2       1 RES1    0.0000
     22 O1         2.8482   10.7871    6.0919 O.3       1 RES1    0.0000
     23 H10        3.2285    9.9465    5.9372 H         1 RES1    0.0000
     24 N3         0.5287   11.5982   -1.3846 N.pl3     2 RES2    0.0000
     25 H11        0.1618   11.5978   -2.1602 H         2 RES2    0.0000
     26 C11       -0.1497   11.7261   -0.2141 C.2       2 RES2    0.0000
     27 H12       -1.0906   11.8407   -0.1431 H         2 RES2    0.0000
     28 C12        0.7199   11.6666    0.8580 C.2       2 RES2    0.0000
     29 C13        2.0418   11.4952    0.2918 C.ar      2 RES2    0.0000
     30 C14        3.3418   11.4161    0.8153 C.ar      2 RES2    0.0000
     31 H13        3.4884   11.4299    1.7543 H         2 RES2    0.0000
     32 C15        4.4018   11.3181   -0.0636 C.ar      2 RES2    0.0000
     33 H14        5.2868   11.2781    0.2806 H         2 RES2    0.0000
     34 C16        4.2067   11.2769   -1.4557 C.ar      2 RES2    0.0000
     35 H15        4.9590   11.1992   -2.0305 H         2 RES2    0.0000
     36 C17        2.9416   11.3463   -2.0014 C.ar      2 RES2    0.0000
     37 H16        2.8050   11.3186   -2.9418 H         2 RES2    0.0000
     38 C18        1.8732   11.4600   -1.1162 C.ar      2 RES2    0.0000
     39 C19        0.3183   11.6960    2.2610 C.2       2 RES2    0.0000
     40 C20       -1.1168   11.9714    2.6088 C.3       2 RES2    0.0000
     41 H17       -1.2262   12.9233    2.8132 H         2 RES2    0.0000
     42 H18       -1.3720   11.4380    3.3901 H         2 RES2    0.0000
     43 H19       -1.6885   11.7314    1.8494 H         2 RES2    0.0000
     44 N4         1.2513   11.4979    3.1326 N.2       2 RES2    0.0000
     45 O2         0.7327   11.5375    4.4660 O.3       2 RES2    0.0000
     46 H20        1.5214   11.2477    4.9644 H         2 RES2    0.0000
     47 N5         1.7082    4.3060    2.8517 N.pl3     3 RES3    0.0000
     48 H21        1.8163    3.4909    2.6544 H         3 RES3    0.0000
     49 C21        0.7077    4.8277    3.6165 C.2       3 RES3    0.0000
     50 H22        0.0321    4.3186    4.0498 H         3 RES3    0.0000
     51 C22        0.8178    6.1974    3.6701 C.2       3 RES3    0.0000
     52 C23        1.9655    6.5436    2.8590 C.ar      3 RES3    0.0000
     53 C24        2.6145    7.7441    2.5245 C.ar      3 RES3    0.0000
     54 H23        2.2940    8.5764    2.8512 H         3 RES3    0.0000
     55 C25        3.7286    7.6888    1.7102 C.ar      3 RES3    0.0000
     56 H24        4.1639    8.4975    1.4647 H         3 RES3    0.0000
     57 C26        4.2331    6.4712    1.2365 C.ar      3 RES3    0.0000
     58 H25        5.0067    6.4677    0.6854 H         3 RES3    0.0000
     59 C27        3.6239    5.2766    1.5581 C.ar      3 RES3    0.0000
     60 H26        3.9634    4.4481    1.2400 H         3 RES3    0.0000
     61 C28        2.4958    5.3333    2.3648 C.ar      3 RES3    0.0000
     62 C29       -0.0585    7.0834    4.4253 C.2       3 RES3    0.0000
     63 C30       -1.0880    6.5161    5.3505 C.3       3 RES3    0.0000
     64 H27       -1.8470    7.1335    5.4117 H         3 RES3    0.0000
     65 H28       -0.6953    6.3929    6.2402 H         3 RES3    0.0000
     66 H29       -1.3961    5.6522    5.0058 H         3 RES3    0.0000
     67 N6         0.1222    8.3465    4.2474 N.2       3 RES3    0.0000
     68 O3        -0.7666    9.1253    5.0337 O.3       3 RES3    0.0000
     69 H30       -0.4722    9.9262    4.8750 H         3 RES3    0.0000
@<TRIPOS>BOND
     1    1    2 1
     2    3    1 1
     3    4    3 1
     4    5    3 2
     5    6    5 1
     6    7    6 ar
     7    8    7 1
     8    9    7 ar
     9   10    9 1
    10   11    9 ar
    11   12   11 1
    12   13   11 ar
    13   14   13 1
    14   15    1 1
    15   16    5 1
    16   17   16 1
    17   18   17 1
    18   19   17 1
    19   20   17 1
    20   21   16 2
    21   22   21 1
    22   23   22 1
    23   24   25 1
    24   26   24 1
    25   27   26 1
    26   28   26 2
    27   29   28 1
    28   30   29 ar
    29   31   30 1
    30   32   30 ar
    31   33   32 1
    32   34   32 ar
    33   35   34 1
    34   36   34 ar
    35   37   36 1
    36   38   24 1
    37   39   28 1
    38   40   39 1
    39   41   40 1
    40   42   40 1
    41   43   40 1
    42   44   39 2
    43   45   44 1
    44   46   45 1
    45   47   48 1
    46   49   47 1
    47   50   49 1
    48   51   49 2
    49   52   51 1
    50   53   52 ar
    51   54   53 1
    52   55   53 ar
    53   56   55 1
    54   57   55 ar
    55   58   57 1
    56   59   57 ar
    57   60   59 1
    58   61   47 1
    59   62   51 1
    60   63   62 1
    61   64   63 1
    62   65   63 1
    63   66   63 1
    64   67   62 2
    65   68   67 1
    66   69   68 1
    67    6   15 ar
    68   13   15 ar
    69   29   38 ar
    70   36   38 ar
    71   52   61 ar
    72   59   61 ar
@<TRIPOS>SUBSTRUCTURE
     1 RES1 1
     2 RES2 24
     3 RES3 47

@<TRIPOS>CRYSIN
  11.6039   20.2370   11.6261  90.0000 105.9030  90.0000 231 1

