# MOL2 file generated by ConQuest
# Please check atom types

@<TRIPOS>MOLECULE
ZIWQED
    17    17     1
SMALL
NO_CHARGES
****
Generated from CSD

@<TRIPOS>ATOM
      1 C1         0.5118    4.8597    5.9874 C.3       1 RES1    0.0000
      2 H1         0.3234    5.7761    6.2816 H         1 RES1    0.0000
      3 H2        -0.3109    4.3284    6.0260 H         1 RES1    0.0000
      4 H3         0.8476    4.8737    5.0663 H         1 RES1    0.0000
      5 C2         1.5497    4.2459    6.8918 C.2       1 RES1    0.0000
      6 C3         1.8924    2.8527    6.6684 C.2       1 RES1    0.0000
      7 C4         1.3866    2.0071    5.6844 C.2       1 RES1    0.0000
      8 H4         0.7375    2.2334    5.0280 H         1 RES1    0.0000
      9 C5         2.0131    0.7546    5.8386 C.2       1 RES1    0.0000
     10 H5         1.8629   -0.0163    5.3045 H         1 RES1    0.0000
     11 C6         2.8773    0.8464    6.8965 C.2       1 RES1    0.0000
     12 H6         3.4342    0.1486    7.2221 H         1 RES1    0.0000
     13 N1         2.8013    2.1105    7.4028 N.pl3     1 RES1    0.0000
     14 H7         3.2569    2.3649    8.0149 H         1 RES1    0.0000
     15 N2         2.0619    5.0534    7.7649 N.2       1 RES1    0.0000
     16 O1         3.0427    4.4373    8.5812 O.3       1 RES1    0.0000
     17 H8         3.4273    5.0643    8.9434 H         1 RES1    0.0000
@<TRIPOS>BOND
     1    1    2 1
     2    3    1 1
     3    4    1 1
     4    5    1 1
     5    6    5 1
     6    7    6 2
     7    8    7 1
     8    9    7 1
     9   10    9 1
    10   11    9 2
    11   12   11 1
    12   13    6 1
    13   14   13 1
    14   15    5 2
    15   16   15 1
    16   17   16 1
    17   11   13 1
@<TRIPOS>SUBSTRUCTURE
     1 RES1 1

@<TRIPOS>CRYSIN
   4.6066    7.7793   17.3860  90.0000  90.0000  90.0000  19 1

