# MOL2 file generated by ConQuest
# Please check atom types

@<TRIPOS>MOLECULE
ZIWQIH
    21    21     1
SMALL
NO_CHARGES
****
Generated from CSD

@<TRIPOS>ATOM
      1 C1         1.9476    3.1146    4.3980 C.3       1 RES1    0.0000
      2 H1         2.0597    2.2760    3.9047 H         1 RES1    0.0000
      3 H2         2.8277    3.4654    4.6501 H         1 RES1    0.0000
      4 H3         1.4860    3.7678    3.8323 H         1 RES1    0.0000
      5 C2         1.1370    2.8629    5.6326 C.2       1 RES1    0.0000
      6 C3         1.4046    3.6352    6.8764 C.ar      1 RES1    0.0000
      7 C4         1.9718    4.9166    6.8187 C.ar      1 RES1    0.0000
      8 H4         2.1715    5.3135    5.9786 H         1 RES1    0.0000
      9 C5         2.2410    5.6033    8.0005 C.ar      1 RES1    0.0000
     10 H5         2.6271    6.4706    7.9580 H         1 RES1    0.0000
     11 C6         1.9562    5.0439    9.2398 C.ar      1 RES1    0.0000
     12 H6         2.1511    5.5227   10.0369 H         1 RES1    0.0000
     13 C7         1.3804    3.7702    9.3059 C.ar      1 RES1    0.0000
     14 C8         1.1154    3.0769    8.1282 C.ar      1 RES1    0.0000
     15 H7         0.7316    2.2091    8.1741 H         1 RES1    0.0000
     16 N1         0.2094    1.9764    5.7059 N.2       1 RES1    0.0000
     17 N2         1.1464    3.1624   10.5639 N.3       1 RES1    0.0000
     18 H8         0.9052    3.7595   11.2034 H         1 RES1    0.0000
     19 H9         0.5166    2.5581   10.5157 H         1 RES1    0.0000
     20 O1         0.0859    1.2550    4.5028 O.3       1 RES1    0.0000
     21 H10       -0.6663    0.8129    4.5702 H         1 RES1    0.0000
@<TRIPOS>BOND
     1    1    2 1
     2    3    1 1
     3    4    1 1
     4    5    1 1
     5    6    5 1
     6    7    6 ar
     7    8    7 1
     8    9    7 ar
     9   10    9 1
    10   11    9 ar
    11   12   11 1
    12   13   11 ar
    13   14    6 ar
    14   15   14 1
    15   16    5 2
    16   17   13 1
    17   18   17 1
    18   19   17 1
    19   20   16 1
    20   21   20 1
    21   13   14 ar
@<TRIPOS>SUBSTRUCTURE
     1 RES1 1

@<TRIPOS>CRYSIN
  10.5085    5.9769   12.7871  90.0000 106.2060  90.0000 231 1

