# MOL2 file generated by ConQuest
# Please check atom types

@<TRIPOS>MOLECULE
ZIWQED01
    17    17     1
SMALL
NO_CHARGES
****
Generated from CSD

@<TRIPOS>ATOM
      1 N1         2.7776    1.7349    1.3063 N.pl3     1 RES1    0.0000
      2 H1         3.2327    1.4379    0.6400 H         1 RES1    0.0000
      3 N2         2.0417   -1.1856    0.9452 N.2       1 RES1    0.0000
      4 O1         3.0107   -0.5830    0.1273 O.3       1 RES1    0.0000
      5 H2         3.3884   -1.1582   -0.3174 H         1 RES1    0.0000
      6 C1         2.8443    2.9745    1.7859 C.2       1 RES1    0.0000
      7 H3         3.3708    3.6602    1.4440 H         1 RES1    0.0000
      8 C2         2.0343    3.0686    2.8340 C.2       1 RES1    0.0000
      9 H4         1.9162    3.8248    3.3607 H         1 RES1    0.0000
     10 C3         1.3985    1.8516    3.0084 C.2       1 RES1    0.0000
     11 H5         0.7688    1.6471    3.6607 H         1 RES1    0.0000
     12 C4         1.8717    1.0007    2.0370 C.2       1 RES1    0.0000
     13 C5         1.5468   -0.3894    1.8277 C.2       1 RES1    0.0000
     14 C6         0.5218   -1.0054    2.7206 C.3       1 RES1    0.0000
     15 H6         0.4013   -1.9277    2.4800 H         1 RES1    0.0000
     16 H7        -0.3109   -0.5383    2.6212 H         1 RES1    0.0000
     17 H8         0.8156   -0.9482    3.6328 H         1 RES1    0.0000
@<TRIPOS>BOND
     1    1    2 1
     2    3    4 1
     3    4    5 1
     4    6    1 1
     5    7    6 1
     6    8    6 2
     7    9    8 1
     8   10    8 1
     9   11   10 1
    10   12    1 1
    11   13    3 2
    12   14   13 1
    13   15   14 1
    14   16   14 1
    15   17   14 1
    16   10   12 2
    17   12   13 1
@<TRIPOS>SUBSTRUCTURE
     1 RES1 1

@<TRIPOS>CRYSIN
   4.6340    7.8360   17.4400  90.0000  90.0000  90.0000  19 1

