# MOL2 file generated by ConQuest
# Please check atom types

@<TRIPOS>MOLECULE
ZIWXIM
    48    48     2
SMALL
NO_CHARGES
****
Generated from CSD

@<TRIPOS>ATOM
      1 O1         1.9942    3.6788    4.2425 O.2       1 RES1    0.0000
      2 N1         1.0626    0.2355    5.9053 N.3       1 RES1    0.0000
      3 O2         1.3698   -1.5683    6.9488 O.2       1 RES1    0.0000
      4 N2         0.5885   -0.6352    6.8405 N.2       1 RES1    0.0000
      5 C1         2.2511    0.2326    5.0465 C.3       1 RES1    0.0000
      6 C2         2.8775    1.6337    5.0556 C.3       1 RES1    0.0000
      7 C3         1.8764    2.7486    5.0083 C.2       1 RES1    0.0000
      8 C4         0.7296    2.6555    5.9877 C.3       1 RES1    0.0000
      9 C5         0.0394    1.2878    5.8031 C.3       1 RES1    0.0000
     10 C6         1.9289   -0.3358    3.6704 C.ar      1 RES1    0.0000
     11 C7         1.8194   -1.7151    3.5392 C.ar      1 RES1    0.0000
     12 C8         1.4963   -2.2791    2.3234 C.ar      1 RES1    0.0000
     13 C9         1.2838   -1.4753    1.2265 C.ar      1 RES1    0.0000
     14 C10        1.4076   -0.1250    1.3409 C.ar      1 RES1    0.0000
     15 C11        1.7346    0.4506    2.5568 C.ar      1 RES1    0.0000
     16 C12       -0.7983    1.1425    4.5354 C.ar      1 RES1    0.0000
     17 C13       -1.4047   -0.0828    4.2715 C.ar      1 RES1    0.0000
     18 C14       -2.1991   -0.2573    3.1502 C.ar      1 RES1    0.0000
     19 C15       -2.4020    0.7805    2.2776 C.ar      1 RES1    0.0000
     20 C16       -1.8191    1.9927    2.5217 C.ar      1 RES1    0.0000
     21 C17       -1.0202    2.1788    3.6445 C.ar      1 RES1    0.0000
     22 C18        1.1992    2.8765    7.4507 C.3       1 RES1    0.0000
     23 C19        2.0870    4.0858    7.5666 C.3       1 RES1    0.0000
     24 C20        0.0071    3.0364    8.3797 C.3       1 RES1    0.0000
     25 H1         2.8776   -0.3721    5.4507 H         1 RES1    0.0000
     26 H2         3.3993    1.7253    5.8565 H         1 RES1    0.0000
     27 H3         3.4729    1.7137    4.3081 H         1 RES1    0.0000
     28 H4         0.0983    3.3489    5.7802 H         1 RES1    0.0000
     29 H5        -0.5610    1.1686    6.5430 H         1 RES1    0.0000
     30 H6         1.9595   -2.2747    4.3066 H         1 RES1    0.0000
     31 H7         1.4256   -3.2326    2.2395 H         1 RES1    0.0000
     32 H8         1.0474   -1.8707    0.3844 H         1 RES1    0.0000
     33 H9         1.2706    0.4361    0.5736 H         1 RES1    0.0000
     34 H10        1.8306    1.4026    2.6331 H         1 RES1    0.0000
     35 H11       -1.2763   -0.8111    4.8847 H         1 RES1    0.0000
     36 H12       -2.6058   -1.1076    2.9733 H         1 RES1    0.0000
     37 H13       -2.9522    0.6555    1.4996 H         1 RES1    0.0000
     38 H14       -1.9638    2.7210    1.9130 H         1 RES1    0.0000
     39 H15       -0.6161    3.0335    3.8077 H         1 RES1    0.0000
     40 H16        1.6941    2.1003    7.7253 H         1 RES1    0.0000
     41 H17        2.3851    4.1817    8.4743 H         1 RES1    0.0000
     42 H18        2.8479    3.9971    6.9869 H         1 RES1    0.0000
     43 H19        1.5814    4.8620    7.3119 H         1 RES1    0.0000
     44 H20        0.3041    3.1526    9.2844 H         1 RES1    0.0000
     45 H21       -0.4834    3.8125    8.1021 H         1 RES1    0.0000
     46 H22       -0.5603    2.2631    8.3263 H         1 RES1    0.0000
     47 O3         0.3707   -0.7311    7.6231 Du        2 SUP2    0.0000
     48 N3         1.3056   -0.6948    6.8267 Du        2 SUP2    0.0000
@<TRIPOS>BOND
     1    1    7 2
     2    2    4 1
     3    3    4 2
     4    5    2 1
     5    6    5 1
     6    7    6 1
     7    8    7 1
     8    9    2 1
     9   10    5 1
    10   11   10 ar
    11   12   11 ar
    12   13   12 ar
    13   14   13 ar
    14   15   10 ar
    15   16    9 1
    16   17   16 ar
    17   18   17 ar
    18   19   18 ar
    19   20   19 ar
    20   21   16 ar
    21   22    8 1
    22   23   22 1
    23   24   22 1
    24   25    5 1
    25   26    6 1
    26   27    6 1
    27   28    8 1
    28   29    9 1
    29   30   11 1
    30   31   12 1
    31   32   13 1
    32   33   14 1
    33   34   15 1
    34   35   17 1
    35   36   18 1
    36   37   19 1
    37   38   20 1
    38   39   21 1
    39   40   22 1
    40   41   23 1
    41   42   23 1
    42   43   23 1
    43   44   24 1
    44   45   24 1
    45   46   24 1
    46    8    9 1
    47   14   15 ar
    48   20   21 ar
@<TRIPOS>SUBSTRUCTURE
     1 RES1 1
     2 SUP2 47

@<TRIPOS>CRYSIN
   7.7980   14.5350   15.4300  90.0000  98.6300  90.0000  14 1

