# MOL2 file generated by ConQuest
# Please check atom types

@<TRIPOS>MOLECULE
ZIWXEI
    58    61     2
SMALL
NO_CHARGES
****
Generated from CSD

@<TRIPOS>ATOM
      1 N1        12.1695   -2.1001    0.0558 N.3       1 RES1    0.0000
      2 N2        10.9487   -2.5637    0.1296 N.2       1 RES1    0.0000
      3 O1        14.9023    0.9568   -0.0919 O.2       1 RES1    0.0000
      4 O2        10.5445   -2.7367    1.2238 O.2       1 RES1    0.0000
      5 O3        14.6816    1.7190   -0.8772 Du        2 SUP2    0.0000
      6 C1        12.9490   -1.8230    1.2856 C.3       1 RES1    0.0000
      7 C2        14.2761   -1.1218    0.9254 C.3       1 RES1    0.0000
      8 C3        14.0823    0.0323   -0.0407 C.2       1 RES1    0.0000
      9 C4        12.9326   -0.0637   -1.0339 C.3       1 RES1    0.0000
     10 C5        12.5798   -1.5468   -1.2449 C.3       1 RES1    0.0000
     11 C6        13.2365   -3.0694    2.1146 C.ar      1 RES1    0.0000
     12 C7        12.8676   -3.1044    3.4530 C.ar      1 RES1    0.0000
     13 C8        13.2280   -4.1759    4.2518 C.ar      1 RES1    0.0000
     14 C9        13.9384   -5.2224    3.7212 C.ar      1 RES1    0.0000
     15 C10       14.3039   -5.2062    2.3904 C.ar      1 RES1    0.0000
     16 C11       13.9586   -4.1230    1.5916 C.ar      1 RES1    0.0000
     17 C12       13.6522   -2.4148   -1.8945 C.ar      1 RES1    0.0000
     18 C13       14.7900   -1.9019   -2.5019 C.ar      1 RES1    0.0000
     19 C14       15.7395   -2.7484   -3.0611 C.ar      1 RES1    0.0000
     20 C15       15.5683   -4.1051   -3.0279 C.ar      1 RES1    0.0000
     21 C16       14.4270   -4.6306   -2.4552 C.ar      1 RES1    0.0000
     22 C17       13.4801   -3.7921   -1.9066 C.ar      1 RES1    0.0000
     23 C18       11.7590    0.8016   -0.5637 C.ar      1 RES1    0.0000
     24 C19       11.9721    1.9378    0.2110 C.ar      1 RES1    0.0000
     25 C20       10.9282    2.7726    0.5833 C.ar      1 RES1    0.0000
     26 C21        9.6427    2.4937    0.1869 C.ar      1 RES1    0.0000
     27 C22        9.4141    1.3728   -0.5727 C.ar      1 RES1    0.0000
     28 C23       10.4442    0.5291   -0.9435 C.ar      1 RES1    0.0000
     29 C24       15.0339   -0.7523    2.1824 C.ar      1 RES1    0.0000
     30 C25       14.4614    0.0251    3.1726 C.ar      1 RES1    0.0000
     31 C26       15.1229    0.2376    4.3754 C.ar      1 RES1    0.0000
     32 C27       16.3692   -0.3085    4.5788 C.ar      1 RES1    0.0000
     33 C28       16.9593   -1.0518    3.5856 C.ar      1 RES1    0.0000
     34 C29       16.2959   -1.2859    2.3904 C.ar      1 RES1    0.0000
     35 H1        12.4346   -1.2204    1.8267 H         1 RES1    0.0000
     36 H2        14.8075   -1.7755    0.4672 H         1 RES1    0.0000
     37 H3        13.2365    0.2896   -1.8734 H         1 RES1    0.0000
     38 H4        11.8097   -1.5773   -1.8177 H         1 RES1    0.0000
     39 H5        12.3509   -2.3843    3.8222 H         1 RES1    0.0000
     40 H6        12.9944   -4.1813    5.1832 H         1 RES1    0.0000
     41 H7        14.1688   -5.9756    4.2714 H         1 RES1    0.0000
     42 H8        14.7930   -5.9433    2.0166 H         1 RES1    0.0000
     43 H9        14.2266   -4.1051    0.6707 H         1 RES1    0.0000
     44 H10       14.9178   -0.9514   -2.5366 H         1 RES1    0.0000
     45 H11       16.5204   -2.3727   -3.4726 H         1 RES1    0.0000
     46 H12       16.2355   -4.6817   -3.4077 H         1 RES1    0.0000
     47 H13       14.2990   -5.5811   -2.4266 H         1 RES1    0.0000
     48 H14       12.6793   -4.1643   -1.5313 H         1 RES1    0.0000
     49 H15       12.8643    2.1512    0.4944 H         1 RES1    0.0000
     50 H16       11.1030    3.5491    1.1198 H         1 RES1    0.0000
     51 H17        8.9196    3.0730    0.4356 H         1 RES1    0.0000
     52 H18        8.5167    1.1693   -0.8485 H         1 RES1    0.0000
     53 H19       10.2558   -0.2493   -1.4725 H         1 RES1    0.0000
     54 H20       13.5951    0.4152    3.0325 H         1 RES1    0.0000
     55 H21       14.7070    0.7586    5.0657 H         1 RES1    0.0000
     56 H22       16.8284   -0.1551    5.4078 H         1 RES1    0.0000
     57 H23       17.8347   -1.4186    3.7228 H         1 RES1    0.0000
     58 H24       16.7120   -1.8158    1.7061 H         1 RES1    0.0000
@<TRIPOS>BOND
     1    1    2 1
     2    2    4 2
     3    3    8 2
     4    6    1 1
     5    7    6 1
     6    8    7 1
     7    9    8 1
     8   10    1 1
     9   11    6 1
    10   12   11 ar
    11   13   12 ar
    12   14   13 ar
    13   15   14 ar
    14   16   11 ar
    15   17   10 1
    16   18   17 ar
    17   19   18 ar
    18   20   19 ar
    19   21   20 ar
    20   22   17 ar
    21   23    9 1
    22   24   23 ar
    23   25   24 ar
    24   26   25 ar
    25   27   26 ar
    26   28   23 ar
    27   29    7 1
    28   30   29 ar
    29   31   30 ar
    30   32   31 ar
    31   33   32 ar
    32   34   29 ar
    33   35    6 1
    34   36    7 1
    35   37    9 1
    36   38   10 1
    37   39   12 1
    38   40   13 1
    39   41   14 1
    40   42   15 1
    41   43   16 1
    42   44   18 1
    43   45   19 1
    44   46   20 1
    45   47   21 1
    46   48   22 1
    47   49   24 1
    48   50   25 1
    49   51   26 1
    50   52   27 1
    51   53   28 1
    52   54   30 1
    53   55   31 1
    54   56   32 1
    55   57   33 1
    56   58   34 1
    57    9   10 1
    58   15   16 ar
    59   21   22 ar
    60   27   28 ar
    61   33   34 ar
@<TRIPOS>SUBSTRUCTURE
     1 RES1 1
     2 SUP2 5

@<TRIPOS>CRYSIN
  16.8250    8.9670   15.5060  90.0000 103.5900  90.0000 231 1

