# MOL2 file generated by ConQuest
# Please check atom types

@<TRIPOS>MOLECULE
ZIWXUY
    45    45     2
SMALL
NO_CHARGES
****
Generated from CSD

@<TRIPOS>ATOM
      1 O1         1.2128    7.5370    1.6636 O.2       1 RES1    0.0000
      2 N1         4.9767    6.5920    0.3949 N.3       1 RES1    0.0000
      3 O2         6.1551    4.9027   -0.1969 O.2       1 RES1    0.0000
      4 O3         6.3043    6.4848   -1.2130 Du        2 SUP2    0.0000
      5 N2         5.7876    6.0253   -0.4878 N.2       1 RES1    0.0000
      6 N3         5.8667    5.8599   -0.2614 Du        2 SUP2    0.0000
      7 C1         4.4800    5.8354    1.5543 C.3       1 RES1    0.0000
      8 C2         3.3013    6.5752    2.1952 C.3       1 RES1    0.0000
      9 C3         2.3366    7.2965    1.2961 C.2       1 RES1    0.0000
     10 C4         2.8519    7.7039   -0.0766 C.3       1 RES1    0.0000
     11 C5         4.3771    7.8602   -0.0350 C.3       1 RES1    0.0000
     12 C6         5.5447    5.5475    2.5769 C.ar      1 RES1    0.0000
     13 C7         5.7385    4.2379    2.9882 C.ar      1 RES1    0.0000
     14 C8         6.6363    3.9347    3.9628 C.ar      1 RES1    0.0000
     15 C9         7.3777    4.9302    4.5370 C.ar      1 RES1    0.0000
     16 C10        7.2088    6.2367    4.1378 C.ar      1 RES1    0.0000
     17 C11        6.2831    6.5537    3.1599 C.ar      1 RES1    0.0000
     18 C12        4.9933    9.0043    0.7656 C.ar      1 RES1    0.0000
     19 C13        6.3122    9.3152    0.5152 C.ar      1 RES1    0.0000
     20 C14        6.9810   10.2724    1.2480 C.ar      1 RES1    0.0000
     21 C15        6.3205   10.9494    2.2565 C.ar      1 RES1    0.0000
     22 C16        5.0100   10.6645    2.5201 C.ar      1 RES1    0.0000
     23 C17        4.3400    9.7073    1.7719 C.ar      1 RES1    0.0000
     24 C18        2.4918    6.5200   -1.0030 C.3       1 RES1    0.0000
     25 C19        2.1660    8.9522   -0.6125 C.3       1 RES1    0.0000
     26 H1         4.1680    4.9823    1.1868 H         1 RES1    0.0000
     27 H2         2.8519    5.9533    2.7432 H         1 RES1    0.0000
     28 H3         3.6568    7.2935    2.8132 H         1 RES1    0.0000
     29 H4         4.6681    7.9536   -0.9625 H         1 RES1    0.0000
     30 H5         5.1690    3.4752    2.4534 H         1 RES1    0.0000
     31 H6         6.8804    2.8273    4.1815 H         1 RES1    0.0000
     32 H7         7.9766    4.7235    5.1386 H         1 RES1    0.0000
     33 H8         7.6225    6.9473    4.4659 H         1 RES1    0.0000
     34 H9         6.1547    7.4436    2.9018 H         1 RES1    0.0000
     35 H10        6.7828    8.8312   -0.1083 H         1 RES1    0.0000
     36 H11        7.9263   10.3950    1.1102 H         1 RES1    0.0000
     37 H12        6.7892   11.6141    2.7629 H         1 RES1    0.0000
     38 H13        4.5259   11.1776    3.2157 H         1 RES1    0.0000
     39 H14        3.3421    9.5143    1.9360 H         1 RES1    0.0000
     40 H15        1.5066    6.4373   -1.0697 H         1 RES1    0.0000
     41 H16        2.8737    6.7053   -1.9229 H         1 RES1    0.0000
     42 H17        2.7884    5.6960   -0.6399 H         1 RES1    0.0000
     43 H18        2.3970    9.7348   -0.1170 H         1 RES1    0.0000
     44 H19        2.4567    9.0533   -1.5499 H         1 RES1    0.0000
     45 H20        1.1848    8.8496   -0.6377 H         1 RES1    0.0000
@<TRIPOS>BOND
     1    1    9 2
     2    2    5 1
     3    3    5 2
     4    7    2 1
     5    8    7 1
     6    9    8 1
     7   10    9 1
     8   11    2 1
     9   12    7 1
    10   13   12 ar
    11   14   13 ar
    12   15   14 ar
    13   16   15 ar
    14   17   12 ar
    15   18   11 1
    16   19   18 ar
    17   20   19 ar
    18   21   20 ar
    19   22   21 ar
    20   23   18 ar
    21   24   10 1
    22   25   10 1
    23   26    7 1
    24   27    8 1
    25   28    8 1
    26   29   11 1
    27   30   13 1
    28   31   14 1
    29   32   15 1
    30   33   16 1
    31   34   17 1
    32   35   19 1
    33   36   20 1
    34   37   21 1
    35   38   22 1
    36   39   23 1
    37   40   24 1
    38   41   24 1
    39   42   24 1
    40   43   25 1
    41   44   25 1
    42   45   25 1
    43   10   11 1
    44   16   17 ar
    45   22   23 ar
@<TRIPOS>SUBSTRUCTURE
     1 RES1 1
     2 SUP2 4

@<TRIPOS>CRYSIN
  19.8320   15.3160   12.5920  90.0000 119.7000  90.0000  15 1

