# MOL2 file generated by ConQuest
# Please check atom types

@<TRIPOS>MOLECULE
ZIWXOS
    51    51     2
SMALL
NO_CHARGES
****
Generated from CSD

@<TRIPOS>ATOM
      1 O1         0.0541   -0.1264   18.4699 O.2       1 RES1    0.0000
      2 N1         3.1906    1.3022   16.2802 N.3       1 RES1    0.0000
      3 O2         5.3071    1.1676   16.0119 O.2       1 RES1    0.0000
      4 O3         4.6739    2.7939   16.1608 Du        2 SUP2    0.0000
      5 N2         4.3675    1.9180   16.1763 N.2       1 RES1    0.0000
      6 N3         4.4779    1.5874   16.1123 Du        2 SUP2    0.0000
      7 C1         3.1042   -0.1661   16.3598 C.3       1 RES1    0.0000
      8 C2         1.7063   -0.6766   16.8445 C.3       1 RES1    0.0000
      9 C3         1.0183    0.2674   17.8450 C.2       1 RES1    0.0000
     10 C4         1.5723    1.6619   18.0735 C.3       1 RES1    0.0000
     11 C5         2.1442    2.2227   16.7476 C.3       1 RES1    0.0000
     12 C6         1.1845    2.5930   15.6242 C.ar      1 RES1    0.0000
     13 C7         1.7211    3.3546   14.5804 C.ar      1 RES1    0.0000
     14 C8         0.9306    3.7557   13.5262 C.ar      1 RES1    0.0000
     15 C9        -0.4002    3.4130   13.4777 C.ar      1 RES1    0.0000
     16 C10       -0.9486    2.6521   14.5025 C.ar      1 RES1    0.0000
     17 C11       -0.1627    2.2551   15.5636 C.ar      1 RES1    0.0000
     18 C12        2.7226    1.4918   19.0845 C.3       1 RES1    0.0000
     19 C13        0.5320    2.6019   18.6898 C.3       1 RES1    0.0000
     20 C14        1.9339   -2.0104   17.5767 C.3       1 RES1    0.0000
     21 C15        0.7357   -0.9302   15.6899 C.3       1 RES1    0.0000
     22 C16        3.5536   -0.8119   15.0650 C.ar      1 RES1    0.0000
     23 C17        3.2224   -0.2868   13.8204 C.ar      1 RES1    0.0000
     24 C18        3.6221   -0.9327   12.6624 C.ar      1 RES1    0.0000
     25 C19        4.3480   -2.0930   12.7264 C.ar      1 RES1    0.0000
     26 C20        4.7011   -2.6100   13.9416 C.ar      1 RES1    0.0000
     27 C21        4.3015   -1.9731   15.1170 C.ar      1 RES1    0.0000
     28 H1         2.5651    3.0208   16.9709 H         1 RES1    0.0000
     29 H2         3.6505   -0.4092   16.9969 H         1 RES1    0.0000
     30 H3         2.7868    3.5216   14.6582 H         1 RES1    0.0000
     31 H4         1.2521    4.1990   12.8026 H         1 RES1    0.0000
     32 H5        -1.0220    3.7452   12.7351 H         1 RES1    0.0000
     33 H6        -1.9130    2.4050   14.4107 H         1 RES1    0.0000
     34 H7        -0.4991    1.6595   16.2923 H         1 RES1    0.0000
     35 H8         3.3802    0.7965   18.8023 H         1 RES1    0.0000
     36 H9         3.1594    2.3264   19.1987 H         1 RES1    0.0000
     37 H10        2.4291    1.2503   19.9673 H         1 RES1    0.0000
     38 H11       -0.1549    2.8320   18.0424 H         1 RES1    0.0000
     39 H12        0.3072    2.3053   19.5726 H         1 RES1    0.0000
     40 H13        0.7938    3.4049   18.8127 H         1 RES1    0.0000
     41 H14        2.4375   -1.7818   18.4163 H         1 RES1    0.0000
     42 H15        1.0446   -2.3839   17.8295 H         1 RES1    0.0000
     43 H16        2.2816   -2.7056   16.9622 H         1 RES1    0.0000
     44 H17       -0.1488   -1.1563   16.0396 H         1 RES1    0.0000
     45 H18        0.6634   -0.0729   15.0927 H         1 RES1    0.0000
     46 H19        1.0581   -1.7097   15.1152 H         1 RES1    0.0000
     47 H20        2.5872    0.6612   13.8170 H         1 RES1    0.0000
     48 H21        3.3933   -0.7147   11.6601 H         1 RES1    0.0000
     49 H22        4.5342   -2.3839   11.8834 H         1 RES1    0.0000
     50 H23        5.2237   -3.4373   14.0939 H         1 RES1    0.0000
     51 H24        4.5374   -2.2745   15.9150 H         1 RES1    0.0000
@<TRIPOS>BOND
     1    1    9 2
     2    2    5 1
     3    3    5 2
     4    7    2 1
     5    8    7 1
     6    9    8 1
     7   10    9 1
     8   11    2 1
     9   12   11 1
    10   13   12 ar
    11   14   13 ar
    12   15   14 ar
    13   16   15 ar
    14   17   12 ar
    15   18   10 1
    16   19   10 1
    17   20    8 1
    18   21    8 1
    19   22    7 1
    20   23   22 ar
    21   24   23 ar
    22   25   24 ar
    23   26   25 ar
    24   27   22 ar
    25   28   11 1
    26   29    7 1
    27   30   13 1
    28   31   14 1
    29   32   15 1
    30   33   16 1
    31   34   17 1
    32   35   18 1
    33   36   18 1
    34   37   18 1
    35   38   19 1
    36   39   19 1
    37   40   19 1
    38   41   20 1
    39   42   20 1
    40   43   20 1
    41   44   21 1
    42   45   21 1
    43   46   21 1
    44   47   23 1
    45   48   24 1
    46   49   25 1
    47   50   26 1
    48   51   27 1
    49   10   11 1
    50   16   17 ar
    51   26   27 ar
@<TRIPOS>SUBSTRUCTURE
     1 RES1 1
     2 SUP2 4

@<TRIPOS>CRYSIN
  13.2120    8.1030   17.3570  90.0000  94.2100  90.0000  14 1

