# MOL2 file generated by ConQuest
# Please check atom types

@<TRIPOS>MOLECULE
ZIWZIQ
    63    68     1
SMALL
NO_CHARGES
****
Generated from CSD

@<TRIPOS>ATOM
      1 O1         3.1292    6.3232    4.7707 O.3       1 RES1    0.0000
      2 O2        -1.2934    7.1821    4.7155 O.2       1 RES1    0.0000
      3 O3        -0.0548    2.8232    4.3264 O.2       1 RES1    0.0000
      4 O4        -0.3204    6.2558    8.0300 O.2       1 RES1    0.0000
      5 O5         1.2051    1.9959    8.1250 O.2       1 RES1    0.0000
      6 N1         4.1800    5.4213    5.0147 N.2       1 RES1    0.0000
      7 N2        -0.3491    5.0930    4.5062 N.am      1 RES1    0.0000
      8 N3         0.7491    4.2198    7.9683 N.am      1 RES1    0.0000
      9 C1         3.7697    4.4463    5.7351 C.2       1 RES1    0.0000
     10 C2         2.2978    4.5295    6.0780 C.3       1 RES1    0.0000
     11 H1         1.8344    3.7351    5.7377 H         1 RES1    0.0000
     12 C3         1.8813    5.7511    5.2677 C.3       1 RES1    0.0000
     13 H2         1.4459    6.3977    5.8610 H         1 RES1    0.0000
     14 C4         4.6883    3.4010    6.2013 C.ar      1 RES1    0.0000
     15 C5         4.5742    2.0762    5.6979 C.ar      1 RES1    0.0000
     16 C6         5.4757    1.1600    6.1705 C.ar      1 RES1    0.0000
     17 H3         5.4412    0.2997    5.8199 H         1 RES1    0.0000
     18 C7         6.4201    1.4209    7.1182 C.ar      1 RES1    0.0000
     19 C8         6.4989    2.7085    7.5934 C.ar      1 RES1    0.0000
     20 H4         7.1523    2.9221    8.2200 H         1 RES1    0.0000
     21 C9         5.6401    3.6849    7.1644 C.ar      1 RES1    0.0000
     22 C10        3.5925    1.7407    4.6577 C.3       1 RES1    0.0000
     23 H5         3.9421    1.0410    4.1030 H         1 RES1    0.0000
     24 H6         3.4181    2.5178    4.1209 H         1 RES1    0.0000
     25 H7         2.7770    1.4467    5.0699 H         1 RES1    0.0000
     26 C11        7.3760    0.3499    7.5869 C.3       1 RES1    0.0000
     27 H8         8.1352    0.7599    8.0081 H         1 RES1    0.0000
     28 H9         7.6687   -0.1692    6.8344 H         1 RES1    0.0000
     29 H10        6.9313   -0.2222    8.2175 H         1 RES1    0.0000
     30 C12        5.8033    5.0801    7.7423 C.3       1 RES1    0.0000
     31 H11        6.0383    5.0170    8.6708 H         1 RES1    0.0000
     32 H12        4.9773    5.5618    7.6537 H         1 RES1    0.0000
     33 H13        6.4969    5.5446    7.2659 H         1 RES1    0.0000
     34 C13        1.0147    5.5059    4.0991 C.3       1 RES1    0.0000
     35 H14        1.4099    4.8119    3.5469 H         1 RES1    0.0000
     36 H15        0.9583    6.3146    3.5662 H         1 RES1    0.0000
     37 C14       -1.3815    5.9776    4.7720 C.2       1 RES1    0.0000
     38 C15       -2.5552    5.1345    5.1175 C.ar      1 RES1    0.0000
     39 C16       -2.1846    3.8140    4.9967 C.ar      1 RES1    0.0000
     40 C17       -0.7614    3.7767    4.5678 C.2       1 RES1    0.0000
     41 C18       -3.8205    5.4987    5.4911 C.ar      1 RES1    0.0000
     42 H16       -4.0638    6.3920    5.5733 H         1 RES1    0.0000
     43 C19       -4.7305    4.4692    5.7416 C.ar      1 RES1    0.0000
     44 H17       -5.6033    4.6743    5.9894 H         1 RES1    0.0000
     45 C20       -4.3467    3.1573    5.6247 C.ar      1 RES1    0.0000
     46 H18       -4.9674    2.4891    5.8058 H         1 RES1    0.0000
     47 C21       -3.0683    2.7974    5.2497 C.ar      1 RES1    0.0000
     48 H19       -2.8173    1.9056    5.1714 H         1 RES1    0.0000
     49 C22        2.0855    4.6370    7.5959 C.3       1 RES1    0.0000
     50 H20        2.7346    4.0792    8.0518 H         1 RES1    0.0000
     51 H21        2.2270    5.5532    7.8772 H         1 RES1    0.0000
     52 C23        0.4100    2.8992    8.2008 C.2       1 RES1    0.0000
     53 C24       -1.0090    2.8992    8.5809 C.ar      1 RES1    0.0000
     54 C25       -1.4496    4.1897    8.5732 C.ar      1 RES1    0.0000
     55 C26       -0.3453    5.0571    8.1712 C.2       1 RES1    0.0000
     56 C27       -1.8257    1.8367    8.9520 C.ar      1 RES1    0.0000
     57 H22       -1.5251    0.9564    8.9417 H         1 RES1    0.0000
     58 C28       -3.1203    2.1665    9.3398 C.ar      1 RES1    0.0000
     59 H23       -3.6957    1.4869    9.6082 H         1 RES1    0.0000
     60 C29       -3.5738    3.4512    9.3411 C.ar      1 RES1    0.0000
     61 H24       -4.4428    3.6276    9.6249 H         1 RES1    0.0000
     62 C30       -2.7761    4.4922    8.9315 C.ar      1 RES1    0.0000
     63 H25       -3.1003    5.3625    8.8929 H         1 RES1    0.0000
@<TRIPOS>BOND
     1    1    6 1
     2    2   37 2
     3    3   40 2
     4    4   55 2
     5    5   52 2
     6    6    9 2
     7    7   34 1
     8    8   49 1
     9    9   10 1
    10   10   11 1
    11   12    1 1
    12   13   12 1
    13   14    9 1
    14   15   14 ar
    15   16   15 ar
    16   17   16 1
    17   18   16 ar
    18   19   18 ar
    19   20   19 1
    20   21   14 ar
    21   22   15 1
    22   23   22 1
    23   24   22 1
    24   25   22 1
    25   26   18 1
    26   27   26 1
    27   28   26 1
    28   29   26 1
    29   30   21 1
    30   31   30 1
    31   32   30 1
    32   33   30 1
    33   34   12 1
    34   35   34 1
    35   36   34 1
    36   37    7 1
    37   38   37 1
    38   39   38 ar
    39   40    7 1
    40   41   38 ar
    41   42   41 1
    42   43   41 ar
    43   44   43 1
    44   45   43 ar
    45   46   45 1
    46   47   39 ar
    47   48   47 1
    48   49   10 1
    49   50   49 1
    50   51   49 1
    51   52    8 1
    52   53   52 1
    53   54   53 ar
    54   55    8 1
    55   56   53 ar
    56   57   56 1
    57   58   56 ar
    58   59   58 1
    59   60   58 ar
    60   61   60 1
    61   62   54 ar
    62   63   62 1
    63   10   12 1
    64   19   21 ar
    65   39   40 1
    66   45   47 ar
    67   54   55 1
    68   60   62 ar
@<TRIPOS>SUBSTRUCTURE
     1 RES1 1

@<TRIPOS>CRYSIN
  13.8050   14.3383   14.4050  90.0000 116.9400  90.0000 231 1

