# MOL2 file generated by ConQuest
# Please check atom types

@<TRIPOS>MOLECULE
ZIXTOP
    47    50     1
SMALL
NO_CHARGES
****
Generated from CSD

@<TRIPOS>ATOM
      1 C1         2.8077    4.8284    8.2452 C.3       1 RES1    0.0000
      2 N1         3.6800    5.3384    7.1837 N.3       1 RES1    0.0000
      3 O1         2.7530    5.6332    6.1189 O.3       1 RES1    0.0000
      4 C2         1.7601    4.5823    6.1253 C.3       1 RES1    0.0000
      5 C3         1.5490    4.2590    7.5929 C.3       1 RES1    0.0000
      6 C4         0.4075    4.9683    8.2924 C.3       1 RES1    0.0000
      7 N2         0.9812    5.4892    9.5307 N.3       1 RES1    0.0000
      8 C5         2.3172    5.9581    9.1397 C.3       1 RES1    0.0000
      9 C6         4.6528    4.3402    6.7005 C.3       1 RES1    0.0000
     10 C7         5.6412    4.9691    5.7643 C.ar      1 RES1    0.0000
     11 C8         5.7108    4.6291    4.4456 C.ar      1 RES1    0.0000
     12 C9         6.6425    5.2120    3.6154 C.ar      1 RES1    0.0000
     13 C10        7.5006    6.1381    4.0685 C.ar      1 RES1    0.0000
     14 C11        7.4572    6.4907    5.3883 C.ar      1 RES1    0.0000
     15 C12        6.5302    5.9154    6.2281 C.ar      1 RES1    0.0000
     16 C13        0.1584    6.5242   10.1617 C.3       1 RES1    0.0000
     17 C14       -0.9094    5.9681   11.0583 C.ar      1 RES1    0.0000
     18 C15       -2.2503    6.1256   10.8612 C.ar      1 RES1    0.0000
     19 C16       -3.1710    5.6123   11.8488 C.ar      1 RES1    0.0000
     20 C17       -2.7171    5.0110   12.9286 C.ar      1 RES1    0.0000
     21 C18       -1.4662    4.8661   13.1150 C.ar      1 RES1    0.0000
     22 C19       -0.5625    5.3610   12.2238 C.ar      1 RES1    0.0000
     23 C20        3.2024    6.2462   10.3106 C.3       1 RES1    0.0000
     24 H1         3.2887    4.1091    8.7980 H         1 RES1    0.0000
     25 H2         2.0971    3.7591    5.6164 H         1 RES1    0.0000
     26 H3         0.8868    4.9030    5.6946 H         1 RES1    0.0000
     27 H4         1.4950    3.3169    7.7268 H         1 RES1    0.0000
     28 H5         0.0756    5.6692    7.7589 H         1 RES1    0.0000
     29 H6        -0.2937    4.3687    8.4766 H         1 RES1    0.0000
     30 H7         2.2262    6.7578    8.6127 H         1 RES1    0.0000
     31 H8         4.1546    3.5832    6.2153 H         1 RES1    0.0000
     32 H9         5.1512    3.9316    7.5018 H         1 RES1    0.0000
     33 H10        5.1824    4.0614    4.1382 H         1 RES1    0.0000
     34 H11        6.6763    4.9666    2.7488 H         1 RES1    0.0000
     35 H12        8.1913    6.5820    3.4236 H         1 RES1    0.0000
     36 H13        7.9972    7.0601    5.6871 H         1 RES1    0.0000
     37 H14        6.5025    6.1825    7.1687 H         1 RES1    0.0000
     38 H15       -0.2431    7.0383    9.4964 H         1 RES1    0.0000
     39 H16        0.7101    7.0852   10.6609 H         1 RES1    0.0000
     40 H17       -2.5636    6.5543   10.1102 H         1 RES1    0.0000
     41 H18       -4.1453    5.7111   11.7128 H         1 RES1    0.0000
     42 H19       -3.4223    4.6333   13.6742 H         1 RES1    0.0000
     43 H20       -1.1134    4.3386   13.9999 H         1 RES1    0.0000
     44 H21        0.3490    5.2781   12.4252 H         1 RES1    0.0000
     45 H22        4.0830    6.4664    9.9999 H         1 RES1    0.0000
     46 H23        3.2462    5.4716   10.8762 H         1 RES1    0.0000
     47 H24        2.8448    6.9856   10.8076 H         1 RES1    0.0000
@<TRIPOS>BOND
     1    1    2 1
     2    2    3 1
     3    3    4 1
     4    4    5 1
     5    5    1 1
     6    6    5 1
     7    7    6 1
     8    8    1 1
     9    9    2 1
    10   10    9 1
    11   11   10 ar
    12   12   11 ar
    13   13   12 ar
    14   14   13 ar
    15   15   10 ar
    16   16    7 1
    17   17   16 1
    18   18   17 ar
    19   19   18 ar
    20   20   19 ar
    21   21   20 ar
    22   22   17 ar
    23   23    8 1
    24   24    1 1
    25   25    4 1
    26   26    4 1
    27   27    5 1
    28   28    6 1
    29   29    6 1
    30   30    8 1
    31   31    9 1
    32   32    9 1
    33   33   11 1
    34   34   12 1
    35   35   13 1
    36   36   14 1
    37   37   15 1
    38   38   16 1
    39   39   16 1
    40   40   18 1
    41   41   19 1
    42   42   20 1
    43   43   21 1
    44   44   22 1
    45   45   23 1
    46   46   23 1
    47   47   23 1
    48    7    8 1
    49   14   15 ar
    50   21   22 ar
@<TRIPOS>SUBSTRUCTURE
     1 RES1 1

@<TRIPOS>CRYSIN
   9.8380    8.3740   11.2790  90.0000 108.2400  90.0000   4 1

