# MOL2 file generated by ConQuest
# Please check atom types

@<TRIPOS>MOLECULE
ZIXZUD
    54    55     1
SMALL
NO_CHARGES
****
Generated from CSD

@<TRIPOS>ATOM
      1 O1         4.6331    5.2569   -2.4797 O.2       1 RES1    0.0000
      2 O2         3.1350    4.9693   -0.9515 O.2       1 RES1    0.0000
      3 O3         4.1016    4.8722    3.1527 O.3       1 RES1    0.0000
      4 O4         4.2145    2.6674    2.8118 O.2       1 RES1    0.0000
      5 N1         4.6168    6.5686    0.8058 N.3       1 RES1    0.0000
      6 N2         4.2045    5.4200   -1.3461 N.pl3     1 RES1    0.0000
      7 N3         6.6856    7.2868    0.4513 N.2       1 RES1    0.0000
      8 C1         5.6964    7.8565    2.6550 C.3       1 RES1    0.0000
      9 H1         6.5442    8.2834    2.8008 H         1 RES1    0.0000
     10 H2         5.5655    7.1732    3.3179 H         1 RES1    0.0000
     11 H3         4.9941    8.5069    2.7245 H         1 RES1    0.0000
     12 C2         5.6746    7.2437    1.3004 C.2       1 RES1    0.0000
     13 C3         6.2549    6.6236   -0.6409 C.2       1 RES1    0.0000
     14 H4         6.7546    6.4889   -1.4140 H         1 RES1    0.0000
     15 C4         5.0001    6.1848   -0.4510 C.2       1 RES1    0.0000
     16 C5         3.3365    6.3726    1.4801 C.3       1 RES1    0.0000
     17 H5         2.6189    6.5439    0.8511 H         1 RES1    0.0000
     18 H6         3.2577    7.0184    2.2006 H         1 RES1    0.0000
     19 C6         3.1707    4.9904    2.0446 C.3       1 RES1    0.0000
     20 H7         3.3800    4.3217    1.3597 H         1 RES1    0.0000
     21 C7         1.7648    4.7916    2.5448 C.3       1 RES1    0.0000
     22 H8         1.6688    3.8994    2.8856 H         1 RES1    0.0000
     23 H9         1.1463    4.9272    1.8225 H         1 RES1    0.0000
     24 H10        1.5814    5.4227    3.2450 H         1 RES1    0.0000
     25 C8         4.5002    3.6338    3.4586 C.2       1 RES1    0.0000
     26 C9         5.3281    3.6100    4.7183 C.3       1 RES1    0.0000
     27 H11        6.0026    4.3189    4.6572 H         1 RES1    0.0000
     28 C10        6.0458    2.2744    4.8386 C.3       1 RES1    0.0000
     29 H12        6.5657    2.2625    5.6457 H         1 RES1    0.0000
     30 H13        6.6251    2.1526    4.0842 H         1 RES1    0.0000
     31 H14        5.3995    1.5645    4.8641 H         1 RES1    0.0000
     32 C11        4.4742    3.8701    5.9373 C.ar      1 RES1    0.0000
     33 C12        4.9559    4.5956    6.9986 C.ar      1 RES1    0.0000
     34 H15        5.8060    4.9675    6.9426 H         1 RES1    0.0000
     35 C13        4.2220    4.7898    8.1430 C.ar      1 RES1    0.0000
     36 H16        4.5959    5.2643    8.8499 H         1 RES1    0.0000
     37 C14        2.9595    4.2997    8.2599 C.ar      1 RES1    0.0000
     38 C15        2.4678    3.5834    7.1952 C.ar      1 RES1    0.0000
     39 H17        1.6068    3.2362    7.2444 H         1 RES1    0.0000
     40 C16        3.2113    3.3636    6.0525 C.ar      1 RES1    0.0000
     41 H18        2.8483    2.8662    5.3557 H         1 RES1    0.0000
     42 C17        2.1002    4.4985    9.4993 C.3       1 RES1    0.0000
     43 H19        2.5200    5.1672   10.0638 H         1 RES1    0.0000
     44 H20        1.2364    4.8456    9.2263 H         1 RES1    0.0000
     45 C18        1.8848    3.2536   10.3063 C.3       1 RES1    0.0000
     46 H21        1.4972    2.5840    9.7061 H         1 RES1    0.0000
     47 C19        3.1295    2.6848   10.8386 C.3       1 RES1    0.0000
     48 H22        3.7557    2.5602   10.1215 H         1 RES1    0.0000
     49 H23        2.9436    1.8393   11.2523 H         1 RES1    0.0000
     50 H24        3.5025    3.2848   11.4897 H         1 RES1    0.0000
     51 C20        0.8694    3.4973   11.4202 C.3       1 RES1    0.0000
     52 H25        0.0705    3.8783   11.0472 H         1 RES1    0.0000
     53 H26        1.2411    4.1037   12.0661 H         1 RES1    0.0000
     54 H27        0.6570    2.6646   11.8474 H         1 RES1    0.0000
@<TRIPOS>BOND
     1    1    6 2
     2    2    6 2
     3    3   19 1
     4    4   25 2
     5    5   12 1
     6    6   15 1
     7    7   12 2
     8    8    9 1
     9   10    8 1
    10   11    8 1
    11   12    8 1
    12   13    7 1
    13   14   13 1
    14   15    5 1
    15   16    5 1
    16   17   16 1
    17   18   16 1
    18   19   16 1
    19   20   19 1
    20   21   19 1
    21   22   21 1
    22   23   21 1
    23   24   21 1
    24   25    3 1
    25   26   25 1
    26   27   26 1
    27   28   26 1
    28   29   28 1
    29   30   28 1
    30   31   28 1
    31   32   26 1
    32   33   32 ar
    33   34   33 1
    34   35   33 ar
    35   36   35 1
    36   37   35 ar
    37   38   37 ar
    38   39   38 1
    39   40   32 ar
    40   41   40 1
    41   42   37 1
    42   43   42 1
    43   44   42 1
    44   45   42 1
    45   46   45 1
    46   47   45 1
    47   48   47 1
    48   49   47 1
    49   50   47 1
    50   51   45 1
    51   52   51 1
    52   53   51 1
    53   54   51 1
    54   13   15 2
    55   38   40 ar
@<TRIPOS>SUBSTRUCTURE
     1 RES1 1

@<TRIPOS>CRYSIN
   6.5069    9.1600   17.1070  90.0000  97.6710  90.0000   4 1

