# MOL2 file generated by ConQuest
# Please check atom types

@<TRIPOS>MOLECULE
ZIYBAM
    39    40     1
SMALL
NO_CHARGES
****
Generated from CSD

@<TRIPOS>ATOM
      1 O1         1.2067    2.0472    3.3215 O.3       1 RES1    0.0000
      2 O2         0.9140    4.2301    3.7185 O.2       1 RES1    0.0000
      3 O3         2.1236    1.9475    7.4821 O.2       1 RES1    0.0000
      4 O4         0.6240    1.5810    8.9814 O.2       1 RES1    0.0000
      5 N1         0.6999    0.3414    5.6532 N.3       1 RES1    0.0000
      6 N2        -1.3582   -0.4465    5.9827 N.2       1 RES1    0.0000
      7 N3         1.0591    1.4445    7.8380 N.pl3     1 RES1    0.0000
      8 C1        -0.3439   -0.3602    5.1318 C.2       1 RES1    0.0000
      9 C2        -0.9629    0.2318    7.0864 C.2       1 RES1    0.0000
     10 H1        -1.4834    0.3575    7.8473 H         1 RES1    0.0000
     11 C3         0.2951    0.6989    6.9263 C.2       1 RES1    0.0000
     12 C4         1.9945    0.5704    5.0035 C.3       1 RES1    0.0000
     13 H2         2.1021   -0.0683    4.2823 H         1 RES1    0.0000
     14 H3         2.7021    0.4123    5.6479 H         1 RES1    0.0000
     15 C5         2.1410    1.9754    4.4464 C.3       1 RES1    0.0000
     16 H4         1.8997    2.6365    5.1279 H         1 RES1    0.0000
     17 C6         0.6826    3.2518    3.0529 C.2       1 RES1    0.0000
     18 C7        -0.2373    3.2339    1.8844 C.ar      1 RES1    0.0000
     19 C8        -1.0905    4.3262    1.7494 C.ar      1 RES1    0.0000
     20 H5        -1.0525    5.0341    2.3515 H         1 RES1    0.0000
     21 C9        -2.0015    4.3415    0.6961 C.ar      1 RES1    0.0000
     22 H6        -2.5865    5.0583    0.6074 H         1 RES1    0.0000
     23 C10       -2.0488    3.3210   -0.2091 C.ar      1 RES1    0.0000
     24 C11       -1.1954    2.2835   -0.0860 C.ar      1 RES1    0.0000
     25 H7        -1.2095    1.6008   -0.7172 H         1 RES1    0.0000
     26 C12       -0.2913    2.2188    0.9766 C.ar      1 RES1    0.0000
     27 H8         0.2732    1.4849    1.0640 H         1 RES1    0.0000
     28 C13       -3.0509    3.3749   -1.3485 C.3       1 RES1    0.0000
     29 H9        -3.5783    4.1744   -1.2730 H         1 RES1    0.0000
     30 H10       -3.6262    2.6078   -1.3048 H         1 RES1    0.0000
     31 H11       -2.5825    3.3776   -2.1861 H         1 RES1    0.0000
     32 C14        3.5338    2.2179    3.9647 C.3       1 RES1    0.0000
     33 H12        3.6053    3.1144    3.6299 H         1 RES1    0.0000
     34 H13        3.7429    1.5963    3.2646 H         1 RES1    0.0000
     35 H14        4.1488    2.0984    4.6925 H         1 RES1    0.0000
     36 C15       -0.3070   -0.9747    3.7887 C.3       1 RES1    0.0000
     37 H15       -1.1332   -1.4355    3.6259 H         1 RES1    0.0000
     38 H16        0.4219   -1.5972    3.7424 H         1 RES1    0.0000
     39 H17       -0.1857   -0.2893    3.1270 H         1 RES1    0.0000
@<TRIPOS>BOND
     1    1   15 1
     2    2   17 2
     3    3    7 2
     4    4    7 2
     5    5    8 1
     6    6    8 2
     7    7   11 1
     8    8   36 1
     9    9    6 1
    10   10    9 1
    11   11    5 1
    12   12    5 1
    13   13   12 1
    14   14   12 1
    15   15   12 1
    16   16   15 1
    17   17    1 1
    18   18   17 1
    19   19   18 ar
    20   20   19 1
    21   21   19 ar
    22   22   21 1
    23   23   21 ar
    24   24   23 ar
    25   25   24 1
    26   26   18 ar
    27   27   26 1
    28   28   23 1
    29   29   28 1
    30   30   28 1
    31   31   28 1
    32   32   15 1
    33   33   32 1
    34   34   32 1
    35   35   32 1
    36   36   37 1
    37   38   36 1
    38   39   36 1
    39    9   11 2
    40   24   26 ar
@<TRIPOS>SUBSTRUCTURE
     1 RES1 1

@<TRIPOS>CRYSIN
   6.4619    8.9830   13.4470  90.0000 100.2300  90.0000   4 1

