# MOL2 file generated by ConQuest
# Please check atom types

@<TRIPOS>MOLECULE
ZIYTIK
    36    38     1
SMALL
NO_CHARGES
****
Generated from CSD

@<TRIPOS>ATOM
      1 C1        11.0913    1.0801   10.9584 C.3       1 RES1    0.0000
      2 O1        11.6378    1.8004    9.8574 O.3       1 RES1    0.0000
      3 N1        13.0924    1.7203    9.8795 N.3       1 RES1    0.0000
      4 C2        13.5224    3.1159    9.7642 C.3       1 RES1    0.0000
      5 C3        13.4569    3.8405   11.0769 C.3       1 RES1    0.0000
      6 O2        12.1239    3.8442   11.6329 O.3       1 RES1    0.0000
      7 C4        12.1877    3.2742   13.9265 C.ar      1 RES1    0.0000
      8 C5        11.9513    2.4036   14.9625 C.ar      1 RES1    0.0000
      9 C6        11.4765    1.1368   14.7171 C.ar      1 RES1    0.0000
     10 C7        11.2421    0.7523   13.3994 C.ar      1 RES1    0.0000
     11 C8        11.4550    1.6118   12.3321 C.ar      1 RES1    0.0000
     12 C9        11.9254    2.8891   12.6154 C.ar      1 RES1    0.0000
     13 C10       13.4155    0.9717    8.6557 C.3       1 RES1    0.0000
     14 C11        9.5867    1.1128   10.7541 C.ar      1 RES1    0.0000
     15 C12        8.9571    2.2680   10.3390 C.ar      1 RES1    0.0000
     16 C13        7.5862    2.2952   10.1677 C.ar      1 RES1    0.0000
     17 C14        6.8377    1.1805   10.4214 C.ar      1 RES1    0.0000
     18 C15        7.4420    0.0333   10.8579 C.ar      1 RES1    0.0000
     19 C16        8.8273   -0.0129   11.0094 C.ar      1 RES1    0.0000
     20 H1        11.4024    0.0863   10.8381 H         1 RES1    0.0000
     21 H2        14.4942    3.1239    9.4545 H         1 RES1    0.0000
     22 H3        13.0064    3.5860    9.0098 H         1 RES1    0.0000
     23 H4        13.6732    4.8676   10.9369 H         1 RES1    0.0000
     24 H5        14.0485    3.3703   11.7111 H         1 RES1    0.0000
     25 H6        12.5862    4.2083   14.0665 H         1 RES1    0.0000
     26 H7        12.1002    2.7049   15.8948 H         1 RES1    0.0000
     27 H8        11.2748    0.5114   15.4665 H         1 RES1    0.0000
     28 H9        10.9117   -0.2465   13.1935 H         1 RES1    0.0000
     29 H10       12.9901    1.4110    7.8074 H         1 RES1    0.0000
     30 H11       13.0933   -0.0185    8.8286 H         1 RES1    0.0000
     31 H12       14.3994    1.0228    8.5321 H         1 RES1    0.0000
     32 H13        9.4988    3.0992   10.1957 H         1 RES1    0.0000
     33 H14        7.1613    3.1362    9.8828 H         1 RES1    0.0000
     34 H15        5.8481    1.2385   10.3604 H         1 RES1    0.0000
     35 H16        6.9901   -0.7579   11.0193 H         1 RES1    0.0000
     36 H17        9.2938   -0.8441   11.2993 H         1 RES1    0.0000
@<TRIPOS>BOND
     1    1    2 1
     2    2    3 1
     3    3    4 1
     4    4    5 1
     5    5    6 1
     6    6   12 1
     7    7    8 ar
     8    8    9 ar
     9    9   10 ar
    10   10   11 ar
    11   11    1 1
    12   12    7 ar
    13   13    3 1
    14   14    1 1
    15   15   14 ar
    16   16   15 ar
    17   17   16 ar
    18   18   17 ar
    19   19   14 ar
    20   20    1 1
    21   21    4 1
    22   22    4 1
    23   23    5 1
    24   24    5 1
    25   25    7 1
    26   26    8 1
    27   27    9 1
    28   28   10 1
    29   29   13 1
    30   30   13 1
    31   31   13 1
    32   32   15 1
    33   33   16 1
    34   34   17 1
    35   35   18 1
    36   36   19 1
    37   11   12 ar
    38   18   19 ar
@<TRIPOS>SUBSTRUCTURE
     1 RES1 1

@<TRIPOS>CRYSIN
  13.3090    6.1615   16.7530  90.0000 100.5220  90.0000 231 1

