# MOL2 file generated by ConQuest
# Please check atom types

@<TRIPOS>MOLECULE
ZIYYIR
   168   172     2
SMALL
USER_CHARGES
****
Generated from CSD

@<TRIPOS>ATOM
      1 C1        -2.8779   -1.0278   11.5949 C.3       1 RES1    0.0000
      2 C2        -2.3240   -1.1710   10.1799 C.3       1 RES1    0.0000
      3 H1        -2.8910   -0.6935    9.5681 H         1 RES1    0.0000
      4 H2        -2.3040   -2.0982    9.9385 H         1 RES1    0.0000
      5 H3        -1.4379   -0.8091   10.1445 H         1 RES1    0.0000
      6 C3        -4.3899   -1.1634   11.6865 C.3       1 RES1    0.0000
      7 H4        -4.7260   -0.5528   12.3461 H         1 RES1    0.0000
      8 H5        -4.6160   -2.0630   11.9362 H         1 RES1    0.0000
      9 H6        -4.7817   -0.9599   10.8333 H         1 RES1    0.0000
     10 C4        -2.1581   -1.9776   12.5397 C.3       1 RES1    0.0000
     11 H7        -1.3320   -1.5781   12.8289 H         1 RES1    0.0000
     12 H8        -1.9675   -2.8018   12.0839 H         1 RES1    0.0000
     13 H9        -2.7112   -2.1535   13.3034 H         1 RES1    0.0000
     14 O1        -2.5214    0.3691   11.8779 O.3       1 RES1    0.0000
     15 C5        -2.7491    0.8946   13.0932 C.2       1 RES1    0.0000
     16 O2        -3.1740    0.2940   14.0546 O.2       1 RES1    0.0000
     17 N1        -2.4905    2.2038   13.0911 N.am      1 RES1    0.0000
     18 H10       -2.3112    2.6108   12.3545 H         1 RES1    0.0000
     19 C6        -2.5140    2.9400   14.3438 C.3       1 RES1    0.0000
     20 H11       -1.8288    2.5857   14.9473 H         1 RES1    0.0000
     21 C7        -2.2473    4.4151   14.0816 C.3       1 RES1    0.0000
     22 H12       -1.3197    4.5382   13.8652 H         1 RES1    0.0000
     23 H13       -2.4645    4.9252   14.8661 H         1 RES1    0.0000
     24 H14       -2.7885    4.7116   13.3471 H         1 RES1    0.0000
     25 C8        -3.8640    2.8420   15.0014 C.2       1 RES1    0.0000
     26 O3        -4.9266    3.0219   14.4416 O.2       1 RES1    0.0000
     27 N2        -3.7874    2.6234   16.3415 N.am      1 RES1    0.0000
     28 H15       -3.0389    2.3520   16.6682 H         1 RES1    0.0000
     29 C9        -4.9198    2.8295   17.2696 C.3       1 RES1    0.0000
     30 C10       -5.2857    4.3171   17.2425 C.3       1 RES1    0.0000
     31 H16       -5.2404    4.6739   16.3436 H         1 RES1    0.0000
     32 H17       -6.1759    4.4653   17.5984 H         1 RES1    0.0000
     33 C11       -4.3303    2.6435   18.6805 C.3       1 RES1    0.0000
     34 H18       -5.0268    2.4400   19.3256 H         1 RES1    0.0000
     35 H19       -3.6700    1.9324   18.6930 H         1 RES1    0.0000
     36 C12       -4.2315    4.9357   18.1311 C.ar      1 RES1    0.0000
     37 C13       -3.7462    6.2371   18.1873 C.ar      1 RES1    0.0000
     38 H20       -4.0985    6.8902   17.6254 H         1 RES1    0.0000
     39 C14       -2.7342    6.5635   19.0821 C.ar      1 RES1    0.0000
     40 H21       -2.4092    7.4330   19.1195 H         1 RES1    0.0000
     41 C15       -2.2069    5.5888   19.9207 C.ar      1 RES1    0.0000
     42 C16       -2.6924    4.2874   19.8653 C.ar      1 RES1    0.0000
     43 H22       -2.3399    3.6361   20.4264 H         1 RES1    0.0000
     44 C17       -3.7042    3.9610   18.9697 C.ar      1 RES1    0.0000
     45 C18       -1.2549    5.9504   20.9528 C.2       1 RES1    0.0000
     46 N3        -1.0659    7.1214   21.5542 N.pl3     1 RES1    1.0000
     47 O4        -1.6671    8.2245   21.2358 O.2       1 RES1   -1.0000
     48 C19        0.0610    7.1264   22.5801 C.3       1 RES1    0.0000
     49 C20        1.2755    7.6667   21.8622 C.3       1 RES1    0.0000
     50 H23        1.7446    8.2748   22.4386 H         1 RES1    0.0000
     51 H24        0.9983    8.1290   21.0673 H         1 RES1    0.0000
     52 H25        1.8560    6.9405   21.6229 H         1 RES1    0.0000
     53 C21       -0.3281    8.0109   23.7121 C.3       1 RES1    0.0000
     54 H26       -1.1898    7.7496   24.0389 H         1 RES1    0.0000
     55 H27       -0.3599    8.9206   23.4104 H         1 RES1    0.0000
     56 H28        0.3214    7.9305   24.4155 H         1 RES1    0.0000
     57 C22        0.0959    5.6162   22.8694 C.3       1 RES1    0.0000
     58 C23        1.4840    5.0684   23.1336 C.3       1 RES1    0.0000
     59 H29        1.4195    4.2919   23.6976 H         1 RES1    0.0000
     60 H30        2.0136    5.7393   23.5727 H         1 RES1    0.0000
     61 H31        1.8970    4.8272   22.3034 H         1 RES1    0.0000
     62 C24       -0.8491    5.1940   23.9764 C.3       1 RES1    0.0000
     63 H32       -1.3253    5.9605   24.3031 H         1 RES1    0.0000
     64 H33       -0.3461    4.8020   24.6943 H         1 RES1    0.0000
     65 H34       -1.4748    4.5508   23.6352 H         1 RES1    0.0000
     66 N4        -0.4115    5.0734   21.6104 N.3       1 RES1    0.0000
     67 O5        -0.1827    3.8396   21.2671 O.2       1 RES1    0.0000
     68 C25       -6.0269    1.8620   17.0407 C.2       1 RES1    0.0000
     69 O6        -7.1902    2.1058   17.4194 O.2       1 RES1    0.0000
     70 N5        -5.7166    0.6835   16.4913 N.am      1 RES1    0.0000
     71 H35       -4.9090    0.5352   16.2333 H         1 RES1    0.0000
     72 C26       -6.7242   -0.3543   16.3207 C.3       1 RES1    0.0000
     73 H36       -7.4530   -0.0226   15.7547 H         1 RES1    0.0000
     74 C27       -6.0759   -1.5605   15.6735 C.3       1 RES1    0.0000
     75 H37       -6.0321   -1.4298   14.7225 H         1 RES1    0.0000
     76 H38       -6.5936   -2.3445   15.8650 H         1 RES1    0.0000
     77 H39       -5.1868   -1.6710   16.0210 H         1 RES1    0.0000
     78 C28       -7.2614   -0.7639   17.6587 C.2       1 RES1    0.0000
     79 O7        -6.6414   -0.8946   18.6513 O.2       1 RES1    0.0000
     80 O8        -8.5843   -0.9775   17.6046 O.3       1 RES1    0.0000
     81 C29       -9.2322   -1.4072   18.8490 C.3       1 RES1    0.0000
     82 H40       -8.9476   -2.2992   19.0675 H         1 RES1    0.0000
     83 H41      -10.1856   -1.3971   18.7346 H         1 RES1    0.0000
     84 H42       -8.9878   -0.8116   19.5607 H         1 RES1    0.0000
     85 C30        0.3414    7.5687   13.3658 C.3       2 RES2    0.0000
     86 C31        0.7518    7.6039   14.8328 C.3       2 RES2    0.0000
     87 H43       -0.0133    7.4154   15.3822 H         2 RES2    0.0000
     88 H44        1.0931    8.4733   15.0493 H         2 RES2    0.0000
     89 H45        1.4296    6.9430   14.9910 H         2 RES2    0.0000
     90 C32       -1.1213    7.9431   13.1598 C.3       2 RES2    0.0000
     91 H46       -1.4724    7.4656   12.4065 H         2 RES2    0.0000
     92 H47       -1.1907    8.8879   12.9995 H         2 RES2    0.0000
     93 H48       -1.6231    7.7144   13.9464 H         2 RES2    0.0000
     94 C33        1.2664    8.4381   12.5209 C.3       2 RES2    0.0000
     95 H49        2.1789    8.1994   12.6999 H         2 RES2    0.0000
     96 H50        1.1276    9.3603   12.7415 H         2 RES2    0.0000
     97 H51        1.0750    8.2974   11.5908 H         2 RES2    0.0000
     98 O9         0.5132    6.1504   13.0432 O.3       2 RES2    0.0000
     99 C34        0.3311    5.6715   11.8197 C.2       2 RES2    0.0000
    100 O10        0.0066    6.3210   10.8416 O.2       2 RES2    0.0000
    101 N6         0.5160    4.3346   11.7988 N.am      2 RES2    0.0000
    102 H52        0.6244    3.9100   12.5376 H         2 RES2    0.0000
    103 C35        0.5340    3.6185   10.5711 C.3       2 RES2    0.0000
    104 H53        1.2142    4.0180    9.9884 H         2 RES2    0.0000
    105 C36        0.8633    2.1736   10.7667 C.3       2 RES2    0.0000
    106 H54        1.7933    2.0831   10.9873 H         2 RES2    0.0000
    107 H55        0.6791    1.6911    9.9572 H         2 RES2    0.0000
    108 H56        0.3290    1.8168   11.4805 H         2 RES2    0.0000
    109 C37       -0.8066    3.6562    9.8469 C.2       2 RES2    0.0000
    110 O11       -1.8932    3.5099   10.4067 O.2       2 RES2    0.0000
    111 N7        -0.6892    3.7539    8.4985 N.am      2 RES2    0.0000
    112 H57        0.0568    4.0281    8.1676 H         2 RES2    0.0000
    113 C38       -1.7873    3.4099    7.5704 C.3       2 RES2    0.0000
    114 C39       -2.1707    1.9223    7.7223 C.3       2 RES2    0.0000
    115 H58       -2.1336    1.6409    8.6504 H         2 RES2    0.0000
    116 H59       -3.0574    1.7464    7.3706 H         2 RES2    0.0000
    117 C40       -1.1930    3.4903    6.1325 C.3       2 RES2    0.0000
    118 H60       -1.8882    3.6185    5.4687 H         2 RES2    0.0000
    119 H61       -0.5431    4.2065    6.0576 H         2 RES2    0.0000
    120 C41       -1.1049    1.2474    6.8972 C.ar      2 RES2    0.0000
    121 C42       -0.6709   -0.0731    6.9232 C.ar      2 RES2    0.0000
    122 H62       -1.0461   -0.6734    7.5267 H         2 RES2    0.0000
    123 C43        0.3229   -0.4955    6.0472 C.ar      2 RES2    0.0000
    124 H63        0.6130   -1.3795    6.0659 H         2 RES2    0.0000
    125 C44        0.8833    0.4026    5.1461 C.ar      2 RES2    0.0000
    126 C45        0.4492    1.7228    5.1209 C.ar      2 RES2    0.0000
    127 H64        0.8244    2.3244    4.5177 H         2 RES2    0.0000
    128 C46       -0.5444    2.1452    5.9951 C.ar      2 RES2    0.0000
    129 C47        1.8210   -0.0503    4.1140 C.2       2 RES2    0.0000
    130 N8         1.8840   -1.2866    3.6271 N.pl3     2 RES2    1.0000
    131 O12        1.2111   -2.3395    4.0183 O.2       2 RES2   -1.0000
    132 C48        2.9833   -1.4524    2.6220 C.3       2 RES2    0.0000
    133 C49        4.1656   -2.1233    3.3295 C.3       2 RES2    0.0000
    134 H65        4.8251   -2.3771    2.6802 H         2 RES2    0.0000
    135 H66        3.8571   -2.9074    3.7956 H         2 RES2    0.0000
    136 H67        4.5519   -1.5102    3.9579 H         2 RES2    0.0000
    137 C50        2.4732   -2.3395    1.5024 C.3       2 RES2    0.0000
    138 H68        1.5371   -2.1786    1.3692 H         2 RES2    0.0000
    139 H69        2.6115   -3.2592    1.7355 H         2 RES2    0.0000
    140 H70        2.9517   -2.1384    0.6929 H         2 RES2    0.0000
    141 C51        3.2403    0.0151    2.2516 C.3       2 RES2    0.0000
    142 C52        4.6759    0.4021    2.0310 C.3       2 RES2    0.0000
    143 H71        5.2431   -0.1533    2.5699 H         2 RES2    0.0000
    144 H72        4.8008    1.3218    2.2765 H         2 RES2    0.0000
    145 H73        4.9004    0.2840    1.1050 H         2 RES2    0.0000
    146 C53        2.3561    0.5403    1.0987 C.3       2 RES2    0.0000
    147 H74        2.3672   -0.0905    0.3766 H         2 RES2    0.0000
    148 H75        2.7020    1.3821    0.7928 H         2 RES2    0.0000
    149 H76        1.4592    0.6559    1.4129 H         2 RES2    0.0000
    150 N9         2.7085    0.6860    3.4689 N.3       2 RES2    0.0000
    151 O13        2.9789    1.9273    3.7186 O.2       2 RES2    0.0000
    152 C54       -2.9419    4.3673    7.7182 C.2       2 RES2    0.0000
    153 O14       -4.0802    4.0733    7.3415 O.2       2 RES2    0.0000
    154 N10       -2.7084    5.5886    8.2093 N.am      2 RES2    0.0000
    155 H77       -1.9020    5.8021    8.4173 H         2 RES2    0.0000
    156 C55       -3.7539    6.5610    8.3986 C.3       2 RES2    0.0000
    157 H78       -4.4801    6.1539    8.9188 H         2 RES2    0.0000
    158 C56       -3.1781    7.7194    9.1706 C.3       2 RES2    0.0000
    159 H79       -2.7375    7.3903    9.9593 H         2 RES2    0.0000
    160 H80       -3.8853    8.3150    9.4266 H         2 RES2    0.0000
    161 H81       -2.5452    8.1868    8.6213 H         2 RES2    0.0000
    162 C57       -4.2858    7.0259    7.0960 C.2       2 RES2    0.0000
    163 O15       -3.6436    7.2370    6.0950 O.2       2 RES2    0.0000
    164 O16       -5.6244    7.1892    7.1251 O.3       2 RES2    0.0000
    165 C58       -6.2412    7.6692    5.9306 C.3       2 RES2    0.0000
    166 H82       -6.3103    8.6266    5.9681 H         2 RES2    0.0000
    167 H83       -7.1185    7.2872    5.8474 H         2 RES2    0.0000
    168 H84       -5.7099    7.4154    5.1711 H         2 RES2    0.0000
@<TRIPOS>BOND
     1    1    2 1
     2    2    3 1
     3    4    2 1
     4    5    2 1
     5    6    1 1
     6    7    6 1
     7    8    6 1
     8    9    6 1
     9   10    1 1
    10   11   10 1
    11   12   10 1
    12   13   10 1
    13   14    1 1
    14   15   14 1
    15   16   15 2
    16   17   15 1
    17   18   17 1
    18   19   17 1
    19   20   19 1
    20   21   19 1
    21   22   21 1
    22   23   21 1
    23   24   21 1
    24   25   19 1
    25   26   25 2
    26   27   25 1
    27   28   27 1
    28   29   27 1
    29   30   29 1
    30   31   30 1
    31   32   30 1
    32   33   29 1
    33   34   33 1
    34   35   33 1
    35   36   30 1
    36   37   36 ar
    37   38   37 1
    38   39   37 ar
    39   40   39 1
    40   41   39 ar
    41   42   41 ar
    42   43   42 1
    43   44   33 1
    44   45   41 1
    45   46   45 2
    46   47   46 1
    47   48   46 1
    48   49   48 1
    49   50   49 1
    50   51   49 1
    51   52   49 1
    52   53   48 1
    53   54   53 1
    54   55   53 1
    55   56   53 1
    56   57   48 1
    57   58   57 1
    58   59   58 1
    59   60   58 1
    60   61   58 1
    61   62   57 1
    62   63   62 1
    63   64   62 1
    64   65   62 1
    65   66   45 1
    66   67   66 1
    67   68   29 1
    68   69   68 2
    69   70   68 1
    70   71   70 1
    71   72   70 1
    72   73   72 1
    73   74   72 1
    74   75   74 1
    75   76   74 1
    76   77   74 1
    77   78   72 1
    78   79   78 2
    79   80   78 1
    80   81   80 1
    81   82   81 1
    82   83   81 1
    83   84   81 1
    84   85   86 1
    85   86   87 1
    86   88   86 1
    87   89   86 1
    88   90   85 1
    89   91   90 1
    90   92   90 1
    91   93   90 1
    92   94   85 1
    93   95   94 1
    94   96   94 1
    95   97   94 1
    96   98   85 1
    97   99   98 1
    98  100   99 2
    99  101   99 1
   100  102  101 1
   101  103  101 1
   102  104  103 1
   103  105  103 1
   104  106  105 1
   105  107  105 1
   106  108  105 1
   107  109  103 1
   108  110  109 2
   109  111  109 1
   110  112  111 1
   111  113  111 1
   112  114  113 1
   113  115  114 1
   114  116  114 1
   115  117  113 1
   116  118  117 1
   117  119  117 1
   118  120  114 1
   119  121  120 ar
   120  122  121 1
   121  123  121 ar
   122  124  123 1
   123  125  123 ar
   124  126  125 ar
   125  127  126 1
   126  128  117 1
   127  129  125 1
   128  130  129 2
   129  131  130 1
   130  132  130 1
   131  133  132 1
   132  134  133 1
   133  135  133 1
   134  136  133 1
   135  137  132 1
   136  138  137 1
   137  139  137 1
   138  140  137 1
   139  141  132 1
   140  142  141 1
   141  143  142 1
   142  144  142 1
   143  145  142 1
   144  146  141 1
   145  147  146 1
   146  148  146 1
   147  149  146 1
   148  150  129 1
   149  151  150 1
   150  152  113 1
   151  153  152 2
   152  154  152 1
   153  155  154 1
   154  156  154 1
   155  157  156 1
   156  158  156 1
   157  159  158 1
   158  160  158 1
   159  161  158 1
   160  162  156 1
   161  163  162 2
   162  164  162 1
   163  165  164 1
   164  166  165 1
   165  167  165 1
   166  168  165 1
   167   36   44 ar
   168   42   44 ar
   169   57   66 1
   170  120  128 ar
   171  126  128 ar
   172  141  150 1
@<TRIPOS>SUBSTRUCTURE
     1 RES1 1
     2 RES2 85

@<TRIPOS>CRYSIN
   6.0627   25.1284   21.0284  90.0000  98.2790  90.0000   4 1

