# MOL2 file generated by ConQuest
# Please check atom types

@<TRIPOS>MOLECULE
ZIZJEX
    44    44     1
SMALL
NO_CHARGES
****
Generated from CSD

@<TRIPOS>ATOM
      1 O1        -1.3625    0.8085    1.6119 O.3       1 RES1    0.0000
      2 C1        -0.5478    1.9702    1.7687 C.3       1 RES1    0.0000
      3 C2        -0.1312    2.0793    3.2082 C.3       1 RES1    0.0000
      4 C3         0.6002    0.8300    3.6560 C.3       1 RES1    0.0000
      5 C4        -0.1712   -0.4337    3.3022 C.3       1 RES1    0.0000
      6 C5        -0.6514   -0.4050    1.8537 C.3       1 RES1    0.0000
      7 O2         0.5805    1.9300    0.9694 O.3       1 RES1    0.0000
      8 C6         0.2984    1.9142   -0.4343 C.3       1 RES1    0.0000
      9 O3         0.8017    3.1693    3.3963 O.3       1 RES1    0.0000
     10 C7         0.2894    4.3956    3.5552 C.2       1 RES1    0.0000
     11 O4        -0.8788    4.6110    3.5463 O.2       1 RES1    0.0000
     12 C8         1.3529    5.4094    3.7343 C.3       1 RES1    0.0000
     13 O5         0.7021    0.8760    5.0892 O.3       1 RES1    0.0000
     14 C9         1.9221    0.8343    5.6642 C.2       1 RES1    0.0000
     15 O6         2.9355    0.7683    5.0552 O.2       1 RES1    0.0000
     16 C10        1.7988    0.8932    7.1507 C.3       1 RES1    0.0000
     17 O7         0.7578   -1.5179    3.4679 O.3       1 RES1    0.0000
     18 C11        0.3389   -2.6451    4.0858 C.2       1 RES1    0.0000
     19 O8        -0.7972   -2.8131    4.4172 O.2       1 RES1    0.0000
     20 C12        1.4441   -3.6015    4.2649 C.3       1 RES1    0.0000
     21 C13       -1.6558   -1.4963    1.5873 C.3       1 RES1    0.0000
     22 O9        -1.8984   -1.4216    0.1657 O.3       1 RES1    0.0000
     23 N1        -2.8916   -2.2919   -0.2575 N.pl3     1 RES1    0.0000
     24 O10       -3.0205   -2.2703   -1.4530 O.2       1 RES1    0.0000
     25 O11       -3.4191   -2.9898    0.5619 O.2       1 RES1    0.0000
     26 H1        -1.2752    2.7284    1.5649 H         1 RES1    0.0000
     27 H2        -0.9684    2.2344    3.7880 H         1 RES1    0.0000
     28 H3         1.4469    0.8013    3.3022 H         1 RES1    0.0000
     29 H4        -0.9329   -0.5514    3.9492 H         1 RES1    0.0000
     30 H5         0.1683   -0.5328    1.1642 H         1 RES1    0.0000
     31 H6         1.1373    1.8855   -0.9381 H         1 RES1    0.0000
     32 H7        -0.2004    2.7227   -0.6761 H         1 RES1    0.0000
     33 H8        -0.2404    1.1230   -0.6515 H         1 RES1    0.0000
     34 H9         0.9453    6.2940    3.8485 H         1 RES1    0.0000
     35 H10        1.9328    5.4180    2.9440 H         1 RES1    0.0000
     36 H11        1.8838    5.1897    4.5291 H         1 RES1    0.0000
     37 H12        2.6917    0.8616    7.5537 H         1 RES1    0.0000
     38 H13        1.2718    0.1278    7.4664 H         1 RES1    0.0000
     39 H14        1.3529    1.7261    7.4104 H         1 RES1    0.0000
     40 H15        1.1097   -4.4071    4.7127 H         1 RES1    0.0000
     41 H16        2.1473   -3.1922    4.8089 H         1 RES1    0.0000
     42 H17        1.8100   -3.8456    3.3873 H         1 RES1    0.0000
     43 H18       -2.4828   -1.3384    2.0888 H         1 RES1    0.0000
     44 H19       -1.2893   -2.3723    1.8291 H         1 RES1    0.0000
@<TRIPOS>BOND
     1    1    2 1
     2    2    3 1
     3    3    4 1
     4    4    5 1
     5    5    6 1
     6    6    1 1
     7    7    2 1
     8    8    7 1
     9    9    3 1
    10   10    9 1
    11   11   10 2
    12   12   10 1
    13   13    4 1
    14   14   13 1
    15   15   14 2
    16   16   14 1
    17   17    5 1
    18   18   17 1
    19   19   18 2
    20   20   18 1
    21   21    6 1
    22   22   21 1
    23   23   22 1
    24   24   23 2
    25   25   23 2
    26   26    2 1
    27   27    3 1
    28   28    4 1
    29   29    5 1
    30   30    6 1
    31   31    8 1
    32   32    8 1
    33   33    8 1
    34   34   12 1
    35   35   12 1
    36   36   12 1
    37   37   16 1
    38   38   16 1
    39   39   16 1
    40   40   20 1
    41   41   20 1
    42   42   20 1
    43   43   21 1
    44   44   21 1
@<TRIPOS>SUBSTRUCTURE
     1 RES1 1

@<TRIPOS>CRYSIN
   5.6300   14.3600   22.3880  90.0000  90.0000  90.0000  19 1

