# MOL2 file generated by ConQuest
# Please check atom types

@<TRIPOS>MOLECULE
ZIZRAD
    18    18     1
SMALL
NO_CHARGES
****
Generated from CSD

@<TRIPOS>ATOM
      1 O1         4.1828    4.8831    1.8097 O.2       1 RES1    0.0000
      2 N1         1.6817    2.0138    3.0151 N.3       1 RES1    0.0000
      3 N2         2.6795    2.7593    2.5394 N.2       1 RES1    0.0000
      4 C1         2.4513    3.9824    3.0040 C.2       1 RES1    0.0000
      5 C2         1.3074    4.0458    3.7891 C.2       1 RES1    0.0000
      6 C3         0.8355    2.7499    3.7688 C.2       1 RES1    0.0000
      7 C4         1.6309    0.5921    2.6521 C.3       1 RES1    0.0000
      8 O2         3.1721    6.1077    3.2991 O.2       1 RES1    0.0000
      9 N3         3.3458    5.0685    2.6760 N.pl3     1 RES1    0.0000
     10 O3         0.2343    6.0560    3.7572 O.2       1 RES1    0.0000
     11 N4         0.7239    5.1921    4.4567 N.pl3     1 RES1    0.0000
     12 O4         0.7847    5.1930    5.6767 O.2       1 RES1    0.0000
     13 O5        -1.1607    3.1051    4.7720 O.2       1 RES1    0.0000
     14 N5        -0.4100    2.2573    4.3058 N.pl3     1 RES1    0.0000
     15 O6        -0.6351    1.0587    4.2361 O.2       1 RES1    0.0000
     16 H1         2.3748    0.4130    2.1100 H         1 RES1    0.0000
     17 H2         0.8213    0.4543    2.1683 H         1 RES1    0.0000
     18 H3         1.5910    0.0909    3.4610 H         1 RES1    0.0000
@<TRIPOS>BOND
     1    1    9 2
     2    2    3 1
     3    3    4 2
     4    4    5 1
     5    5    6 2
     6    6    2 1
     7    7    2 1
     8    8    9 2
     9    9    4 1
    10   10   11 2
    11   11    5 1
    12   12   11 2
    13   13   14 2
    14   14    6 1
    15   15   14 2
    16   16    7 1
    17   17    7 1
    18   18    7 1
@<TRIPOS>SUBSTRUCTURE
     1 RES1 1

@<TRIPOS>CRYSIN
  11.7333    8.2594    8.3398  90.0000  90.0000  90.0000  33 1

