# MOL2 file generated by ConQuest
# Please check atom types

@<TRIPOS>MOLECULE
ZIZROP
    42    44     2
SMALL
NO_CHARGES
****
Generated from CSD

@<TRIPOS>ATOM
      1 O1        -3.4749    0.5680   -5.7297 O.3       1 RES1    0.0000
      2 O2         1.4528   -5.8306   -3.7719 O.2       1 RES1    0.0000
      3 O3         0.2271   -6.0114   -2.0424 O.2       1 RES1    0.0000
      4 N1        -2.7559   -0.6384   -5.5347 N.2       1 RES1    0.0000
      5 N2        -2.2122    0.4513   -3.5331 N.3       1 RES1    0.0000
      6 N3         0.5751   -5.4270   -3.0342 N.pl3     1 RES1    0.0000
      7 C1        -2.1213   -0.5942   -4.4008 C.2       1 RES1    0.0000
      8 C2        -1.3864   -1.8328   -4.0289 C.ar      1 RES1    0.0000
      9 C3        -0.4201   -2.3505   -4.9012 C.ar      1 RES1    0.0000
     10 C4         0.2245   -3.5384   -4.5535 C.ar      1 RES1    0.0000
     11 C5        -0.1170   -4.1684   -3.3758 C.ar      1 RES1    0.0000
     12 C6        -1.0657   -3.6709   -2.5156 C.ar      1 RES1    0.0000
     13 C7        -1.6932   -2.4751   -2.8543 C.ar      1 RES1    0.0000
     14 C8        -1.2592    0.8168   -2.5610 C.ar      1 RES1    0.0000
     15 C9        -1.6991    1.5194   -1.4513 C.ar      1 RES1    0.0000
     16 C10       -0.7363    1.9341   -0.4868 C.ar      1 RES1    0.0000
     17 C11        0.5880    1.6730   -0.6591 C.ar      1 RES1    0.0000
     18 C12        1.0096    0.9948   -1.7764 C.ar      1 RES1    0.0000
     19 C13        0.1016    0.5659   -2.7348 C.ar      1 RES1    0.0000
     20 H1        -3.5682    0.5475   -6.4705 H         1 RES1    0.0000
     21 H2        -2.8506    1.0299   -3.6737 H         1 RES1    0.0000
     22 O4        -3.6240   -1.8269   -7.8538 O.3       2 RES2    0.0000
     23 O5       -10.3766    2.8459   -9.6982 O.2       2 RES2    0.0000
     24 O6        -8.9369    4.3496   -9.2461 O.2       2 RES2    0.0000
     25 N4        -4.5173   -0.7256   -7.9702 N.2       2 RES2    0.0000
     26 N5        -5.2520   -1.9415   -9.8236 N.3       2 RES2    0.0000
     27 N6        -9.2365    3.1982   -9.4381 N.pl3     2 RES2    0.0000
     28 C14       -5.2890   -0.8613   -9.0179 C.2       2 RES2    0.0000
     29 C15       -6.2857    0.2199   -9.1705 C.ar      2 RES2    0.0000
     30 C16       -7.5918   -0.1366   -9.5485 C.ar      2 RES2    0.0000
     31 C17       -8.5474    0.8713   -9.6165 C.ar      2 RES2    0.0000
     32 C18       -8.2156    2.1585   -9.3323 C.ar      2 RES2    0.0000
     33 C19       -6.9131    2.5250   -8.9755 C.ar      2 RES2    0.0000
     34 C20       -5.9666    1.5329   -8.8984 C.ar      2 RES2    0.0000
     35 C21       -5.6209   -2.0219  -11.1948 C.ar      2 RES2    0.0000
     36 C22       -5.9348   -3.2626  -11.7179 C.ar      2 RES2    0.0000
     37 C23       -6.2669   -3.3867  -13.0619 C.ar      2 RES2    0.0000
     38 C24       -6.3128   -2.2852  -13.8586 C.ar      2 RES2    0.0000
     39 C25       -6.0080   -1.0420  -13.3582 C.ar      2 RES2    0.0000
     40 C26       -5.6500   -0.9021  -12.0142 C.ar      2 RES2    0.0000
     41 H3        -3.1158   -1.3315   -7.9823 H         2 RES2    0.0000
     42 H4        -5.0008   -2.6347   -9.5848 H         2 RES2    0.0000
@<TRIPOS>BOND
     1    1    4 1
     2    2    6 2
     3    3    6 2
     4    4    7 2
     5    5    7 1
     6    6   11 1
     7    7    8 1
     8    8    9 ar
     9    9   10 ar
    10   10   11 ar
    11   11   12 ar
    12   12   13 ar
    13   13    8 ar
    14   14    5 1
    15   15   14 ar
    16   16   15 ar
    17   17   16 ar
    18   18   17 ar
    19   19   14 ar
    20   20    1 1
    21   21    5 1
    22   22   25 1
    23   23   27 2
    24   24   27 2
    25   25   28 2
    26   26   28 1
    27   27   32 1
    28   28   29 1
    29   29   30 ar
    30   30   31 ar
    31   31   32 ar
    32   32   33 ar
    33   33   34 ar
    34   34   29 ar
    35   35   26 1
    36   36   35 ar
    37   37   36 ar
    38   38   37 ar
    39   39   38 ar
    40   40   35 ar
    41   41   22 1
    42   42   26 1
    43   18   19 ar
    44   39   40 ar
@<TRIPOS>SUBSTRUCTURE
     1 RES1 1
     2 RES2 22

@<TRIPOS>CRYSIN
   9.6360    9.7890   15.8160  72.9300  83.4400  64.6600   2 1

