# MOL2 file generated by ConQuest
# Please check atom types

@<TRIPOS>MOLECULE
ZIZSUW
    26    26     2
SMALL
NO_CHARGES
****
Generated from CSD

@<TRIPOS>ATOM
      1 C1        -2.3844    4.6741    4.2668 C.ar      1 RES1    0.0000
      2 C2        -1.1737    3.9446    3.9703 C.ar      1 RES1    0.0000
      3 C3        -0.4665    4.1882    2.7284 C.ar      1 RES1    0.0000
      4 C4        -0.9825    5.1230    1.8502 C.ar      1 RES1    0.0000
      5 C5        -2.1130    5.8310    2.1898 C.ar      1 RES1    0.0000
      6 C6        -2.8104    5.6471    3.3569 C.ar      1 RES1    0.0000
      7 C7        -4.1246    5.1970    5.9852 C.3       1 RES1    0.0000
      8 C8        -4.1986    4.8604    7.4717 C.3       1 RES1    0.0000
      9 C9        -5.4582    4.9057    5.3085 C.3       1 RES1    0.0000
     10 N1        -3.0225    4.4258    5.4149 N.3       1 RES1    0.0000
     11 N2        -0.5369    3.0815    4.7876 N.2       1 RES1    0.0000
     12 N3         0.6757    3.5160    2.4800 N.pl3     1 RES1    0.0000
     13 O1        -1.1034    2.7591    5.8901 O.2       1 RES1    0.0000
     14 C10        5.1660    1.4052    5.1919 C.ar      2 RES2    0.0000
     15 C11        3.8579    2.0201    5.2033 C.ar      2 RES2    0.0000
     16 C12        3.2858    2.4630    6.4515 C.ar      2 RES2    0.0000
     17 C13        4.0289    2.3400    7.6060 C.ar      2 RES2    0.0000
     18 C14        5.2710    1.7443    7.5667 C.ar      2 RES2    0.0000
     19 C15        5.8508    1.2763    6.4224 C.ar      2 RES2    0.0000
     20 C16        6.9755    0.3021    3.8714 C.3       2 RES2    0.0000
     21 C17        6.9699   -0.3570    2.5079 C.3       2 RES2    0.0000
     22 C18        8.1548    1.2452    4.0222 C.3       2 RES2    0.0000
     23 N4         5.6969    0.9993    4.0298 N.3       2 RES2    0.0000
     24 N5         3.0494    2.2004    4.1350 N.2       2 RES2    0.0000
     25 N6         2.0558    2.9979    6.4604 N.pl3     2 RES2    0.0000
     26 O2         3.4902    1.8625    2.9768 O.2       2 RES2    0.0000
@<TRIPOS>BOND
     1    1    2 ar
     2    2    3 ar
     3    3    4 ar
     4    4    5 ar
     5    5    6 ar
     6    6    1 ar
     7    7    8 1
     8    9    7 1
     9   10    1 1
    10   11    2 1
    11   12    3 1
    12   13   11 2
    13   14   15 ar
    14   15   16 ar
    15   16   17 ar
    16   17   18 ar
    17   18   19 ar
    18   19   14 ar
    19   20   21 1
    20   22   20 1
    21   23   14 1
    22   24   15 1
    23   25   16 1
    24   26   24 2
    25    7   10 1
    26   20   23 1
@<TRIPOS>SUBSTRUCTURE
     1 RES1 1
     2 RES2 14

@<TRIPOS>CRYSIN
  12.6900   11.9390   13.2940  90.0000 107.5900  90.0000  14 1

