# MOL2 file generated by ConQuest
# Please check atom types

@<TRIPOS>MOLECULE
ZMBPNZ
    28    30     1
SMALL
NO_CHARGES
****
Generated from CSD

@<TRIPOS>ATOM
      1 C1         4.2917    0.2867   -0.5141 C.ar      1 RES1    0.0000
      2 C2         5.6681    1.5710    3.5238 C.ar      1 RES1    0.0000
      3 C3         5.1179    0.8631    4.5784 C.ar      1 RES1    0.0000
      4 C4         3.9935    0.0844    4.3229 C.ar      1 RES1    0.0000
      5 C5         3.4344    0.0205    3.0533 C.ar      1 RES1    0.0000
      6 C6         0.1191    1.8242    0.8755 C.ar      1 RES1    0.0000
      7 C7        -0.9267    2.1458    1.7853 C.ar      1 RES1    0.0000
      8 C8        -2.1501    2.6295    1.3428 C.ar      1 RES1    0.0000
      9 C9        -2.3638    2.7922   -0.0031 C.ar      1 RES1    0.0000
     10 C10       -1.3763    2.4766   -0.9362 C.ar      1 RES1    0.0000
     11 C11       -0.1709    2.0097   -0.5016 C.ar      1 RES1    0.0000
     12 C12        3.9397    0.6098   -1.8304 C.ar      1 RES1    0.0000
     13 C13        5.6990    0.9452    5.9727 C.3       1 RES1    0.0000
     14 C14        4.7336    0.2129   -2.8788 C.ar      1 RES1    0.0000
     15 C15        5.8920   -0.5011   -2.6467 C.ar      1 RES1    0.0000
     16 C16        6.2567   -0.8212   -1.3537 C.ar      1 RES1    0.0000
     17 C17        5.4602   -0.4304   -0.2866 C.ar      1 RES1    0.0000
     18 C18        3.4153    0.6844    0.6122 C.2       1 RES1    0.0000
     19 C19        3.9876    0.7353    1.9987 C.ar      1 RES1    0.0000
     20 C20        5.1210    1.5147    2.2479 C.ar      1 RES1    0.0000
     21 N1         2.2074    0.9794    0.2835 N.2       1 RES1    0.0000
     22 N2         1.3411    1.3854    1.2634 N.pl3     1 RES1    0.0000
     23 N3        -0.7761    1.9421    3.2107 N.pl3     1 RES1    0.0000
     24 N4        -3.6582    3.2728   -0.4798 N.pl3     1 RES1    0.0000
     25 O1        -1.7459    2.0972    3.9226 O.2       1 RES1    0.0000
     26 O2         0.3148    1.6174    3.6640 O.2       1 RES1    0.0000
     27 O3        -4.4508    3.7176    0.3256 O.2       1 RES1    0.0000
     28 O4        -3.8959    3.1899   -1.6778 O.2       1 RES1    0.0000
@<TRIPOS>BOND
     1    1   12 ar
     2    2    3 ar
     3    3    4 ar
     4    4    5 ar
     5    5   19 ar
     6    6    7 ar
     7    7    8 ar
     8    8    9 ar
     9    9   10 ar
    10   10   11 ar
    11   11    6 ar
    12   12   14 ar
    13   13    3 1
    14   14   15 ar
    15   15   16 ar
    16   16   17 ar
    17   17    1 ar
    18   18    1 1
    19   19   18 1
    20   20    2 ar
    21   21   18 2
    22   22    6 1
    23   23    7 1
    24   24    9 1
    25   25   23 2
    26   26   23 2
    27   27   24 2
    28   28   24 2
    29   19   20 ar
    30   21   22 1
@<TRIPOS>SUBSTRUCTURE
     1 RES1 1

@<TRIPOS>CRYSIN
  15.1280    7.6040   15.9620  90.0000 102.5900  90.0000  14 1

