# MOL2 file generated by ConQuest
# Please check atom types

@<TRIPOS>MOLECULE
ZOBPOX
   172   184     4
SMALL
NO_CHARGES
****
Generated from CSD

@<TRIPOS>ATOM
      1 O1         5.1910   31.9071    1.9039 O.2       1 RES1    0.0000
      2 O2         6.9507   33.0266    1.3322 O.2       1 RES1    0.0000
      3 O3         4.5065   27.7469    4.0437 O.2       1 RES1    0.0000
      4 O4         8.0839   26.9794    5.7759 O.3       1 RES1    0.0000
      5 N1         6.3763   31.9701    1.6058 N.pl3     1 RES1    0.0000
      6 C1         7.8011   26.4011    4.4951 C.3       1 RES1    0.0000
      7 H1         8.5905   26.5832    3.9071 H         1 RES1    0.0000
      8 C2         7.1549   30.7249    1.5561 C.ar      1 RES1    0.0000
      9 C3         8.4639   30.7712    1.0972 C.ar      1 RES1    0.0000
     10 H2         8.8607   31.5923    0.8351 H         1 RES1    0.0000
     11 C4         9.1706   29.5870    1.0328 C.ar      1 RES1    0.0000
     12 H3        10.0646   29.5865    0.7119 H         1 RES1    0.0000
     13 C5         8.5790   28.3885    1.4382 C.ar      1 RES1    0.0000
     14 H4         9.0768   27.5803    1.3935 H         1 RES1    0.0000
     15 C6         7.2692   28.3647    1.9078 C.ar      1 RES1    0.0000
     16 C7         6.5502   29.5562    1.9657 C.ar      1 RES1    0.0000
     17 H5         5.6546   29.5639    2.2825 H         1 RES1    0.0000
     18 C8         6.6370   27.0843    2.4073 C.3       1 RES1    0.0000
     19 H6         5.7024   27.0306    2.0834 H         1 RES1    0.0000
     20 H7         7.1319   26.3081    2.0429 H         1 RES1    0.0000
     21 N2         6.6497   27.0265    3.8753 N.am      1 RES1    0.0000
     22 C9         5.5429   27.3702    4.5871 C.2       1 RES1    0.0000
     23 C10        5.7244   27.3217    6.0556 C.ar      1 RES1    0.0000
     24 C11        4.6594   27.5749    6.9150 C.ar      1 RES1    0.0000
     25 H8         3.7869   27.7102    6.5624 H         1 RES1    0.0000
     26 C12        4.8693   27.6296    8.2814 C.ar      1 RES1    0.0000
     27 H9         4.1391   27.7831    8.8685 H         1 RES1    0.0000
     28 C13        6.1523   27.4593    8.7960 C.ar      1 RES1    0.0000
     29 H10        6.2954   27.5050    9.7356 H         1 RES1    0.0000
     30 C14        7.2150   27.2227    7.9558 C.ar      1 RES1    0.0000
     31 H11        8.0904   27.1137    8.3067 H         1 RES1    0.0000
     32 C15        6.9946   27.1483    6.5906 C.ar      1 RES1    0.0000
     33 C16        7.6798   24.8909    4.6313 C.ar      1 RES1    0.0000
     34 C17        8.7711   24.1800    5.1268 C.ar      1 RES1    0.0000
     35 H12        9.5672   24.6414    5.3612 H         1 RES1    0.0000
     36 C18        8.7007   22.8067    5.2786 C.ar      1 RES1    0.0000
     37 H13        9.4429   22.3301    5.6295 H         1 RES1    0.0000
     38 C19        7.5489   22.1256    4.9226 C.ar      1 RES1    0.0000
     39 H14        7.5030   21.1826    5.0238 H         1 RES1    0.0000
     40 C20        6.4722   22.8206    4.4211 C.ar      1 RES1    0.0000
     41 H15        5.6833   22.3531    4.1753 H         1 RES1    0.0000
     42 C21        6.5276   24.2014    4.2709 C.ar      1 RES1    0.0000
     43 H16        5.7799   24.6741    3.9222 H         1 RES1    0.0000
     44 O5         9.0679   24.9616    1.3319 O.2       2 RES2    0.0000
     45 O6        10.8243   23.8421    1.8999 O.2       2 RES2    0.0000
     46 O7        11.5101   19.6840    4.0510 O.2       2 RES2    0.0000
     47 O8         7.9356   18.9163    5.7776 O.3       2 RES2    0.0000
     48 N3         9.6418   23.9110    1.6067 N.pl3     2 RES2    0.0000
     49 C22        8.2093   18.3393    4.5039 C.3       2 RES2    0.0000
     50 H17        7.4183   18.5232    3.9206 H         2 RES2    0.0000
     51 C23        8.8665   22.6611    1.5508 C.ar      2 RES2    0.0000
     52 C24        7.5546   22.7094    1.0906 C.ar      2 RES2    0.0000
     53 H18        7.1564   23.5284    0.8249 H         2 RES2    0.0000
     54 C25        6.8522   21.5211    1.0341 C.ar      2 RES2    0.0000
     55 H19        5.9573   21.5216    0.7153 H         2 RES2    0.0000
     56 C26        7.4347   20.3253    1.4361 C.ar      2 RES2    0.0000
     57 H20        6.9381   19.5175    1.3850 H         2 RES2    0.0000
     58 C27        8.7402   20.3012    1.9107 C.ar      2 RES2    0.0000
     59 C28        9.4652   21.4896    1.9601 C.ar      2 RES2    0.0000
     60 H21       10.3624   21.4920    2.2724 H         2 RES2    0.0000
     61 C29        9.3775   19.0260    2.4094 C.3       2 RES2    0.0000
     62 H22        8.8882   18.2480    2.0413 H         2 RES2    0.0000
     63 H23       10.3124   18.9792    2.0902 H         2 RES2    0.0000
     64 N4         9.3594   18.9641    3.8747 N.am      2 RES2    0.0000
     65 C30       10.4693   19.3094    4.5876 C.2       2 RES2    0.0000
     66 C31       10.2890   19.2585    6.0588 C.ar      2 RES2    0.0000
     67 C32       11.3509   19.5149    6.9183 C.ar      2 RES2    0.0000
     68 H24       12.2219   19.6545    6.5674 H         2 RES2    0.0000
     69 C33       11.1409   19.5652    8.2831 C.ar      2 RES2    0.0000
     70 H25       11.8742   19.7129    8.8685 H         2 RES2    0.0000
     71 C34        9.8651   19.4025    8.7993 C.ar      2 RES2    0.0000
     72 H26        9.7239   19.4568    9.7373 H         2 RES2    0.0000
     73 C35        8.8040   19.1642    7.9592 C.ar      2 RES2    0.0000
     74 H27        7.9298   19.0525    8.3135 H         2 RES2    0.0000
     75 C36        9.0178   19.0881    6.5943 C.ar      2 RES2    0.0000
     76 C37        8.3310   16.8312    4.6333 C.ar      2 RES2    0.0000
     77 C38        9.4801   16.1431    4.2738 C.ar      2 RES2    0.0000
     78 H28       10.2284   16.6157    3.9307 H         2 RES2    0.0000
     79 C39        9.5370   14.7603    4.4148 C.ar      2 RES2    0.0000
     80 H29       10.3236   14.2913    4.1635 H         2 RES2    0.0000
     81 C40        8.4553   14.0666    4.9176 C.ar      2 RES2    0.0000
     82 H30        8.4993   13.1236    5.0137 H         2 RES2    0.0000
     83 C41        7.3111   14.7445    5.2786 C.ar      2 RES2    0.0000
     84 H31        6.5694   14.2673    5.6312 H         2 RES2    0.0000
     85 C42        7.2389   16.1232    5.1301 C.ar      2 RES2    0.0000
     86 H32        6.4437   16.5840    5.3663 H         2 RES2    0.0000
     87 O9         5.1843   15.7836    1.8994 O.2       3 RES3    0.0000
     88 O10        6.9404   16.8966    1.3231 O.2       3 RES3    0.0000
     89 O11        4.4947   11.6225    4.0508 O.2       3 RES3    0.0000
     90 O12        8.0711   10.8535    5.7749 O.3       3 RES3    0.0000
     91 N5         6.3695   15.8440    1.6050 N.pl3     3 RES3    0.0000
     92 C43        7.7935   10.2720    4.5046 C.3       3 RES3    0.0000
     93 H33        8.5859   10.4529    3.9206 H         3 RES3    0.0000
     94 C44        7.1459   14.6024    1.5498 C.ar      3 RES3    0.0000
     95 C45        8.4489   14.6495    1.0884 C.ar      3 RES3    0.0000
     96 H34        8.8453   15.4683    0.8182 H         3 RES3    0.0000
     97 C46        9.1549   13.4587    1.0345 C.ar      3 RES3    0.0000
     98 H35       10.0508   13.4578    0.7203 H         3 RES3    0.0000
     99 C47        8.5660   12.2665    1.4355 C.ar      3 RES3    0.0000
    100 H36        9.0615   11.4574    1.3833 H         3 RES3    0.0000
    101 C48        7.2605   12.2450    1.9130 C.ar      3 RES3    0.0000
    102 C49        6.5358   13.4267    1.9648 C.ar      3 RES3    0.0000
    103 H37        5.6398   13.4309    2.2791 H         3 RES3    0.0000
    104 C50        6.6291   10.9614    2.4100 C.3       3 RES3    0.0000
    105 H38        5.6931   10.9094    2.0885 H         3 RES3    0.0000
    106 H39        7.1229   10.1869    2.0429 H         3 RES3    0.0000
    107 N6         6.6451   10.9000    3.8720 N.am      3 RES3    0.0000
    108 C51        5.5391   11.2427    4.5864 C.2       3 RES3    0.0000
    109 C52        5.7187   11.1996    6.0585 C.ar      3 RES3    0.0000
    110 C53        4.6559   11.4489    6.9200 C.ar      3 RES3    0.0000
    111 H40        3.7821   11.5783    6.5708 H         3 RES3    0.0000
    112 C54        4.8689   11.5078    8.2831 C.ar      3 RES3    0.0000
    113 H41        4.1381   11.6630    8.8702 H         3 RES3    0.0000
    114 C55        6.1379   11.3408    8.7976 C.ar      3 RES3    0.0000
    115 H42        6.2745   11.3897    9.7373 H         3 RES3    0.0000
    116 C56        7.2060   11.1058    7.9626 C.ar      3 RES3    0.0000
    117 H43        8.0817   11.0011    8.3152 H         3 RES3    0.0000
    118 C57        6.9832   11.0251    6.5968 C.ar      3 RES3    0.0000
    119 C58        7.6715    8.7622    4.6343 C.ar      3 RES3    0.0000
    120 C59        8.7644    8.0588    5.1318 C.ar      3 RES3    0.0000
    121 H44        9.5589    8.5208    5.3747 H         3 RES3    0.0000
    122 C60        8.6949    6.6833    5.2752 C.ar      3 RES3    0.0000
    123 H45        9.4387    6.2029    5.6177 H         3 RES3    0.0000
    124 C61        7.5377    6.0076    4.9176 C.ar      3 RES3    0.0000
    125 H46        7.4905    5.0652    5.0222 H         3 RES3    0.0000
    126 C62        6.4621    6.6922    4.4132 C.ar      3 RES3    0.0000
    127 H47        5.6759    6.2232    4.1567 H         3 RES3    0.0000
    128 C63        6.5229    8.0795    4.2784 C.ar      3 RES3    0.0000
    129 H48        5.7738    8.5567    3.9408 H         3 RES3    0.0000
    130 O13        9.0632    8.8365    1.3272 O.2       4 RES4    0.0000
    131 O14       10.8156    7.7257    1.9058 O.2       4 RES4    0.0000
    132 O15       11.4981    3.5616    4.0459 O.2       4 RES4    0.0000
    133 O16        7.9203    2.7931    5.7752 O.3       4 RES4    0.0000
    134 N7         9.6350    7.7781    1.6025 N.pl3     4 RES4    0.0000
    135 C64        8.1964    2.2104    4.4977 C.3       4 RES4    0.0000
    136 H49        7.4074    2.3922    3.9104 H         4 RES4    0.0000
    137 C65        8.8481    6.5359    1.5532 C.ar      4 RES4    0.0000
    138 C66        9.4638    5.3679    1.9692 C.ar      4 RES4    0.0000
    139 H50       10.3591    5.3746    2.2859 H         4 RES4    0.0000
    140 C67        8.7335    4.1803    1.9110 C.ar      4 RES4    0.0000
    141 C68        7.4232    4.2036    1.4324 C.ar      4 RES4    0.0000
    142 H51        6.9259    3.3968    1.3783 H         4 RES4    0.0000
    143 C69        6.8396    5.4001    1.0333 C.ar      4 RES4    0.0000
    144 H52        5.9444    5.4036    0.7153 H         4 RES4    0.0000
    145 C70        7.5496    6.5891    1.0928 C.ar      4 RES4    0.0000
    146 H53        7.1554    7.4115    0.8266 H         4 RES4    0.0000
    147 C71        9.3681    2.8974    2.4115 C.3       4 RES4    0.0000
    148 H54        8.8731    2.1220    2.0463 H         4 RES4    0.0000
    149 H55       10.3030    2.8440    2.0885 H         4 RES4    0.0000
    150 N8         9.3562    2.8368    3.8760 N.am      4 RES4    0.0000
    151 C72       10.4609    3.1769    4.5876 C.2       4 RES4    0.0000
    152 C73        9.0085    2.9587    6.5894 C.ar      4 RES4    0.0000
    153 C74        8.7848    3.0392    7.9558 C.ar      4 RES4    0.0000
    154 H56        7.9084    2.9345    8.3084 H         4 RES4    0.0000
    155 C75        9.8539    3.2748    8.7943 C.ar      4 RES4    0.0000
    156 H57        9.7130    3.3205    9.7339 H         4 RES4    0.0000
    157 C76       11.1284    3.4418    8.2848 C.ar      4 RES4    0.0000
    158 H58       11.8582    3.6002    8.8719 H         4 RES4    0.0000
    159 C77       11.3441    3.3802    6.9200 C.ar      4 RES4    0.0000
    160 H59       12.2193    3.5048    6.5708 H         4 RES4    0.0000
    161 C78       10.2811    3.1364    6.0565 C.ar      4 RES4    0.0000
    162 C79        8.3239    0.6985    4.6338 C.ar      4 RES4    0.0000
    163 C80        9.4668    0.0104    4.2694 C.ar      4 RES4    0.0000
    164 H60       10.2139    0.4821    3.9189 H         4 RES4    0.0000
    165 C81        9.5273   -1.3691    4.4152 C.ar      4 RES4    0.0000
    166 H61       10.3143   -1.8374    4.1618 H         4 RES4    0.0000
    167 C82        8.4559   -2.0649    4.9243 C.ar      4 RES4    0.0000
    168 H62        8.5043   -3.0067    5.0373 H         4 RES4    0.0000
    169 C83        7.3008   -1.3746    5.2718 C.ar      4 RES4    0.0000
    170 H63        6.5527   -1.8540    5.6109 H         4 RES4    0.0000
    171 C84        7.2288   -0.0037    5.1327 C.ar      4 RES4    0.0000
    172 H64        6.4357    0.4601    5.3747 H         4 RES4    0.0000
@<TRIPOS>BOND
     1    1    5 2
     2    2    5 2
     3    3   22 2
     4    4    6 1
     5    5    8 1
     6    6    7 1
     7    8    9 ar
     8    9   10 1
     9   11    9 ar
    10   12   11 1
    11   13   11 ar
    12   14   13 1
    13   15   13 ar
    14   16    8 ar
    15   17   16 1
    16   18   15 1
    17   19   18 1
    18   20   18 1
    19   21    6 1
    20   22   21 1
    21   23   22 1
    22   24   23 ar
    23   25   24 1
    24   26   24 ar
    25   27   26 1
    26   28   26 ar
    27   29   28 1
    28   30   28 ar
    29   31   30 1
    30   32    4 1
    31   33    6 1
    32   34   33 ar
    33   35   34 1
    34   36   34 ar
    35   37   36 1
    36   38   36 ar
    37   39   38 1
    38   40   38 ar
    39   41   40 1
    40   42   33 ar
    41   43   42 1
    42   44   48 2
    43   45   48 2
    44   46   65 2
    45   47   49 1
    46   48   51 1
    47   49   50 1
    48   51   52 ar
    49   52   53 1
    50   54   52 ar
    51   55   54 1
    52   56   54 ar
    53   57   56 1
    54   58   56 ar
    55   59   51 ar
    56   60   59 1
    57   61   58 1
    58   62   61 1
    59   63   61 1
    60   64   49 1
    61   65   64 1
    62   66   65 1
    63   67   66 ar
    64   68   67 1
    65   69   67 ar
    66   70   69 1
    67   71   69 ar
    68   72   71 1
    69   73   71 ar
    70   74   73 1
    71   75   47 1
    72   76   49 1
    73   77   76 ar
    74   78   77 1
    75   79   77 ar
    76   80   79 1
    77   81   79 ar
    78   82   81 1
    79   83   81 ar
    80   84   83 1
    81   85   76 ar
    82   86   85 1
    83   87   91 2
    84   88   91 2
    85   89  108 2
    86   90   92 1
    87   91   94 1
    88   92   93 1
    89   94   95 ar
    90   95   96 1
    91   97   95 ar
    92   98   97 1
    93   99   97 ar
    94  100   99 1
    95  101   99 ar
    96  102   94 ar
    97  103  102 1
    98  104  101 1
    99  105  104 1
   100  106  104 1
   101  107   92 1
   102  108  107 1
   103  109  108 1
   104  110  109 ar
   105  111  110 1
   106  112  110 ar
   107  113  112 1
   108  114  112 ar
   109  115  114 1
   110  116  114 ar
   111  117  116 1
   112  118   90 1
   113  119   92 1
   114  120  119 ar
   115  121  120 1
   116  122  120 ar
   117  123  122 1
   118  124  122 ar
   119  125  124 1
   120  126  124 ar
   121  127  126 1
   122  128  119 ar
   123  129  128 1
   124  130  134 2
   125  131  134 2
   126  132  151 2
   127  133  135 1
   128  134  137 1
   129  135  136 1
   130  137  138 ar
   131  138  139 1
   132  140  138 ar
   133  141  140 ar
   134  142  141 1
   135  143  141 ar
   136  144  143 1
   137  145  137 ar
   138  146  145 1
   139  147  140 1
   140  148  147 1
   141  149  147 1
   142  150  135 1
   143  151  150 1
   144  152  133 1
   145  153  152 ar
   146  154  153 1
   147  155  153 ar
   148  156  155 1
   149  157  155 ar
   150  158  157 1
   151  159  157 ar
   152  160  159 1
   153  161  151 1
   154  162  135 1
   155  163  162 ar
   156  164  163 1
   157  165  163 ar
   158  166  165 1
   159  167  165 ar
   160  168  167 1
   161  169  167 ar
   162  170  169 1
   163  171  162 ar
   164  172  171 1
   165   15   16 ar
   166   18   21 1
   167   23   32 ar
   168   30   32 ar
   169   40   42 ar
   170   58   59 ar
   171   61   64 1
   172   66   75 ar
   173   73   75 ar
   174   83   85 ar
   175  101  102 ar
   176  104  107 1
   177  109  118 ar
   178  116  118 ar
   179  126  128 ar
   180  143  145 ar
   181  147  150 1
   182  152  161 ar
   183  159  161 ar
   184  169  171 ar
@<TRIPOS>SUBSTRUCTURE
     1 RES1 1
     2 RES2 44
     3 RES3 87
     4 RES4 130

@<TRIPOS>CRYSIN
  12.7895   17.3429   17.9750 102.0930 100.2520 111.6050   2 1

