# MOL2 file generated by ConQuest
# Please check atom types

@<TRIPOS>MOLECULE
ZOFTAP
    30    31     1
SMALL
NO_CHARGES
****
Generated from CSD

@<TRIPOS>ATOM
      1 O1        -0.0923    1.5599   21.9012 O.3       1 RES1    0.0000
      2 O2        -0.6237   -0.6253   19.3255 O.2       1 RES1    0.0000
      3 O3         1.1173   -0.3348   20.6011 O.2       1 RES1    0.0000
      4 O4         0.0099    5.2524   25.3885 O.2       1 RES1    0.0000
      5 O5         1.1177    5.6774   28.6901 O.3       1 RES1    0.0000
      6 N1        -0.0214   -0.0640   20.2223 N.pl3     1 RES1    0.0000
      7 N2         2.0911    4.4070   25.6793 N.am      1 RES1    0.0000
      8 N3         2.6679    1.9401   23.3895 N.1       1 RES1    0.0000
      9 C1        -0.7450    0.9553   20.9139 C.2       1 RES1    0.0000
     10 C2        -1.9832    1.3935   20.7404 C.2       1 RES1    0.0000
     11 C3        -2.1408    2.3931   21.7179 C.2       1 RES1    0.0000
     12 C4        -0.9635    2.4866   22.3924 C.2       1 RES1    0.0000
     13 C5        -0.5522    3.3237   23.4384 C.2       1 RES1    0.0000
     14 C6         0.6582    3.4468   24.0200 C.2       1 RES1    0.0000
     15 C7         1.7511    2.6048   23.6339 C.1       1 RES1    0.0000
     16 C8         0.8918    4.4414   25.0953 C.2       1 RES1    0.0000
     17 C9         2.4827    5.3869   26.6959 C.3       1 RES1    0.0000
     18 C10        2.0807    5.0422   28.0718 C.2       1 RES1    0.0000
     19 C11        1.0616    5.0619   30.0048 C.2       1 RES1    0.0000
     20 C12        1.8620    4.1263   30.0146 C.2       1 RES1    0.0000
     21 C13        2.4679    4.0180   28.7903 C.2       1 RES1    0.0000
     22 H1         2.0246    6.0073   26.6129 H         1 RES1    0.0000
     23 H2         0.3905    5.4164   30.4740 H         1 RES1    0.0000
     24 H3         2.8609    4.0918   25.5376 H         1 RES1    0.0000
     25 H4        -2.3714    0.9356   19.9902 H         1 RES1    0.0000
     26 H5        -2.1774    3.3483   21.5298 H         1 RES1    0.0000
     27 H6        -1.0975    3.6438   23.7047 H         1 RES1    0.0000
     28 H7         3.2556    5.2194   26.7350 H         1 RES1    0.0000
     29 H8         1.8396    4.3824   30.9139 H         1 RES1    0.0000
     30 H9         2.3784    3.0529   28.8123 H         1 RES1    0.0000
@<TRIPOS>BOND
     1    1    9 1
     2    2    6 2
     3    3    6 2
     4    4   16 2
     5    5   18 1
     6    6    9 1
     7    7   16 1
     8    8   15 3
     9    9   10 2
    10   10   11 1
    11   11   12 2
    12   12    1 1
    13   13   12 1
    14   14   13 2
    15   15   14 1
    16   16   14 1
    17   17    7 1
    18   18   17 1
    19   19    5 1
    20   20   19 2
    21   21   18 2
    22   22   17 1
    23   23   19 1
    24   24    7 1
    25   25   10 1
    26   26   11 1
    27   27   13 1
    28   28   17 1
    29   29   20 1
    30   30   21 1
    31   20   21 1
@<TRIPOS>SUBSTRUCTURE
     1 RES1 1

@<TRIPOS>CRYSIN
  10.9740    4.9240   24.5040  90.0000  94.2100  90.0000  14 1

