# MOL2 file generated by ConQuest
# Please check atom types

@<TRIPOS>MOLECULE
ZOFXUP
    76    78     2
SMALL
NO_CHARGES
****
Generated from CSD

@<TRIPOS>ATOM
      1 O1         0.5853   -6.5462    6.8396 O.2       1 RES1    0.0000
      2 O2         0.3448   -8.4587    5.8827 O.2       1 RES1    0.0000
      3 O3         3.9378   -8.5850    5.0666 O.2       1 RES1    0.0000
      4 N1         0.4940   -7.2476    5.8454 N.pl3     1 RES1    0.0000
      5 N2         3.0743   -6.5047    4.9964 N.am      1 RES1    0.0000
      6 H1         3.1605   -5.6944    5.1797 H         1 RES1    0.0000
      7 C1         0.6176   -6.6175    4.4741 C.3       1 RES1    0.0000
      8 H2         0.0082   -7.1098    3.8532 H         1 RES1    0.0000
      9 C2         2.0591   -6.8333    3.9919 C.3       1 RES1    0.0000
     10 H3         2.1591   -7.8026    3.7685 H         1 RES1    0.0000
     11 C3         3.9668   -7.4085    5.4385 C.2       1 RES1    0.0000
     12 C4         4.9987   -6.9142    6.3968 C.3       1 RES1    0.0000
     13 H4         4.8337   -7.2996    7.2812 H         1 RES1    0.0000
     14 H5         4.9525   -5.9372    6.4507 H         1 RES1    0.0000
     15 H6         5.8877   -7.1811    6.0841 H         1 RES1    0.0000
     16 C5         2.2875   -6.0509    2.7301 C.2       1 RES1    0.0000
     17 H7         3.0422   -6.2812    2.2001 H         1 RES1    0.0000
     18 C6         1.5156   -5.0623    2.3002 C.2       1 RES1    0.0000
     19 C7         0.2881   -4.6480    3.0382 C.3       1 RES1    0.0000
     20 H8        -0.5043   -4.9689    2.5390 H         1 RES1    0.0000
     21 H9         0.2498   -3.6585    3.0551 H         1 RES1    0.0000
     22 C8         0.1945   -5.1654    4.4895 C.3       1 RES1    0.0000
     23 H10        0.8461   -4.6538    5.0487 H         1 RES1    0.0000
     24 C9        -1.1917   -4.9294    5.0426 C.ar      1 RES1    0.0000
     25 C10       -2.3008   -5.5990    4.5588 C.ar      1 RES1    0.0000
     26 H11       -2.1849   -6.2532    3.8794 H         1 RES1    0.0000
     27 C11       -3.5753   -5.3456    5.0349 C.ar      1 RES1    0.0000
     28 H12       -4.3168   -5.8293    4.6913 H         1 RES1    0.0000
     29 C12       -3.7627   -4.3869    6.0117 C.ar      1 RES1    0.0000
     30 H13       -4.6345   -4.2077    6.3429 H         1 RES1    0.0000
     31 C13       -2.6831   -3.6941    6.5031 C.ar      1 RES1    0.0000
     32 H14       -2.8090   -3.0303    7.1718 H         1 RES1    0.0000
     33 C14       -1.4067   -3.9658    6.0240 C.ar      1 RES1    0.0000
     34 H15       -0.6658   -3.4841    6.3722 H         1 RES1    0.0000
     35 C15        1.7997   -4.3060    1.0261 C.3       1 RES1    0.0000
     36 H16        2.5808   -4.6972    0.5808 H         1 RES1    0.0000
     37 H17        1.9799   -3.3665    1.2372 H         1 RES1    0.0000
     38 H18        1.0234   -4.3638    0.4314 H         1 RES1    0.0000
     39 O4         6.6407   -4.0641    5.8732 O.2       2 RES2    0.0000
     40 O5         6.2212   -2.1149    6.7026 O.2       2 RES2    0.0000
     41 O6         2.9854   -3.6864    5.4387 O.2       2 RES2    0.0000
     42 N3         6.4179   -2.8645    5.7619 N.pl3     2 RES2    0.0000
     43 N4         3.9669   -1.7623    4.8058 N.am      2 RES2    0.0000
     44 H19        3.8788   -0.8778    4.8408 H         2 RES2    0.0000
     45 C16        6.3581   -2.3009    4.3644 C.3       2 RES2    0.0000
     46 H20        6.9181   -2.8761    3.7669 H         2 RES2    0.0000
     47 C17        4.8958   -2.3683    3.8778 C.3       2 RES2    0.0000
     48 H21        4.6449   -3.3280    3.7546 H         2 RES2    0.0000
     49 C18        3.0503   -2.4599    5.4928 C.2       2 RES2    0.0000
     50 C19        2.0932   -1.6495    6.3229 C.3       2 RES2    0.0000
     51 H22        1.1864   -1.7498    5.9670 H         2 RES2    0.0000
     52 H23        2.3540   -0.7053    6.2936 H         2 RES2    0.0000
     53 H24        2.1168   -1.9665    7.2503 H         2 RES2    0.0000
     54 C20        4.7884   -1.6707    2.5498 C.2       2 RES2    0.0000
     55 H25        4.0432   -1.8808    1.9998 H         2 RES2    0.0000
     56 C21        5.6514   -0.7920    2.0953 C.2       2 RES2    0.0000
     57 C22        6.9196   -0.4548    2.8256 C.3       2 RES2    0.0000
     58 H26        7.0689    0.5232    2.7732 H         2 RES2    0.0000
     59 H27        7.6801   -0.9009    2.3726 H         2 RES2    0.0000
     60 C23        6.9002   -0.8807    4.3092 C.3       2 RES2    0.0000
     61 H28        6.2625   -0.2842    4.7961 H         2 RES2    0.0000
     62 C24        8.2732   -0.7255    4.9440 C.ar      2 RES2    0.0000
     63 C25        9.3691   -1.4299    4.4787 C.ar      2 RES2    0.0000
     64 H29        9.2594   -2.0301    3.7500 H         2 RES2    0.0000
     65 C26       10.6211   -1.2805    5.0472 C.ar      2 RES2    0.0000
     66 H30       11.3595   -1.7758    4.7129 H         2 RES2    0.0000
     67 C27       10.7904   -0.4047    6.1072 C.ar      2 RES2    0.0000
     68 H31       11.6481   -0.2881    6.4985 H         2 RES2    0.0000
     69 C28        9.7110    0.2948    6.5894 C.ar      2 RES2    0.0000
     70 H32        9.8249    0.8903    7.3212 H         2 RES2    0.0000
     71 C29        8.4601    0.1387    6.0194 C.ar      2 RES2    0.0000
     72 H33        7.7227    0.6263    6.3645 H         2 RES2    0.0000
     73 C30        5.4638   -0.0646    0.7857 C.3       2 RES2    0.0000
     74 H34        4.6114   -0.3334    0.3821 H         2 RES2    0.0000
     75 H35        6.1973   -0.2891    0.1787 H         2 RES2    0.0000
     76 H36        5.4574    0.9019    0.9475 H         2 RES2    0.0000
@<TRIPOS>BOND
     1    1    4 2
     2    2    4 2
     3    3   11 2
     4    4    7 1
     5    5    6 1
     6    7    8 1
     7    9    5 1
     8   10    9 1
     9   11    5 1
    10   12   11 1
    11   13   12 1
    12   14   12 1
    13   15   12 1
    14   16    9 1
    15   17   16 1
    16   18   16 2
    17   19   18 1
    18   20   19 1
    19   21   19 1
    20   22    7 1
    21   23   22 1
    22   24   22 1
    23   25   24 ar
    24   26   25 1
    25   27   25 ar
    26   28   27 1
    27   29   27 ar
    28   30   29 1
    29   31   29 ar
    30   32   31 1
    31   33   24 ar
    32   34   33 1
    33   35   18 1
    34   36   35 1
    35   37   35 1
    36   38   35 1
    37   39   42 2
    38   40   42 2
    39   41   49 2
    40   42   45 1
    41   43   44 1
    42   45   46 1
    43   47   43 1
    44   48   47 1
    45   49   43 1
    46   50   49 1
    47   51   50 1
    48   52   50 1
    49   53   50 1
    50   54   47 1
    51   55   54 1
    52   56   54 2
    53   57   56 1
    54   58   57 1
    55   59   57 1
    56   60   45 1
    57   61   60 1
    58   62   60 1
    59   63   62 ar
    60   64   63 1
    61   65   63 ar
    62   66   65 1
    63   67   65 ar
    64   68   67 1
    65   69   67 ar
    66   70   69 1
    67   71   62 ar
    68   72   71 1
    69   73   56 1
    70   74   73 1
    71   75   73 1
    72   76   73 1
    73    7    9 1
    74   19   22 1
    75   31   33 ar
    76   45   47 1
    77   57   60 1
    78   69   71 ar
@<TRIPOS>SUBSTRUCTURE
     1 RES1 1
     2 RES2 39

@<TRIPOS>CRYSIN
  19.3984    9.6352   16.2688  90.0000 108.7370  90.0000  14 1

