# MOL2 file generated by ConQuest
# Please check atom types

@<TRIPOS>MOLECULE
ZOFYAW
    38    39     1
SMALL
NO_CHARGES
****
Generated from CSD

@<TRIPOS>ATOM
      1 O1         3.1635    6.6830    3.5924 O.2       1 RES1    0.0000
      2 O2         4.5320    5.0644    3.2187 O.2       1 RES1    0.0000
      3 O3         2.6606    6.8538    0.3210 O.2       1 RES1    0.0000
      4 N1         3.4026    5.5074    3.3513 N.pl3     1 RES1    0.0000
      5 N2         2.3646    4.6541    0.7518 N.am      1 RES1    0.0000
      6 C1         2.2631    4.5413    3.2121 C.3       1 RES1    0.0000
      7 H1         2.6315    3.6131    3.1529 H         1 RES1    0.0000
      8 C2         1.5068    4.8635    1.9037 C.3       1 RES1    0.0000
      9 H2         1.2223    5.8217    1.9245 H         1 RES1    0.0000
     10 C3         2.8773    5.6788    0.0218 C.2       1 RES1    0.0000
     11 C4         3.7023    5.2901   -1.1653 C.3       1 RES1    0.0000
     12 H3         3.2832    5.6345   -1.9818 H         1 RES1    0.0000
     13 H4         3.7611    4.3129   -1.2175 H         1 RES1    0.0000
     14 H5         4.6025    5.6672   -1.0755 H         1 RES1    0.0000
     15 C5         0.2848    3.9975    1.8292 C.2       1 RES1    0.0000
     16 H6        -0.1310    3.8984    0.9800 H         1 RES1    0.0000
     17 C6        -0.2650    3.3562    2.8603 C.2       1 RES1    0.0000
     18 C7         0.2918    3.5007    4.2568 C.3       1 RES1    0.0000
     19 H7         0.7130    2.6453    4.5232 H         1 RES1    0.0000
     20 H8        -0.4563    3.6758    4.8808 H         1 RES1    0.0000
     21 C8         1.3238    4.6230    4.3941 C.3       1 RES1    0.0000
     22 H9         0.8260    5.4853    4.3076 H         1 RES1    0.0000
     23 C9         2.0074    4.6473    5.7484 C.ar      1 RES1    0.0000
     24 C10        1.7316    5.6772    6.6347 C.ar      1 RES1    0.0000
     25 H10        1.1197    6.3597    6.3822 H         1 RES1    0.0000
     26 C11        2.3344    5.7268    7.8814 C.ar      1 RES1    0.0000
     27 H11        2.1303    6.4393    8.4759 H         1 RES1    0.0000
     28 C12        3.2255    4.7517    8.2628 C.ar      1 RES1    0.0000
     29 H12        3.6356    4.7876    9.1174 H         1 RES1    0.0000
     30 C13        3.5184    3.7222    7.3960 C.ar      1 RES1    0.0000
     31 H13        4.1343    3.0461    7.6543 H         1 RES1    0.0000
     32 C14        2.9194    3.6685    6.1453 C.ar      1 RES1    0.0000
     33 H14        3.1333    2.9570    5.5524 H         1 RES1    0.0000
     34 C15       -1.4438    2.4465    2.7006 C.3       1 RES1    0.0000
     35 H15       -1.7455    2.4639    1.7689 H         1 RES1    0.0000
     36 H16       -2.1704    2.7476    3.2839 H         1 RES1    0.0000
     37 H17       -1.1863    1.5326    2.9427 H         1 RES1    0.0000
     38 H18        2.5232    3.8657    0.5159 H         1 RES1    0.0000
@<TRIPOS>BOND
     1    1    4 2
     2    2    4 2
     3    3   10 2
     4    4    6 1
     5    5    8 1
     6    6    7 1
     7    8    6 1
     8    9    8 1
     9   10    5 1
    10   11   10 1
    11   12   11 1
    12   13   11 1
    13   14   11 1
    14   15    8 1
    15   16   15 1
    16   17   15 2
    17   18   17 1
    18   19   18 1
    19   20   18 1
    20   21    6 1
    21   22   21 1
    22   23   21 1
    23   24   23 ar
    24   25   24 1
    25   26   24 ar
    26   27   26 1
    27   28   26 ar
    28   29   28 1
    29   30   28 ar
    30   31   30 1
    31   32   23 ar
    32   33   32 1
    33   34   17 1
    34   35   34 1
    35   36   34 1
    36   37   34 1
    37   38    5 1
    38   18   21 1
    39   30   32 ar
@<TRIPOS>SUBSTRUCTURE
     1 RES1 1

@<TRIPOS>CRYSIN
  19.0719    5.2738   27.2994  90.0000  90.6320  90.0000  15 1

