# MOL2 file generated by ConQuest
# Please check atom types

@<TRIPOS>MOLECULE
ZOGFAE
   108   111     3
SMALL
NO_CHARGES
****
Generated from CSD

@<TRIPOS>ATOM
      1 O1        15.4882    8.5500    3.5399 O.2       1 RES1    0.0000
      2 O2        13.8002   11.6592    3.5106 O.3       1 RES1    0.0000
      3 H1        13.4977   12.4397    3.4420 H         1 RES1    0.0000
      4 O3        10.1697   11.6206    1.4671 O.2       1 RES1    0.0000
      5 O4        12.0783   12.6998    1.3746 O.2       1 RES1    0.0000
      6 N1        11.3915   11.6751    1.6503 N.pl3     1 RES1    0.0000
      7 C1        13.8412    9.5500    5.5638 C.3       1 RES1    0.0000
      8 H2        14.1844    8.6736    5.8703 H         1 RES1    0.0000
      9 H3        14.5976   10.1896    5.5692 H         1 RES1    0.0000
     10 C2        13.3042    9.4072    4.1076 C.3       1 RES1    0.0000
     11 H4        12.5699    8.7279    4.1239 H         1 RES1    0.0000
     12 C3        14.3880    8.8971    3.1373 C.2       1 RES1    0.0000
     13 C4        13.9589    8.7900    1.6739 C.3       1 RES1    0.0000
     14 H5        13.3790    7.9951    1.5650 H         1 RES1    0.0000
     15 H6        14.7622    8.6578    1.1099 H         1 RES1    0.0000
     16 C5        13.2016   10.0314    1.1806 C.3       1 RES1    0.0000
     17 H7        12.7807    9.8302    0.3065 H         1 RES1    0.0000
     18 H8        13.8454   10.7713    1.0428 H         1 RES1    0.0000
     19 C6        12.1184   10.4812    2.1726 C.3       1 RES1    0.0000
     20 H9        11.4549    9.7370    2.2469 H         1 RES1    0.0000
     21 C7        12.7058   10.7234    3.5925 C.3       1 RES1    0.0000
     22 C8        11.6340   11.2711    4.5863 C.3       1 RES1    0.0000
     23 H10       11.3338   12.1647    4.2835 H         1 RES1    0.0000
     24 H11       10.8477   10.6692    4.5845 H         1 RES1    0.0000
     25 C9        12.1797   11.3770    5.9972 C.3       1 RES1    0.0000
     26 H12       11.4524   11.6773    6.5993 H         1 RES1    0.0000
     27 H13       12.8890   12.0677    6.0154 H         1 RES1    0.0000
     28 C10       12.7658   10.0394    6.5431 C.3       1 RES1    0.0000
     29 C11       11.6537    9.0014    6.7843 C.3       1 RES1    0.0000
     30 H14       11.1128    8.9065    5.9718 H         1 RES1    0.0000
     31 H15       11.0823    9.2984    7.5224 H         1 RES1    0.0000
     32 H16       12.0567    8.1370    7.0110 H         1 RES1    0.0000
     33 C12       13.4472   10.3426    7.8851 C.3       1 RES1    0.0000
     34 H17       13.8729    9.5288    8.2278 H         1 RES1    0.0000
     35 H18       12.7784   10.6568    8.5289 H         1 RES1    0.0000
     36 H19       14.1280   11.0375    7.7563 H         1 RES1    0.0000
     37 O5         4.9998    4.8016    3.5563 O.2       2 RES2    0.0000
     38 O6         8.4620    4.7309    3.6252 O.3       2 RES2    0.0000
     39 H20        9.2569    4.5936    3.3912 H         2 RES2    0.0000
     40 O7        10.3930    7.7832    1.6448 O.2       2 RES2    0.0000
     41 O8        10.2479    5.6119    1.4707 O.2       2 RES2    0.0000
     42 N2         9.7585    6.7299    1.7446 N.pl3     2 RES2    0.0000
     43 C13        6.5715    5.8017    5.6164 C.3       2 RES2    0.0000
     44 H21        5.6344    5.9678    5.8884 H         2 RES2    0.0000
     45 H22        6.7287    4.8246    5.6454 H         2 RES2    0.0000
     46 C14        6.7820    6.3125    4.1620 C.3       2 RES2    0.0000
     47 H23        6.5788    7.2912    4.1565 H         2 RES2    0.0000
     48 C15        5.8184    5.6386    3.1664 C.2       2 RES2    0.0000
     49 C16        5.9414    6.0789    1.7410 C.3       2 RES2    0.0000
     50 H24        5.5673    6.9913    1.6485 H         2 RES2    0.0000
     51 H25        5.4107    5.4728    1.1661 H         2 RES2    0.0000
     52 C17        7.4356    6.0799    1.2513 C.3       2 RES2    0.0000
     53 H26        7.7453    5.1462    1.1352 H         2 RES2    0.0000
     54 H27        7.4948    6.5332    0.3736 H         2 RES2    0.0000
     55 C18        8.3292    6.7855    2.2451 C.3       2 RES2    0.0000
     56 H28        8.0480    7.7433    2.3031 H         2 RES2    0.0000
     57 C19        8.2117    6.1424    3.6596 C.3       2 RES2    0.0000
     58 C20        9.1973    6.8161    4.6752 C.3       2 RES2    0.0000
     59 H29       10.1294    6.6234    4.4014 H         2 RES2    0.0000
     60 H30        9.0689    7.7973    4.6516 H         2 RES2    0.0000
     61 C21        8.9777    6.3144    6.0952 C.3       2 RES2    0.0000
     62 H31        9.5869    6.8033    6.7045 H         2 RES2    0.0000
     63 H32        9.2171    5.3552    6.1369 H         2 RES2    0.0000
     64 C22        7.5085    6.4895    6.6084 C.3       2 RES2    0.0000
     65 C23        7.2141    7.9936    6.7861 C.3       2 RES2    0.0000
     66 H33        7.4046    8.4656    5.9501 H         2 RES2    0.0000
     67 H34        7.7783    8.3544    7.5006 H         2 RES2    0.0000
     68 H35        6.2708    8.1161    7.0237 H         2 RES2    0.0000
     69 C24        7.4195    5.7797    7.9957 C.3       2 RES2    0.0000
     70 H36        6.5025    5.8419    8.3366 H         2 RES2    0.0000
     71 H37        8.0323    6.2139    8.6250 H         2 RES2    0.0000
     72 H38        7.6670    4.8364    7.8960 H         2 RES2    0.0000
     73 O9        12.6474    6.2051    3.5798 O.2       3 RES3    0.0000
     74 O10       10.8301    3.1888    3.6415 O.3       3 RES3    0.0000
     75 H39       10.3146    2.5310    3.5563 H         3 RES3    0.0000
     76 O11       10.9114    1.1387    1.3928 O.2       3 RES3    0.0000
     77 O12       12.7131   -0.0095    1.9604 O.2       3 RES3    0.0000
     78 N3        12.0827    1.0547    1.8715 N.pl3     3 RES3    0.0000
     79 C25       12.5735    4.3757    5.6690 C.3       3 RES3    0.0000
     80 H40       11.6344    4.6897    5.6436 H         3 RES3    0.0000
     81 H41       13.1429    5.1331    5.9537 H         3 RES3    0.0000
     82 C26       13.0007    3.9105    4.2599 C.3       3 RES3    0.0000
     83 H42       13.9559    3.6180    4.3161 H         3 RES3    0.0000
     84 C27       12.9303    5.0665    3.2335 C.2       3 RES3    0.0000
     85 C28       13.2660    4.7075    1.7990 C.3       3 RES3    0.0000
     86 H43       14.2477    4.6145    1.7101 H         3 RES3    0.0000
     87 H44       12.9757    5.4430    1.2042 H         3 RES3    0.0000
     88 C29       12.5913    3.3981    1.3547 C.3       3 RES3    0.0000
     89 H45       11.6279    3.5653    1.2042 H         3 RES3    0.0000
     90 H46       12.9872    3.1071    0.4951 H         3 RES3    0.0000
     91 C30       12.7509    2.2920    2.3721 C.3       3 RES3    0.0000
     92 H47       13.7277    2.1002    2.4754 H         3 RES3    0.0000
     93 C31       12.1872    2.7216    3.7630 C.3       3 RES3    0.0000
     94 C32       12.2616    1.5447    4.7822 C.3       3 RES3    0.0000
     95 H48       11.6584    0.8162    4.4902 H         3 RES3    0.0000
     96 H49       13.1844    1.1879    4.8076 H         3 RES3    0.0000
     97 C33       11.8578    2.0117    6.1749 C.3       3 RES3    0.0000
     98 H50       11.9426    1.2513    6.8024 H         3 RES3    0.0000
     99 H51       10.9060    2.2832    6.1568 H         3 RES3    0.0000
    100 C34       12.7049    3.1977    6.7081 C.3       3 RES3    0.0000
    101 C35       14.1673    2.7853    6.9221 C.3       3 RES3    0.0000
    102 H52       14.2160    2.1106    7.6312 H         3 RES3    0.0000
    103 H53       14.6933    3.5699    7.1814 H         3 RES3    0.0000
    104 H54       14.5256    2.4117    6.0897 H         3 RES3    0.0000
    105 C36       12.0996    3.6871    8.0447 C.3       3 RES3    0.0000
    106 H55       11.1617    3.9357    7.9068 H         3 RES3    0.0000
    107 H56       12.6010    4.4667    8.3638 H         3 RES3    0.0000
    108 H57       12.1538    2.9701    8.7102 H         3 RES3    0.0000
@<TRIPOS>BOND
     1    1   12 2
     2    2    3 1
     3    4    6 2
     4    5    6 2
     5    6   19 1
     6    7    8 1
     7    9    7 1
     8   10    7 1
     9   11   10 1
    10   12   10 1
    11   13   12 1
    12   14   13 1
    13   15   13 1
    14   16   13 1
    15   17   16 1
    16   18   16 1
    17   19   16 1
    18   20   19 1
    19   21    2 1
    20   22   21 1
    21   23   22 1
    22   24   22 1
    23   25   22 1
    24   26   25 1
    25   27   25 1
    26   28    7 1
    27   29   28 1
    28   30   29 1
    29   31   29 1
    30   32   29 1
    31   33   28 1
    32   34   33 1
    33   35   33 1
    34   36   33 1
    35   37   48 2
    36   38   39 1
    37   40   42 2
    38   41   42 2
    39   42   55 1
    40   43   44 1
    41   45   43 1
    42   46   43 1
    43   47   46 1
    44   48   46 1
    45   49   48 1
    46   50   49 1
    47   51   49 1
    48   52   49 1
    49   53   52 1
    50   54   52 1
    51   55   52 1
    52   56   55 1
    53   57   38 1
    54   58   57 1
    55   59   58 1
    56   60   58 1
    57   61   58 1
    58   62   61 1
    59   63   61 1
    60   64   43 1
    61   65   64 1
    62   66   65 1
    63   67   65 1
    64   68   65 1
    65   69   64 1
    66   70   69 1
    67   71   69 1
    68   72   69 1
    69   73   84 2
    70   74   75 1
    71   76   78 2
    72   77   78 2
    73   78   91 1
    74   79   80 1
    75   81   79 1
    76   82   79 1
    77   83   82 1
    78   84   82 1
    79   85   84 1
    80   86   85 1
    81   87   85 1
    82   88   85 1
    83   89   88 1
    84   90   88 1
    85   91   88 1
    86   92   91 1
    87   93   74 1
    88   94   93 1
    89   95   94 1
    90   96   94 1
    91   97   94 1
    92   98   97 1
    93   99   97 1
    94  100   79 1
    95  101  100 1
    96  102  101 1
    97  103  101 1
    98  104  101 1
    99  105  100 1
   100  106  105 1
   101  107  105 1
   102  108  105 1
   103   10   21 1
   104   19   21 1
   105   25   28 1
   106   46   57 1
   107   55   57 1
   108   61   64 1
   109   82   93 1
   110   91   93 1
   111   97  100 1
@<TRIPOS>SUBSTRUCTURE
     1 RES1 1
     2 RES2 37
     3 RES3 73

@<TRIPOS>CRYSIN
  11.1190   11.1750   18.5470  77.9100  84.5500  60.7400   2 1

