# MOL2 file generated by ConQuest
# Please check atom types

@<TRIPOS>MOLECULE
ZOGLEM
    74    76     2
SMALL
NO_CHARGES
****
Generated from CSD

@<TRIPOS>ATOM
      1 O1         9.4146    4.7517   21.5125 O.2       1 RES1    0.0000
      2 O2         9.2029    2.6670   21.0919 O.2       1 RES1    0.0000
      3 O3        12.6207    4.5143   16.7355 O.2       1 RES1    0.0000
      4 O4        13.9460    3.0071   17.5893 O.2       1 RES1    0.0000
      5 O5        11.6391    1.6075   14.2522 O.2       1 RES1    0.0000
      6 O6        11.2294    3.6629   14.7623 O.2       1 RES1    0.0000
      7 O7        14.0780    1.2405   15.5399 O.2       1 RES1    0.0000
      8 O8        12.7389   -0.0391   16.6559 O.2       1 RES1    0.0000
      9 N1         9.6676    3.7607   20.8816 N.pl3     1 RES1    0.0000
     10 N2        13.0084    3.3986   16.9082 N.pl3     1 RES1    0.0000
     11 N3        11.6363    2.5789   14.9887 N.pl3     1 RES1    0.0000
     12 N4        13.0606    1.0350   16.2022 N.pl3     1 RES1    0.0000
     13 C1        10.6465    3.8635   19.6815 C.3       1 RES1    0.0000
     14 C2        11.4741    2.6328   19.7737 C.2       1 RES1    0.0000
     15 C3        11.6253    1.7666   18.8045 C.2       1 RES1    0.0000
     16 C4        11.0039    1.9379   17.4371 C.3       1 RES1    0.0000
     17 C5         9.8573    2.9362   17.4353 C.ar      1 RES1    0.0000
     18 C6         8.8565    2.8505   16.4536 C.ar      1 RES1    0.0000
     19 C7         7.8721    3.7901   16.4438 C.ar      1 RES1    0.0000
     20 C8         7.8474    4.7786   17.3969 C.ar      1 RES1    0.0000
     21 C9         8.7437    4.8275   18.4099 C.ar      1 RES1    0.0000
     22 C10        9.7693    3.8929   18.4493 C.ar      1 RES1    0.0000
     23 C11       12.1257    2.2413   16.4205 C.3       1 RES1    0.0000
     24 C12       11.4356    5.1260   19.8605 C.3       1 RES1    0.0000
     25 C13        8.7465    1.7421   15.4397 C.3       1 RES1    0.0000
     26 H1        11.9223    2.4615   20.5934 H         1 RES1    0.0000
     27 H2        12.1505    0.9910   18.9692 H         1 RES1    0.0000
     28 H3        10.6162    1.0521   17.1839 H         1 RES1    0.0000
     29 H4         7.1985    3.7607   15.7753 H         1 RES1    0.0000
     30 H5         7.1792    5.4539   17.3441 H         1 RES1    0.0000
     31 H6         8.6722    5.4906   19.0855 H         1 RES1    0.0000
     32 H7        10.8362    5.8992   19.7827 H         1 RES1    0.0000
     33 H8        12.1285    5.1799   19.1705 H         1 RES1    0.0000
     34 H9        11.8535    5.1260   20.7465 H         1 RES1    0.0000
     35 H10        9.2139    0.9469   15.7726 H         1 RES1    0.0000
     36 H11        9.1534    2.0284   14.5949 H         1 RES1    0.0000
     37 H12        7.8006    1.5268   15.2921 H         1 RES1    0.0000
     38 O9         5.7329    2.0969   14.1188 O.2       2 RES2    0.0000
     39 O10        4.1601    0.9298   13.1810 O.2       2 RES2    0.0000
     40 O11        4.5368    5.1848    9.7338 O.2       2 RES2    0.0000
     41 O12        2.5269    6.0289   10.0685 O.2       2 RES2    0.0000
     42 O13        2.5131    3.2836    6.7556 O.2       2 RES2    0.0000
     43 O14        4.3884    4.2574    7.3131 O.2       2 RES2    0.0000
     44 O15        0.2970    3.6824    9.1226 O.2       2 RES2    0.0000
     45 O16        1.0036    5.3658    7.9494 O.2       2 RES2    0.0000
     46 N5         4.8723    1.9305   13.2749 N.pl3     2 RES2    0.0000
     47 N6         3.3408    5.2092    9.6354 N.pl3     2 RES2    0.0000
     48 N7         3.2775    3.8439    7.5333 N.pl3     2 RES2    0.0000
     49 N8         1.1631    4.3945    8.6608 N.pl3     2 RES2    0.0000
     50 C14        4.6331    3.0438   12.1885 C.3       2 RES2    0.0000
     51 C15        3.1455    3.2787   12.2485 C.2       2 RES2    0.0000
     52 C16        2.3069    3.1417   11.2265 C.2       2 RES2    0.0000
     53 C17        2.7908    2.7306    9.8555 C.3       2 RES2    0.0000
     54 C18        4.1959    2.1238    9.8332 C.ar      2 RES2    0.0000
     55 C19        4.6056    1.2601    8.7978 C.ar      2 RES2    0.0000
     56 C20        5.9364    0.8417    8.7888 C.ar      2 RES2    0.0000
     57 C21        6.8163    1.2210    9.7535 C.ar      2 RES2    0.0000
     58 C22        6.4011    1.9623   10.8095 C.ar      2 RES2    0.0000
     59 C23        5.0895    2.3954   10.8820 C.ar      2 RES2    0.0000
     60 C24        2.6589    4.0054    8.9365 C.3       2 RES2    0.0000
     61 C25        5.4690    4.2648   12.6091 C.3       2 RES2    0.0000
     62 C26        3.6845    0.6655    7.7704 C.3       2 RES2    0.0000
     63 H13        2.7771    3.5430   13.0825 H         2 RES2    0.0000
     64 H14        1.3803    3.3081   11.3617 H         2 RES2    0.0000
     65 H15        2.1584    2.0406    9.5065 H         2 RES2    0.0000
     66 H16        6.2361    0.2765    8.0872 H         2 RES2    0.0000
     67 H17        7.7264    0.9640    9.6873 H         2 RES2    0.0000
     68 H18        7.0115    2.1874   11.5021 H         2 RES2    0.0000
     69 H19        5.3425    4.9866   11.9585 H         2 RES2    0.0000
     70 H20        6.4148    4.0176   12.6414 H         2 RES2    0.0000
     71 H21        5.1802    4.5682   13.4951 H         2 RES2    0.0000
     72 H22        3.8577    1.0766    6.8988 H         2 RES2    0.0000
     73 H23        2.7551    0.8295    8.0317 H         2 RES2    0.0000
     74 H24        3.8412   -0.3010    7.7114 H         2 RES2    0.0000
@<TRIPOS>BOND
     1    1    9 2
     2    2    9 2
     3    3   10 2
     4    4   10 2
     5    5   11 2
     6    6   11 2
     7    7   12 2
     8    8   12 2
     9    9   13 1
    10   10   23 1
    11   11   23 1
    12   12   23 1
    13   13   14 1
    14   14   15 2
    15   15   16 1
    16   16   17 1
    17   17   18 ar
    18   18   19 ar
    19   19   20 ar
    20   20   21 ar
    21   21   22 ar
    22   22   13 1
    23   23   16 1
    24   24   13 1
    25   25   18 1
    26   26   14 1
    27   27   15 1
    28   28   16 1
    29   29   19 1
    30   30   20 1
    31   31   21 1
    32   32   24 1
    33   33   24 1
    34   34   24 1
    35   35   25 1
    36   36   25 1
    37   37   25 1
    38   38   46 2
    39   39   46 2
    40   40   47 2
    41   41   47 2
    42   42   48 2
    43   43   48 2
    44   44   49 2
    45   45   49 2
    46   46   50 1
    47   47   60 1
    48   48   60 1
    49   49   60 1
    50   50   51 1
    51   51   52 2
    52   52   53 1
    53   53   54 1
    54   54   55 ar
    55   55   56 ar
    56   56   57 ar
    57   57   58 ar
    58   58   59 ar
    59   59   50 1
    60   60   53 1
    61   61   50 1
    62   62   55 1
    63   63   51 1
    64   64   52 1
    65   65   53 1
    66   66   56 1
    67   67   57 1
    68   68   58 1
    69   69   61 1
    70   70   61 1
    71   71   61 1
    72   72   62 1
    73   73   62 1
    74   74   62 1
    75   17   22 ar
    76   54   59 ar
@<TRIPOS>SUBSTRUCTURE
     1 RES1 1
     2 RES2 38

@<TRIPOS>CRYSIN
  27.4960   24.4680    8.9490  90.0000  90.0000  90.0000  61 1

