# MOL2 file generated by ConQuest
# Please check atom types

@<TRIPOS>MOLECULE
ZOGLIQ
    37    40     1
SMALL
NO_CHARGES
****
Generated from CSD

@<TRIPOS>ATOM
      1 O1         2.7449    0.0094   13.7096 O.3       1 RES1    0.0000
      2 O2         4.0339    1.7323   14.2517 O.3       1 RES1    0.0000
      3 O3         6.2216    1.1471   12.1837 O.2       1 RES1    0.0000
      4 O4         5.3220    2.7922   11.1109 O.2       1 RES1    0.0000
      5 O5         3.3700    0.1783    9.9588 O.2       1 RES1    0.0000
      6 O6         4.2844   -1.0847   11.4672 O.2       1 RES1    0.0000
      7 O7         0.8750    4.2537   13.7405 O.2       1 RES1    0.0000
      8 O8         1.4480    4.6640   11.6860 O.2       1 RES1    0.0000
      9 N1         3.9744    0.6101   13.3862 N.3       1 RES1    0.0000
     10 N2         5.2713    1.7645   11.7461 N.pl3     1 RES1    0.0000
     11 N3         3.8232   -0.0362   11.0703 N.pl3     1 RES1    0.0000
     12 N4         1.5915    4.1008   12.7646 N.pl3     1 RES1    0.0000
     13 C1         2.7665    2.1862   11.7151 C.3       1 RES1    0.0000
     14 C2         2.7642    3.1650   12.9060 C.3       1 RES1    0.0000
     15 C3         2.7147    2.3229   14.1665 C.3       1 RES1    0.0000
     16 C4         1.7748    1.0901   14.0504 C.3       1 RES1    0.0000
     17 C5         0.8212    1.1732   12.8711 C.ar      1 RES1    0.0000
     18 C6        -0.5049    0.8025   12.9563 C.ar      1 RES1    0.0000
     19 C7        -1.2967    0.8742   11.8197 C.ar      1 RES1    0.0000
     20 C8        -0.7749    1.3126   10.6230 C.ar      1 RES1    0.0000
     21 C9         0.5583    1.7008   10.5126 C.ar      1 RES1    0.0000
     22 C10        1.3549    1.6116   11.6589 C.ar      1 RES1    0.0000
     23 C11        3.8630    1.1665   12.0191 C.3       1 RES1    0.0000
     24 C12        1.1755    0.7160   15.3807 C.3       1 RES1    0.0000
     25 C13        1.0673    2.2224    9.1959 C.3       1 RES1    0.0000
     26 H1         2.9718    2.6769   10.8689 H         1 RES1    0.0000
     27 H2         3.6111    3.6959   12.8943 H         1 RES1    0.0000
     28 H3         2.4976    2.8693   14.9759 H         1 RES1    0.0000
     29 H4        -0.8700    0.5008   13.7793 H         1 RES1    0.0000
     30 H5        -2.2125    0.6248   11.8681 H         1 RES1    0.0000
     31 H6        -1.3349    1.3529    9.8562 H         1 RES1    0.0000
     32 H7         0.4766    1.3636   15.6111 H         1 RES1    0.0000
     33 H8         1.8644    0.7187   16.0777 H         1 RES1    0.0000
     34 H9         0.7819   -0.1790   15.3148 H         1 RES1    0.0000
     35 H10        0.3526    2.1801    8.5259 H         1 RES1    0.0000
     36 H11        1.8275    1.6807    8.8957 H         1 RES1    0.0000
     37 H12        1.3531    3.1529    9.3101 H         1 RES1    0.0000
@<TRIPOS>BOND
     1    1    9 1
     2    2    9 1
     3    3   10 2
     4    4   10 2
     5    5   11 2
     6    6   11 2
     7    7   12 2
     8    8   12 2
     9    9   23 1
    10   10   23 1
    11   11   23 1
    12   12   14 1
    13   13   14 1
    14   14   15 1
    15   15    2 1
    16   16    1 1
    17   17   16 1
    18   18   17 ar
    19   19   18 ar
    20   20   19 ar
    21   21   20 ar
    22   22   13 1
    23   23   13 1
    24   24   16 1
    25   25   21 1
    26   26   13 1
    27   27   14 1
    28   28   15 1
    29   29   18 1
    30   30   19 1
    31   31   20 1
    32   32   24 1
    33   33   24 1
    34   34   24 1
    35   35   25 1
    36   36   25 1
    37   37   25 1
    38   15   16 1
    39   17   22 ar
    40   21   22 ar
@<TRIPOS>SUBSTRUCTURE
     1 RES1 1

@<TRIPOS>CRYSIN
  10.9040    6.7040   19.4060  90.0000  93.7800  90.0000  14 1

