# MOL2 file generated by ConQuest
# Please check atom types

@<TRIPOS>MOLECULE
ZOGLUC
    39    42     1
SMALL
NO_CHARGES
****
Generated from CSD

@<TRIPOS>ATOM
      1 O1         7.8633    3.8940   16.2208 O.3       1 RES1    0.0000
      2 O2         4.7241    1.0655   14.3281 O.2       1 RES1    0.0000
      3 O3         6.8922    5.6188   15.2324 O.3       1 RES1    0.0000
      4 O4         6.8735    4.2933   10.8933 O.2       1 RES1    0.0000
      5 O5         5.5623    2.5732   18.2443 O.2       1 RES1    0.0000
      6 N1         4.7060    5.5042   17.0316 N.pl3     1 RES1    0.0000
      7 O6         6.2199    4.4696   19.0107 O.2       1 RES1    0.0000
      8 O7         6.0720    6.2708   10.6620 O.2       1 RES1    0.0000
      9 O8         6.5344    1.4883   13.2463 O.2       1 RES1    0.0000
     10 O9         5.0861    6.6380   16.9825 O.2       1 RES1    0.0000
     11 C1         5.6361    4.5165   13.5781 C.ar      1 RES1    0.0000
     12 N2         5.8374    3.7318   18.1321 N.pl3     1 RES1    0.0000
     13 N3         6.1445    5.2060   11.2321 N.pl3     1 RES1    0.0000
     14 N4         5.7982    1.6129   14.2043 N.pl3     1 RES1    0.0000
     15 C2         2.9497    4.6391   12.8864 C.ar      1 RES1    0.0000
     16 O10        3.5886    5.1256   17.3283 O.2       1 RES1    0.0000
     17 N5         6.9973    4.9782   16.4778 N.3       1 RES1    0.0000
     18 C3         4.6419    4.0809   14.4543 C.ar      1 RES1    0.0000
     19 C4         5.2253    4.9527   12.3397 C.ar      1 RES1    0.0000
     20 C5         7.4167    3.3545   14.9637 C.3       1 RES1    0.0000
     21 C6         7.0296    4.6123   14.1646 C.3       1 RES1    0.0000
     22 C7         3.2949    4.0916   14.1038 C.ar      1 RES1    0.0000
     23 C8         2.2288    3.4999   14.9660 C.3       1 RES1    0.0000
     24 C9         5.1132    3.4095   15.7278 C.3       1 RES1    0.0000
     25 C10        3.8962    5.0613   11.9985 C.ar      1 RES1    0.0000
     26 C11        5.6812    4.3804   16.7512 C.3       1 RES1    0.0000
     27 C12        6.2600    2.4814   15.3282 C.3       1 RES1    0.0000
     28 C13        8.1644    5.1283   13.3304 C.3       1 RES1    0.0000
     29 H1         2.0304    4.7242   12.6598 H         1 RES1    0.0000
     30 H2         8.1397    2.8359   14.5080 H         1 RES1    0.0000
     31 H3         2.3782    2.5350   15.0548 H         1 RES1    0.0000
     32 H4         1.3528    3.6581   14.5571 H         1 RES1    0.0000
     33 H5         2.2568    3.9174   15.8516 H         1 RES1    0.0000
     34 H6         4.3675    2.8801   16.1343 H         1 RES1    0.0000
     35 H7         3.6426    5.4238   11.1573 H         1 RES1    0.0000
     36 H8         6.5099    1.9078   16.1086 H         1 RES1    0.0000
     37 H9         8.3799    4.4756   12.6317 H         1 RES1    0.0000
     38 H10        8.9493    5.2690   13.9005 H         1 RES1    0.0000
     39 H11        7.9046    5.9773   12.9168 H         1 RES1    0.0000
@<TRIPOS>BOND
     1    1   17 1
     2    2   14 2
     3    3   17 1
     4    4   13 2
     5    5   12 2
     6    6   10 2
     7    7   12 2
     8    8   13 2
     9    9   14 2
    10   11   18 ar
    11   12   26 1
    12   13   19 1
    13   14   27 1
    14   15   22 ar
    15   16    6 2
    16   17   26 1
    17   18   22 ar
    18   19   11 ar
    19   20    1 1
    20   21    3 1
    21   22   23 1
    22   23   31 1
    23   24   18 1
    24   25   15 ar
    25   26    6 1
    26   27   20 1
    27   28   21 1
    28   29   15 1
    29   30   20 1
    30   32   23 1
    31   33   23 1
    32   34   24 1
    33   35   25 1
    34   36   27 1
    35   37   28 1
    36   38   28 1
    37   39   28 1
    38   11   21 1
    39   19   25 ar
    40   20   21 1
    41   24   26 1
    42   24   27 1
@<TRIPOS>SUBSTRUCTURE
     1 RES1 1

@<TRIPOS>CRYSIN
   9.3860    6.7010   23.4680  90.0000  95.3400  90.0000  14 1

