# MOL2 file generated by ConQuest
# Please check atom types

@<TRIPOS>MOLECULE
ZOGQAN01
    74    78     2
SMALL
NO_CHARGES
****
Generated from CSD

@<TRIPOS>ATOM
      1 C1         5.9689    2.9716   33.3615 C.ar      1 RES1    0.0000
      2 C2         5.3394    3.8280   34.2649 C.ar      1 RES1    0.0000
      3 C3         4.5019    4.7937   33.8867 C.ar      1 RES1    0.0000
      4 C4         4.2027    4.8505   32.4749 C.ar      1 RES1    0.0000
      5 C5         4.7282    3.9177   31.6598 C.ar      1 RES1    0.0000
      6 N1         5.6977    2.9721   32.0758 N.ar      1 RES1    0.0000
      7 C6         7.0199    1.9176   33.7859 C.ar      1 RES1    0.0000
      8 C7         7.7828    1.2681   32.8573 C.ar      1 RES1    0.0000
      9 C8         8.6990    0.3168   33.3195 C.ar      1 RES1    0.0000
     10 C9         8.7987    0.0789   34.6976 C.ar      1 RES1    0.0000
     11 C10        7.9543    0.7842   35.5548 C.ar      1 RES1    0.0000
     12 N2         7.0873    1.6958   35.1304 N.ar      1 RES1    0.0000
     13 C11        8.0175    0.3967   37.0296 C.3       1 RES1    0.0000
     14 C12        7.5721    1.5116   37.9750 C.ar      1 RES1    0.0000
     15 C13        6.2822    2.0399   38.1094 C.ar      1 RES1    0.0000
     16 C14        5.9169    3.0397   38.9540 C.ar      1 RES1    0.0000
     17 C15        6.9004    3.5860   39.7355 C.ar      1 RES1    0.0000
     18 C16        8.2634    3.1382   39.6767 C.ar      1 RES1    0.0000
     19 C17        8.5542    2.1503   38.7649 C.ar      1 RES1    0.0000
     20 N3         5.0752    1.3976   37.2691 N.pl3     1 RES1    0.0000
     21 O1         4.2448    2.2179   37.0086 O.2       1 RES1    0.0000
     22 O2         5.1300    0.2476   37.1346 O.2       1 RES1    0.0000
     23 N4         6.5478    4.6931   40.6809 N.pl3     1 RES1    0.0000
     24 O3         5.5403    5.2606   40.4666 O.2       1 RES1    0.0000
     25 O4         7.3332    4.8366   41.6052 O.2       1 RES1    0.0000
     26 C18        4.5553    5.5753   49.2691 C.ar      2 RES2    0.0000
     27 C19        5.1314    6.4095   48.3027 C.ar      2 RES2    0.0000
     28 C20        6.0714    7.3830   48.8658 C.ar      2 RES2    0.0000
     29 C21        6.3777    7.4073   50.1767 C.ar      2 RES2    0.0000
     30 C22        5.5656    6.5230   51.0254 C.ar      2 RES2    0.0000
     31 N5         4.8195    5.6094   50.5969 N.ar      2 RES2    0.0000
     32 C23        3.6252    4.5600   48.8406 C.ar      2 RES2    0.0000
     33 C24        2.8004    3.9136   49.7733 C.ar      2 RES2    0.0000
     34 C25        1.8927    2.9448   49.3112 C.ar      2 RES2    0.0000
     35 C26        1.8407    2.7028   47.9288 C.ar      2 RES2    0.0000
     36 C27        2.6837    3.3647   47.0885 C.ar      2 RES2    0.0000
     37 N6         3.5465    4.2944   47.5002 N.ar      2 RES2    0.0000
     38 C28        2.7020    2.9974   45.6137 C.3       2 RES2    0.0000
     39 C29        3.1095    4.1159   44.6809 C.ar      2 RES2    0.0000
     40 C30        4.4148    4.5962   44.5716 C.ar      2 RES2    0.0000
     41 C31        4.7127    5.6016   43.7145 C.ar      2 RES2    0.0000
     42 C32        3.7249    6.1015   42.9246 C.ar      2 RES2    0.0000
     43 C33        2.4688    5.7296   42.9582 C.ar      2 RES2    0.0000
     44 C34        2.1737    4.6983   43.8615 C.ar      2 RES2    0.0000
     45 N7         5.4124    4.0622   45.1641 N.pl3     2 RES2    0.0000
     46 O5         6.3862    4.7705   45.6767 O.2       2 RES2    0.0000
     47 O6         5.5487    2.8246   45.4918 O.2       2 RES2    0.0000
     48 N8         4.1422    7.2556   41.9750 N.pl3     2 RES2    0.0000
     49 O7         5.1356    7.8179   42.1599 O.2       2 RES2    0.0000
     50 O8         3.3554    7.4646   41.0716 O.2       2 RES2    0.0000
     51 H1         5.5080    3.7227   35.1724 H         1 RES1    0.0000
     52 H2         4.1324    5.3937   34.4918 H         1 RES1    0.0000
     53 H3         3.6561    5.5212   32.1346 H         1 RES1    0.0000
     54 H4         4.4401    3.8919   30.7775 H         1 RES1    0.0000
     55 H5         7.6943    1.4517   31.9497 H         1 RES1    0.0000
     56 H6         9.2357   -0.1512   32.7228 H         1 RES1    0.0000
     57 H7         9.4128   -0.5345   35.0296 H         1 RES1    0.0000
     58 H8         8.9294    0.1460   37.2481 H         1 RES1    0.0000
     59 H9         7.4555   -0.3802   37.1724 H         1 RES1    0.0000
     60 H10        5.0387    3.3415   38.9960 H         1 RES1    0.0000
     61 H11        8.9196    3.4993   40.2271 H         1 RES1    0.0000
     62 H12        9.4409    1.8897   38.6640 H         1 RES1    0.0000
     63 H13        4.9361    6.3523   47.3952 H         2 RES2    0.0000
     64 H14        6.4691    8.0032   48.2985 H         2 RES2    0.0000
     65 H15        7.0550    7.9449   50.5170 H         2 RES2    0.0000
     66 H16        5.6078    6.6505   51.9456 H         2 RES2    0.0000
     67 H17        2.8538    4.1215   50.6767 H         2 RES2    0.0000
     68 H18        1.3447    2.4794   49.8994 H         2 RES2    0.0000
     69 H19        1.2309    2.0899   47.5885 H         2 RES2    0.0000
     70 H20        3.3146    2.2545   45.4876 H         2 RES2    0.0000
     71 H21        1.8168    2.6920   45.3616 H         2 RES2    0.0000
     72 H22        5.5768    5.9437   43.6641 H         2 RES2    0.0000
     73 H23        1.8182    6.1237   42.4246 H         2 RES2    0.0000
     74 H24        1.2969    4.3913   43.9078 H         2 RES2    0.0000
@<TRIPOS>BOND
     1    1    2 ar
     2    2    3 ar
     3    3    4 ar
     4    4    5 ar
     5    5    6 ar
     6    6    1 ar
     7    7    1 1
     8    8    7 ar
     9    9    8 ar
    10   10    9 ar
    11   11   10 ar
    12   12    7 ar
    13   13   11 1
    14   14   13 1
    15   15   14 ar
    16   16   15 ar
    17   17   16 ar
    18   18   17 ar
    19   19   14 ar
    20   20   15 1
    21   21   20 2
    22   22   20 2
    23   23   17 1
    24   24   23 2
    25   25   23 2
    26   26   27 ar
    27   27   28 ar
    28   28   29 ar
    29   29   30 ar
    30   30   31 ar
    31   31   26 ar
    32   32   26 1
    33   33   32 ar
    34   34   33 ar
    35   35   34 ar
    36   36   35 ar
    37   37   32 ar
    38   38   36 1
    39   39   38 1
    40   40   39 ar
    41   41   40 ar
    42   42   41 ar
    43   43   42 ar
    44   44   39 ar
    45   45   40 1
    46   46   45 2
    47   47   45 2
    48   48   42 1
    49   49   48 2
    50   50   48 2
    51   51    2 1
    52   52    3 1
    53   53    4 1
    54   54    5 1
    55   55    8 1
    56   56    9 1
    57   57   10 1
    58   58   13 1
    59   59   13 1
    60   60   16 1
    61   61   18 1
    62   62   19 1
    63   63   27 1
    64   64   28 1
    65   65   29 1
    66   66   30 1
    67   67   33 1
    68   68   34 1
    69   69   35 1
    70   70   38 1
    71   71   38 1
    72   72   41 1
    73   73   43 1
    74   74   44 1
    75   11   12 ar
    76   18   19 ar
    77   36   37 ar
    78   43   44 ar
@<TRIPOS>SUBSTRUCTURE
     1 RES1 1
     2 RES2 26

@<TRIPOS>CRYSIN
  14.0510    5.1590   42.0170  90.0000  90.0000  90.0000  33 1

