# MOL2 file generated by ConQuest
# Please check atom types

@<TRIPOS>MOLECULE
ZOGQAN
    37    39     1
SMALL
NO_CHARGES
****
Generated from CSD

@<TRIPOS>ATOM
      1 N1         6.7457    5.5750   11.8309 N.ar      1 RES1    0.0000
      2 C1         6.3913    4.4756   11.1354 C.ar      1 RES1    0.0000
      3 C2         6.7780    4.2883    9.8195 C.ar      1 RES1    0.0000
      4 C3         7.5238    5.2540    9.1860 C.ar      1 RES1    0.0000
      5 C4         7.8746    6.3891    9.8900 C.ar      1 RES1    0.0000
      6 C5         7.4680    6.4949   11.2017 C.ar      1 RES1    0.0000
      7 C6         5.5372    3.4908   11.8539 C.ar      1 RES1    0.0000
      8 N2         5.0424    2.4779   11.1225 N.ar      1 RES1    0.0000
      9 C7         5.2289    3.6538   13.1929 C.ar      1 RES1    0.0000
     10 C8         4.3816    2.7659   13.7976 C.ar      1 RES1    0.0000
     11 C9         3.8637    1.7288   13.0561 C.ar      1 RES1    0.0000
     12 C10        4.2209    1.6078   11.7258 C.ar      1 RES1    0.0000
     13 C11        3.6185    0.5249   10.8590 C.3       1 RES1    0.0000
     14 C12        4.6141   -0.2981   10.0786 C.ar      1 RES1    0.0000
     15 C13        5.2091   -1.4906   10.5192 C.ar      1 RES1    0.0000
     16 C14        6.0283   -2.2639    9.7273 C.ar      1 RES1    0.0000
     17 C15        6.3267   -1.7963    8.4776 C.ar      1 RES1    0.0000
     18 C16        5.8185   -0.6179    7.9909 C.ar      1 RES1    0.0000
     19 C17        4.9599    0.0981    8.7886 C.ar      1 RES1    0.0000
     20 N3         5.0243   -1.9722   11.9000 N.pl3     1 RES1    0.0000
     21 O1         4.7106   -1.1657   12.7538 O.2       1 RES1    0.0000
     22 O2         5.2356   -3.1455   12.1390 O.2       1 RES1    0.0000
     23 N4         7.2571   -2.5798    7.6569 N.pl3     1 RES1    0.0000
     24 O3         7.4946   -3.7290    7.9981 O.2       1 RES1    0.0000
     25 O4         7.7620   -2.0460    6.6821 O.2       1 RES1    0.0000
     26 H1         6.5284    3.4971    9.3558 H         1 RES1    0.0000
     27 H2         7.7927    5.1419    8.2803 H         1 RES1    0.0000
     28 H3         8.3819    7.0783    9.4797 H         1 RES1    0.0000
     29 H4         7.7202    7.2707   11.6855 H         1 RES1    0.0000
     30 H5         5.6008    4.3749   13.6868 H         1 RES1    0.0000
     31 H6         4.1549    2.8627   14.7134 H         1 RES1    0.0000
     32 H7         3.2677    1.1033   13.4521 H         1 RES1    0.0000
     33 H8         6.3737   -3.0920   10.0383 H         1 RES1    0.0000
     34 H9         6.0551   -0.3058    7.1242 H         1 RES1    0.0000
     35 H10        4.5832    0.8994    8.4430 H         1 RES1    0.0000
     36 H11        2.9549    1.0167   10.1578 H         1 RES1    0.0000
     37 H12        3.0267   -0.1822   11.3889 H         1 RES1    0.0000
@<TRIPOS>BOND
     1    1    2 ar
     2    2    3 ar
     3    3    4 ar
     4    4    5 ar
     5    5    6 ar
     6    6    1 ar
     7    7    2 1
     8    8    7 ar
     9    9    7 ar
    10   10    9 ar
    11   11   10 ar
    12   12    8 ar
    13   13   12 1
    14   14   13 1
    15   15   14 ar
    16   16   15 ar
    17   17   16 ar
    18   18   17 ar
    19   19   14 ar
    20   20   15 1
    21   21   20 2
    22   22   20 2
    23   23   17 1
    24   24   23 2
    25   25   23 2
    26   26    3 1
    27   27    4 1
    28   28    5 1
    29   29    6 1
    30   30    9 1
    31   31   10 1
    32   32   11 1
    33   33   16 1
    34   34   18 1
    35   35   19 1
    36   36   13 1
    37   37   13 1
    38   11   12 ar
    39   18   19 ar
@<TRIPOS>SUBSTRUCTURE
     1 RES1 1

@<TRIPOS>CRYSIN
   8.3400   12.7400   14.4080  90.0000  92.1300  90.0000  14 1

