# MOL2 file generated by ConQuest
# Please check atom types

@<TRIPOS>MOLECULE
ZOGQAN04
    74    78     2
SMALL
NO_CHARGES
****
Generated from CSD

@<TRIPOS>ATOM
      1 O1         5.4679    2.4142   32.0461 O.2       1 RES1    0.0000
      2 O2         6.3377    0.4199   31.8895 O.2       1 RES1    0.0000
      3 O3         5.1682   -2.6136   35.3844 O.2       1 RES1    0.0000
      4 O4         3.3488   -2.3073   36.5348 O.2       1 RES1    0.0000
      5 O5         5.1556    4.9723   40.4663 O.2       2 RES2    0.0000
      6 O6         4.2690    3.0079   40.6451 O.2       2 RES2    0.0000
      7 O7         5.4343   -0.0550   37.1389 O.2       2 RES2    0.0000
      8 O8         7.2663    0.2688   35.9852 O.2       2 RES2    0.0000
      9 N1         3.4286    0.9041   30.0799 N.ar      1 RES1    0.0000
     10 N2         5.4497    1.1971   32.2724 N.pl3     1 RES1    0.0000
     11 N3         4.1079   -2.0323   35.6065 N.pl3     1 RES1    0.0000
     12 N4         4.6766   -0.4312   26.9835 N.ar      1 RES1    0.0000
     13 N5         7.1668    3.4879   42.4291 N.ar      2 RES2    0.0000
     14 N6         5.1584    3.7722   40.2950 N.pl3     2 RES2    0.0000
     15 N7         6.5057    0.5263   36.9240 N.pl3     2 RES2    0.0000
     16 N8         5.8321    2.1696   45.5255 N.ar      2 RES2    0.0000
     17 C1         3.4525    0.6430   28.7604 C.ar      1 RES1    0.0000
     18 C2         2.6317    1.2701   27.8325 C.ar      1 RES1    0.0000
     19 H1         2.6877    1.0696   26.9042 H         1 RES1    0.0000
     20 C3         1.7143    2.2117   28.3224 C.ar      1 RES1    0.0000
     21 H2         1.1135    2.6455   27.7271 H         1 RES1    0.0000
     22 C4         1.6891    2.5067   29.6723 C.ar      1 RES1    0.0000
     23 H3         1.0855    3.1580   30.0111 H         1 RES1    0.0000
     24 C5         2.5505    1.8421   30.5183 C.ar      1 RES1    0.0000
     25 C6         2.5897    2.2050   31.9899 C.3       1 RES1    0.0000
     26 H4         1.6835    2.5026   32.2573 H         1 RES1    0.0000
     27 H5         3.1989    2.9770   32.1020 H         1 RES1    0.0000
     28 C7         3.0337    1.1035   32.9522 C.ar      1 RES1    0.0000
     29 C8         4.3418    0.6132   33.0164 C.ar      1 RES1    0.0000
     30 C9         4.6962   -0.4117   33.8746 C.ar      1 RES1    0.0000
     31 H6         5.5898   -0.7314   33.9073 H         1 RES1    0.0000
     32 C10        3.7270   -0.9565   34.6790 C.ar      1 RES1    0.0000
     33 C11        2.4160   -0.5238   34.6412 C.ar      1 RES1    0.0000
     34 H7         1.7563   -0.9113   35.2047 H         1 RES1    0.0000
     35 C12        2.0883    0.5001   33.7507 C.ar      1 RES1    0.0000
     36 H8         1.1849    0.7900   33.6932 H         1 RES1    0.0000
     37 C13        4.4483   -0.3953   28.3027 C.ar      1 RES1    0.0000
     38 C14        5.0757   -1.2372   29.1726 C.ar      1 RES1    0.0000
     39 H9         4.8951   -1.1632   30.1035 H         1 RES1    0.0000
     40 C15        5.9637   -2.1896   28.7339 C.ar      1 RES1    0.0000
     41 H10        6.3895   -2.7822   29.3435 H         1 RES1    0.0000
     42 C16        6.2130   -2.2538   27.3820 C.ar      1 RES1    0.0000
     43 H11        6.8083   -2.9015   27.0259 H         1 RES1    0.0000
     44 C17        5.5701   -1.3508   26.5649 C.ar      1 RES1    0.0000
     45 H12        5.7732   -1.3770   25.6362 H         1 RES1    0.0000
     46 C18        7.0800    3.2330   43.7617 C.ar      2 RES2    0.0000
     47 C19        7.9007    3.9002   44.6686 C.ar      2 RES2    0.0000
     48 H13        7.8377    3.7012   45.5960 H         2 RES2    0.0000
     49 C20        8.8041    4.8454   44.2328 C.ar      2 RES2    0.0000
     50 H14        9.3629    5.3049   44.8487 H         2 RES2    0.0000
     51 C21        8.8769    5.1121   42.8645 C.ar      2 RES2    0.0000
     52 H15        9.4904    5.7515   42.5227 H         2 RES2    0.0000
     53 C22        8.0142    4.4049   42.0126 C.ar      2 RES2    0.0000
     54 C23        8.0212    4.7827   40.5309 C.3       2 RES2    0.0000
     55 H16        7.4217    5.5593   40.3983 H         2 RES2    0.0000
     56 H17        8.9358    5.0623   40.2765 H         2 RES2    0.0000
     57 C24        7.5898    3.6848   39.6308 C.ar      2 RES2    0.0000
     58 C25        6.2802    3.1765   39.5031 C.ar      2 RES2    0.0000
     59 C26        5.8993    2.1510   38.6529 C.ar      2 RES2    0.0000
     60 H18        5.0043    1.8329   38.6265 H         2 RES2    0.0000
     61 C27        6.8867    1.6072   37.8351 C.ar      2 RES2    0.0000
     62 C28        8.2117    2.0477   37.8737 C.ar      2 RES2    0.0000
     63 H19        8.8699    1.6751   37.2997 H         2 RES2    0.0000
     64 C29        8.5338    3.0536   38.7843 C.ar      2 RES2    0.0000
     65 H20        9.4400    3.3317   38.8406 H         2 RES2    0.0000
     66 C30        6.1052    2.2194   44.2067 C.ar      2 RES2    0.0000
     67 C31        5.5169    1.3328   43.2444 C.ar      2 RES2    0.0000
     68 H21        5.7200    1.3924   42.3170 H         2 RES2    0.0000
     69 C32        4.6191    0.3665   43.7470 C.ar      2 RES2    0.0000
     70 H22        4.2032   -0.2529   43.1567 H         2 RES2    0.0000
     71 C33        4.3432    0.3269   45.1262 C.ar      2 RES2    0.0000
     72 H23        3.7396   -0.3146   45.4785 H         2 RES2    0.0000
     73 C34        4.9749    1.2475   45.9684 C.ar      2 RES2    0.0000
     74 H24        4.7858    1.2146   46.8976 H         2 RES2    0.0000
@<TRIPOS>BOND
     1    1   10 2
     2    2   10 2
     3    3   11 2
     4    4   11 2
     5    5   14 2
     6    6   14 2
     7    7   15 2
     8    8   15 2
     9    9   17 ar
    10   10   29 1
    11   11   32 1
    12   12   37 ar
    13   13   46 ar
    14   14   58 1
    15   15   61 1
    16   16   66 ar
    17   17   18 ar
    18   18   19 1
    19   20   18 ar
    20   21   20 1
    21   22   20 ar
    22   23   22 1
    23   24    9 ar
    24   25   24 1
    25   26   25 1
    26   27   25 1
    27   28   25 1
    28   29   28 ar
    29   30   29 ar
    30   31   30 1
    31   32   30 ar
    32   33   32 ar
    33   34   33 1
    34   35   28 ar
    35   36   35 1
    36   37   17 1
    37   38   37 ar
    38   39   38 1
    39   40   38 ar
    40   41   40 1
    41   42   40 ar
    42   43   42 1
    43   44   12 ar
    44   45   44 1
    45   46   47 ar
    46   47   48 1
    47   49   47 ar
    48   50   49 1
    49   51   49 ar
    50   52   51 1
    51   53   13 ar
    52   54   53 1
    53   55   54 1
    54   56   54 1
    55   57   54 1
    56   58   57 ar
    57   59   58 ar
    58   60   59 1
    59   61   59 ar
    60   62   61 ar
    61   63   62 1
    62   64   57 ar
    63   65   64 1
    64   66   46 1
    65   67   66 ar
    66   68   67 1
    67   69   67 ar
    68   70   69 1
    69   71   69 ar
    70   72   71 1
    71   73   16 ar
    72   74   73 1
    73   22   24 ar
    74   33   35 ar
    75   42   44 ar
    76   51   53 ar
    77   62   64 ar
    78   71   73 ar
@<TRIPOS>SUBSTRUCTURE
     1 RES1 1
     2 RES2 5

@<TRIPOS>CRYSIN
  14.0059    5.1399   41.9853  90.0000  90.0000  90.0000  33 1

