# MOL2 file generated by ConQuest
# Please check atom types

@<TRIPOS>MOLECULE
ZOHBAB
    51    55     1
SMALL
NO_CHARGES
****
Generated from CSD

@<TRIPOS>ATOM
      1 O1         7.7695   -1.7082   10.4436 O.3       1 RES1    0.0000
      2 C1         4.2553   -1.0768    8.1971 C.ar      1 RES1    0.0000
      3 C2         5.7986   -2.6179    9.3819 C.ar      1 RES1    0.0000
      4 C3         5.1166    0.0206    8.4183 C.ar      1 RES1    0.0000
      5 O2         6.9939    0.9342    9.6757 O.3       1 RES1    0.0000
      6 C4         3.0262   -0.8807    7.5258 C.ar      1 RES1    0.0000
      7 C5         4.6446   -2.4078    8.5930 C.ar      1 RES1    0.0000
      8 C6         6.4341   -1.3876    9.9702 C.3       1 RES1    0.0000
      9 H1         5.8979   -1.1088   10.7422 H         1 RES1    0.0000
     10 C7         9.5218   -1.6356   12.0113 C.ar      1 RES1    0.0000
     11 O3         7.4262   -0.5875   12.3640 O.2       1 RES1    0.0000
     12 C8         4.7293    1.2789    8.0160 C.ar      1 RES1    0.0000
     13 H2         5.2919    2.0037    8.1648 H         1 RES1    0.0000
     14 C9         3.8469   -3.5128    8.2118 C.ar      1 RES1    0.0000
     15 C10        6.5066   -0.2142    8.9968 C.3       1 RES1    0.0000
     16 C11        3.4941    1.4765    7.3832 C.ar      1 RES1    0.0000
     17 H3         3.2376    2.3346    7.1310 H         1 RES1    0.0000
     18 C12       11.2069   -1.6420   13.7276 C.ar      1 RES1    0.0000
     19 H4        11.5172   -1.3752   14.5626 H         1 RES1    0.0000
     20 C13        8.1349   -1.2358   11.6387 C.2       1 RES1    0.0000
     21 N1        13.1998   -3.0389   13.4802 N.pl3     1 RES1    0.0000
     22 C14        6.1964   -3.9001    9.6936 C.ar      1 RES1    0.0000
     23 H5         6.9658   -4.0419   10.1964 H         1 RES1    0.0000
     24 C15       11.9444   -2.4873   12.9385 C.ar      1 RES1    0.0000
     25 C16       10.3139   -2.4511   11.2143 C.ar      1 RES1    0.0000
     26 H6        10.0163   -2.7136   10.3732 H         1 RES1    0.0000
     27 C17        2.6645    0.4217    7.1346 C.ar      1 RES1    0.0000
     28 H7         1.8534    0.5647    6.7031 H         1 RES1    0.0000
     29 C18       11.5540   -2.8733   11.6787 C.ar      1 RES1    0.0000
     30 H8        12.1055   -3.4043   11.1509 H         1 RES1    0.0000
     31 C19        2.2217   -2.0199    7.2090 C.ar      1 RES1    0.0000
     32 H9         1.4020   -1.8935    6.7872 H         1 RES1    0.0000
     33 C20        7.5190   -0.5025    7.8674 C.3       1 RES1    0.0000
     34 H10        8.3908   -0.6515    8.2658 H         1 RES1    0.0000
     35 H11        7.2576   -1.3222    7.4207 H         1 RES1    0.0000
     36 C21        9.9925   -1.2004   13.2486 C.ar      1 RES1    0.0000
     37 H12        9.4844   -0.6089   13.7547 H         1 RES1    0.0000
     38 C22        2.6212   -3.2658    7.5070 C.ar      1 RES1    0.0000
     39 H13        2.0918   -3.9861    7.2512 H         1 RES1    0.0000
     40 C23        4.2825   -4.8029    8.5581 C.ar      1 RES1    0.0000
     41 H14        3.7719   -5.5381    8.3079 H         1 RES1    0.0000
     42 C24        7.6448    0.5686    6.8497 C.2       1 RES1    0.0000
     43 H15        7.7215    1.4441    7.1539 H         1 RES1    0.0000
     44 C25        5.4337   -4.9952    9.2492 C.ar      1 RES1    0.0000
     45 H16        5.7212   -5.8602    9.4319 H         1 RES1    0.0000
     46 O4        13.2492   -3.2400   14.6775 O.2       1 RES1    0.0000
     47 O5        14.1106   -3.2439   12.7310 O.2       1 RES1    0.0000
     48 C26        7.6554    0.3751    5.5538 C.2       1 RES1    0.0000
     49 H17        7.5813   -0.4856    5.2112 H         1 RES1    0.0000
     50 H18        7.7375    1.1002    4.9768 H         1 RES1    0.0000
     51 H19        6.4236    1.1280   10.2782 H         1 RES1    0.0000
@<TRIPOS>BOND
     1    1    8 1
     2    2    4 ar
     3    3    7 ar
     4    4   12 ar
     5    5   15 1
     6    6    2 ar
     7    7    2 ar
     8    8    3 1
     9    9    8 1
    10   10   20 1
    11   11   20 2
    12   12   13 1
    13   14    7 ar
    14   15    4 1
    15   16   12 ar
    16   17   16 1
    17   18   19 1
    18   20    1 1
    19   21   24 1
    20   22    3 ar
    21   23   22 1
    22   24   18 ar
    23   25   10 ar
    24   26   25 1
    25   27    6 ar
    26   28   27 1
    27   29   24 ar
    28   30   29 1
    29   31    6 ar
    30   32   31 1
    31   33   15 1
    32   34   33 1
    33   35   33 1
    34   36   10 ar
    35   37   36 1
    36   38   14 ar
    37   39   38 1
    38   40   14 ar
    39   41   40 1
    40   42   33 1
    41   43   42 1
    42   44   22 ar
    43   45   44 1
    44   46   21 2
    45   47   21 2
    46   48   42 2
    47   49   48 1
    48   50   48 1
    49   51    5 1
    50    8   15 1
    51   16   27 ar
    52   18   36 ar
    53   25   29 ar
    54   31   38 ar
    55   40   44 ar
@<TRIPOS>SUBSTRUCTURE
     1 RES1 1

@<TRIPOS>CRYSIN
   8.6817   10.0211   12.9825 109.1820  97.3050  99.8530   2 1

