# MOL2 file generated by ConQuest
# Please check atom types

@<TRIPOS>MOLECULE
ZOHSOE
    20    19     1
SMALL
NO_CHARGES
****
Generated from CSD

@<TRIPOS>ATOM
      1 O1         4.3528   -0.4065    1.3004 O.2       1 RES1    0.0000
      2 O2         2.6668    0.7621    2.0304 O.2       1 RES1    0.0000
      3 N1         3.8003    0.6569    1.5498 N.pl3     1 RES1    0.0000
      4 N2         4.4811    1.7897    1.2964 N.3       1 RES1    0.0000
      5 N3         1.8085    5.7181    0.5573 N.1       1 RES1    0.0000
      6 N4         7.3129    3.1501    3.2601 N.1       1 RES1    0.0000
      7 C1         3.7946    3.0645    1.4781 C.3       1 RES1    0.0000
      8 C2         2.8896    3.3821    0.3009 C.3       1 RES1    0.0000
      9 C3         2.2630    4.6894    0.4432 C.1       1 RES1    0.0000
     10 C4         5.7416    1.6759    0.5846 C.3       1 RES1    0.0000
     11 C5         6.8976    1.3127    1.4892 C.3       1 RES1    0.0000
     12 C6         7.1449    2.3339    2.4979 C.1       1 RES1    0.0000
     13 H1         4.4574    3.7376    1.5427 H         1 RES1    0.0000
     14 H2         3.3159    3.0200    2.3000 H         1 RES1    0.0000
     15 H3         2.2257    2.7566    0.2383 H         1 RES1    0.0000
     16 H4         3.4346    3.4471   -0.4755 H         1 RES1    0.0000
     17 H5         5.6432    1.0114   -0.1292 H         1 RES1    0.0000
     18 H6         5.8978    2.5030    0.1686 H         1 RES1    0.0000
     19 H7         7.7081    1.2217    0.9491 H         1 RES1    0.0000
     20 H8         6.7340    0.5409    1.9395 H         1 RES1    0.0000
@<TRIPOS>BOND
     1    1    3 2
     2    2    3 2
     3    3    4 1
     4    4    7 1
     5    5    9 3
     6    6   12 3
     7    7    8 1
     8    8    9 1
     9   10    4 1
    10   11   10 1
    11   12   11 1
    12   13    7 1
    13   14    7 1
    14   15    8 1
    15   16    8 1
    16   17   10 1
    17   18   10 1
    18   19   11 1
    19   20   11 1
@<TRIPOS>SUBSTRUCTURE
     1 RES1 1

@<TRIPOS>CRYSIN
   7.5170   10.8400   10.1810  90.0000  97.3900  90.0000  14 1

