# MOL2 file generated by ConQuest
# Please check atom types

@<TRIPOS>MOLECULE
ZOKKOB
   146   152     2
SMALL
NO_CHARGES
****
Generated from CSD

@<TRIPOS>ATOM
      1 N1        -1.2247   12.6350   10.1921 N.2       1 RES1    0.0000
      2 O1        -0.0753   12.1069    9.5762 O.3       1 RES1    0.0000
      3 H1         0.4433   11.8034   10.1637 H         1 RES1    0.0000
      4 O2        -2.5313   14.5294   11.9393 O.3       1 RES1    0.0000
      5 O3        -3.4618   16.0302   10.5636 O.2       1 RES1    0.0000
      6 O4        -5.3488   13.1582   11.1364 O.3       1 RES1    0.0000
      7 C1        -2.0567   13.1050    9.3654 C.2       1 RES1    0.0000
      8 C2        -1.9770   13.1813    7.8696 C.3       1 RES1    0.0000
      9 H2        -2.2488   12.3223    7.4590 H         1 RES1    0.0000
     10 H3        -1.0573   13.3989    7.5759 H         1 RES1    0.0000
     11 C3        -2.9531   14.3041    7.4867 C.3       1 RES1    0.0000
     12 C4        -4.0593   14.1578    8.5492 C.3       1 RES1    0.0000
     13 H4        -4.7241   13.4826    8.2616 H         1 RES1    0.0000
     14 H5        -4.5239   15.0218    8.6814 H         1 RES1    0.0000
     15 C5        -3.3726   13.7064    9.8715 C.3       1 RES1    0.0000
     16 C6        -2.2471   15.6608    7.5989 C.3       1 RES1    0.0000
     17 H6        -1.8130   15.7320    8.4738 H         1 RES1    0.0000
     18 H7        -2.9051   16.3810    7.5021 H         1 RES1    0.0000
     19 H8        -1.5729   15.7370    6.8916 H         1 RES1    0.0000
     20 C7        -3.5196   14.1316    6.0736 C.3       1 RES1    0.0000
     21 H9        -4.1606   14.8505    5.8891 H         1 RES1    0.0000
     22 H10       -3.9737   13.2651    6.0075 H         1 RES1    0.0000
     23 H11       -2.7889   14.1691    5.4217 H         1 RES1    0.0000
     24 C8        -4.1722   12.6824   10.6070 C.2       1 RES1    0.0000
     25 C9        -4.0587   11.3695   10.8710 C.2       1 RES1    0.0000
     26 H12       -3.3452   10.7981   10.6111 H         1 RES1    0.0000
     27 C10       -5.2235   10.9994   11.6183 C.2       1 RES1    0.0000
     28 H13       -5.4310   10.1329   11.9473 H         1 RES1    0.0000
     29 C11       -5.9606   12.1035   11.7674 C.2       1 RES1    0.0000
     30 C12       -7.2152   12.4248   12.4886 C.3       1 RES1    0.0000
     31 H14       -7.0116   13.0000   13.2558 H         1 RES1    0.0000
     32 H15       -7.6317   11.5946   12.8038 H         1 RES1    0.0000
     33 H16       -7.8302   12.8900   11.8843 H         1 RES1    0.0000
     34 C13       -3.1386   14.9080   10.8049 C.2       1 RES1    0.0000
     35 C14       -2.1153   15.5982   12.8638 C.3       1 RES1    0.0000
     36 H17       -2.8019   16.3260   12.8684 H         1 RES1    0.0000
     37 C15       -0.8062   16.1359   12.3363 C.3       1 RES1    0.0000
     38 H18       -0.9487   16.5023   11.4276 H         1 RES1    0.0000
     39 H19       -0.1555   15.3932   12.2656 H         1 RES1    0.0000
     40 C16       -0.2220   17.2325   13.2343 C.3       1 RES1    0.0000
     41 H20       -0.8762   17.9877   13.2743 H         1 RES1    0.0000
     42 C17       -0.0662   16.6648   14.6259 C.3       1 RES1    0.0000
     43 H21        0.2611   17.3750   15.2317 H         1 RES1    0.0000
     44 H22        0.6133   15.9446   14.6074 H         1 RES1    0.0000
     45 C18       -1.3668   16.1084   15.1671 C.3       1 RES1    0.0000
     46 H23       -2.0175   16.8474   15.2578 H         1 RES1    0.0000
     47 H24       -1.2046   15.7358   16.0697 H         1 RES1    0.0000
     48 C19       -1.9847   15.0043   14.2733 C.3       1 RES1    0.0000
     49 H25       -1.3271   14.2516   14.2245 H         1 RES1    0.0000
     50 C20        1.0903   17.7639   12.6716 C.3       1 RES1    0.0000
     51 H26        1.7402   17.0324   12.6116 H         1 RES1    0.0000
     52 H27        1.4379   18.4641   13.2620 H         1 RES1    0.0000
     53 H28        0.9346   18.1365   11.7782 H         1 RES1    0.0000
     54 C21       -3.3017   14.4454   14.9196 C.3       1 RES1    0.0000
     55 C22       -3.7842   13.1825   14.1999 C.3       1 RES1    0.0000
     56 H29       -4.0307   13.4051   13.2789 H         1 RES1    0.0000
     57 H30       -4.5657   12.8187   14.6674 H         1 RES1    0.0000
     58 H31       -3.0678   12.5149   14.1953 H         1 RES1    0.0000
     59 C23       -4.4318   15.4807   14.8350 C.3       1 RES1    0.0000
     60 H32       -5.2288   15.1319   15.2886 H         1 RES1    0.0000
     61 H33       -4.6417   15.6583   13.8955 H         1 RES1    0.0000
     62 H34       -4.1467   16.3122   15.2701 H         1 RES1    0.0000
     63 C24       -2.9753   14.0115   16.3864 C.ar      1 RES1    0.0000
     64 C25       -3.6343   14.5767   17.4720 C.ar      1 RES1    0.0000
     65 H35       -4.2779   15.2619   17.3336 H         1 RES1    0.0000
     66 C26       -3.3530   14.1378   18.7607 C.ar      1 RES1    0.0000
     67 H36       -3.8042   14.5242   19.5032 H         1 RES1    0.0000
     68 C27       -2.4130   13.1350   18.9640 C.ar      1 RES1    0.0000
     69 H37       -2.2205   12.8349   19.8446 H         1 RES1    0.0000
     70 C28       -1.7541   12.5699   17.8779 C.ar      1 RES1    0.0000
     71 H38       -1.1109   11.8847   18.0179 H         1 RES1    0.0000
     72 C29       -2.0355   13.0087   16.5897 C.ar      1 RES1    0.0000
     73 H39       -1.5846   12.6224   15.8483 H         1 RES1    0.0000
     74 N2         0.6526   11.9622   12.3044 N.2       2 RES2    0.0000
     75 O5        -0.6485   12.0242   12.8305 O.3       2 RES2    0.0000
     76 H40       -1.1994   12.1285   12.2041 H         2 RES2    0.0000
     77 O6         3.1691   12.5112   10.6316 O.3       2 RES2    0.0000
     78 O7         3.8058   13.9175   12.2582 O.2       2 RES2    0.0000
     79 O8         4.6519   10.0313   12.3407 O.3       2 RES2    0.0000
     80 C30        1.5112   11.7996   13.2089 C.2       2 RES2    0.0000
     81 C31        1.2816   11.7234   14.6898 C.3       2 RES2    0.0000
     82 H41        0.6474   10.9932   14.9042 H         2 RES2    0.0000
     83 H42        0.9077   12.5749   15.0257 H         2 RES2    0.0000
     84 C32        2.6566   11.4470   15.3321 C.3       2 RES2    0.0000
     85 C33        3.6382   11.9622   14.2736 C.3       2 RES2    0.0000
     86 H43        4.4998   11.4783   14.3429 H         2 RES2    0.0000
     87 H44        3.8094   12.9275   14.4060 H         2 RES2    0.0000
     88 C34        2.9965   11.7184   12.8813 C.3       2 RES2    0.0000
     89 C35        2.8182   12.2110   16.6286 C.3       2 RES2    0.0000
     90 H45        2.7267   13.1713   16.4556 H         2 RES2    0.0000
     91 H46        3.7043   12.0310   17.0061 H         2 RES2    0.0000
     92 H47        2.1278   11.9272   17.2644 H         2 RES2    0.0000
     93 C36        2.8368    9.9479   15.5838 C.3       2 RES2    0.0000
     94 H48        2.1331    9.6315   16.1881 H         2 RES2    0.0000
     95 H49        3.7137    9.7891   15.9913 H         2 RES2    0.0000
     96 H50        2.7787    9.4652   14.7335 H         2 RES2    0.0000
     97 C37        3.3115   10.3580   12.3437 C.2       2 RES2    0.0000
     98 C38        2.5984    9.3277   11.8680 C.2       2 RES2    0.0000
     99 H51        1.6538    9.2902   11.7674 H         2 RES2    0.0000
    100 C39        3.5290    8.2986   11.5432 C.2       2 RES2    0.0000
    101 H52        3.3162    7.4459   11.1831 H         2 RES2    0.0000
    102 C40        4.7531    8.7463   11.8360 C.2       2 RES2    0.0000
    103 C41        6.1273    8.2211   11.7075 C.3       2 RES2    0.0000
    104 H53        6.0961    7.3121   11.3430 H         2 RES2    0.0000
    105 H54        6.5544    8.2061   12.5885 H         2 RES2    0.0000
    106 H55        6.6428    8.7975   11.1047 H         2 RES2    0.0000
    107 C42        3.3878   12.8512   11.9040 C.2       2 RES2    0.0000
    108 C43        3.4589   13.5339    9.6043 C.3       2 RES2    0.0000
    109 H56        4.3212   13.9915    9.8254 H         2 RES2    0.0000
    110 C44        2.3291   14.5529    9.6197 C.3       2 RES2    0.0000
    111 H57        1.4619   14.0778    9.5702 H         2 RES2    0.0000
    112 H58        2.3539   15.0556   10.4727 H         2 RES2    0.0000
    113 C45        2.4320   15.5307    8.4585 C.3       2 RES2    0.0000
    114 H59        3.3221   15.9821    8.5138 H         2 RES2    0.0000
    115 C46        2.3835   14.7567    7.1652 C.3       2 RES2    0.0000
    116 H60        2.4342   15.3832    6.3996 H         2 RES2    0.0000
    117 H61        1.5288   14.2616    7.1038 H         2 RES2    0.0000
    118 C47        3.5408   13.7815    7.1007 C.3       2 RES2    0.0000
    119 H62        4.3862   14.2954    7.0715 H         2 RES2    0.0000
    120 H63        3.4726   13.2663    6.2581 H         2 RES2    0.0000
    121 C48        3.6070   12.7924    8.2763 C.3       2 RES2    0.0000
    122 H64        2.8242   12.1773    8.1909 H         2 RES2    0.0000
    123 C49        1.3528   16.6073    8.5507 C.3       2 RES2    0.0000
    124 H65        0.4685   16.1884    8.4877 H         2 RES2    0.0000
    125 H66        1.4635   17.2462    7.8173 H         2 RES2    0.0000
    126 H67        1.4306   17.0762    9.4087 H         2 RES2    0.0000
    127 C50        4.9219   11.9047    8.1525 C.3       2 RES2    0.0000
    128 C51        4.9253   10.7543    9.1535 C.3       2 RES2    0.0000
    129 H68        5.0545   11.1094   10.0576 H         2 RES2    0.0000
    130 H69        5.6539   10.1354    8.9367 H         2 RES2    0.0000
    131 H70        4.0688   10.2805    9.1073 H         2 RES2    0.0000
    132 C52        6.1844   12.7249    8.4046 C.3       2 RES2    0.0000
    133 H71        6.9713   12.1447    8.3293 H         2 RES2    0.0000
    134 H72        6.1496   13.1113    9.3042 H         2 RES2    0.0000
    135 H73        6.2446   13.4439    7.7419 H         2 RES2    0.0000
    136 C53        4.8900   11.2640    6.7183 C.ar      2 RES2    0.0000
    137 C54        5.9733   11.4390    5.8651 C.ar      2 RES2    0.0000
    138 H74        6.6996   11.9935    6.1259 H         2 RES2    0.0000
    139 C55        5.9946   10.8031    4.6293 C.ar      2 RES2    0.0000
    140 H75        6.7348   10.9231    4.0455 H         2 RES2    0.0000
    141 C56        4.9327    9.9919    4.2468 C.ar      2 RES2    0.0000
    142 H76        4.9473    9.5578    3.4028 H         2 RES2    0.0000
    143 C57        3.8493    9.8166    5.1001 C.ar      2 RES2    0.0000
    144 H77        3.1235    9.2627    4.8389 H         2 RES2    0.0000
    145 C58        3.8281   10.4530    6.3358 C.ar      2 RES2    0.0000
    146 H78        3.0883   10.3330    6.9193 H         2 RES2    0.0000
@<TRIPOS>BOND
     1    1    2 1
     2    2    3 1
     3    4   34 1
     4    5   34 2
     5    6   24 1
     6    7    1 2
     7    8    7 1
     8    9    8 1
     9   10    8 1
    10   11    8 1
    11   12   11 1
    12   13   12 1
    13   14   12 1
    14   15    7 1
    15   16   11 1
    16   17   16 1
    17   18   16 1
    18   19   16 1
    19   20   11 1
    20   21   20 1
    21   22   20 1
    22   23   20 1
    23   24   15 1
    24   25   24 2
    25   26   25 1
    26   27   25 1
    27   28   27 1
    28   29    6 1
    29   30   29 1
    30   31   30 1
    31   32   30 1
    32   33   30 1
    33   34   15 1
    34   35    4 1
    35   36   35 1
    36   37   35 1
    37   38   37 1
    38   39   37 1
    39   40   37 1
    40   41   40 1
    41   42   40 1
    42   43   42 1
    43   44   42 1
    44   45   42 1
    45   46   45 1
    46   47   45 1
    47   48   35 1
    48   49   48 1
    49   50   40 1
    50   51   50 1
    51   52   50 1
    52   53   50 1
    53   54   48 1
    54   55   54 1
    55   56   55 1
    56   57   55 1
    57   58   55 1
    58   59   54 1
    59   60   59 1
    60   61   59 1
    61   62   59 1
    62   63   54 1
    63   64   63 ar
    64   65   64 1
    65   66   64 ar
    66   67   66 1
    67   68   66 ar
    68   69   68 1
    69   70   68 ar
    70   71   70 1
    71   72   63 ar
    72   73   72 1
    73   74   75 1
    74   75   76 1
    75   77  107 1
    76   78  107 2
    77   79   97 1
    78   80   74 2
    79   81   80 1
    80   82   81 1
    81   83   81 1
    82   84   81 1
    83   85   84 1
    84   86   85 1
    85   87   85 1
    86   88   80 1
    87   89   84 1
    88   90   89 1
    89   91   89 1
    90   92   89 1
    91   93   84 1
    92   94   93 1
    93   95   93 1
    94   96   93 1
    95   97   88 1
    96   98   97 2
    97   99   98 1
    98  100   98 1
    99  101  100 1
   100  102   79 1
   101  103  102 1
   102  104  103 1
   103  105  103 1
   104  106  103 1
   105  107   88 1
   106  108   77 1
   107  109  108 1
   108  110  108 1
   109  111  110 1
   110  112  110 1
   111  113  110 1
   112  114  113 1
   113  115  113 1
   114  116  115 1
   115  117  115 1
   116  118  115 1
   117  119  118 1
   118  120  118 1
   119  121  108 1
   120  122  121 1
   121  123  113 1
   122  124  123 1
   123  125  123 1
   124  126  123 1
   125  127  121 1
   126  128  127 1
   127  129  128 1
   128  130  128 1
   129  131  128 1
   130  132  127 1
   131  133  132 1
   132  134  132 1
   133  135  132 1
   134  136  127 1
   135  137  136 ar
   136  138  137 1
   137  139  137 ar
   138  140  139 1
   139  141  139 ar
   140  142  141 1
   141  143  141 ar
   142  144  143 1
   143  145  136 ar
   144  146  145 1
   145   12   15 1
   146   27   29 2
   147   45   48 1
   148   70   72 ar
   149   85   88 1
   150  100  102 2
   151  118  121 1
   152  143  145 ar
@<TRIPOS>SUBSTRUCTURE
     1 RES1 1
     2 RES2 74

@<TRIPOS>CRYSIN
  14.2245   12.5036   15.7151  90.0000 101.9201  90.0000   4 1

