# MOL2 file generated by ConQuest
# Please check atom types

@<TRIPOS>MOLECULE
ZOKKUH
    64    67     1
SMALL
NO_CHARGES
****
Generated from CSD

@<TRIPOS>ATOM
      1 C1        18.5373    4.8376    6.5104 C.2       1 RES1    0.0000
      2 C2        19.6248    4.7115    7.5371 C.3       1 RES1    0.0000
      3 H1        19.4998    3.8973    8.0867 H         1 RES1    0.0000
      4 H2        19.6425    5.5021    8.1333 H         1 RES1    0.0000
      5 C3        20.9091    4.6226    6.7103 C.3       1 RES1    0.0000
      6 H3        21.6753    5.0146    7.1993 H         1 RES1    0.0000
      7 H4        21.1206    3.6829    6.4806 H         1 RES1    0.0000
      8 C4        20.5858    5.4327    5.4588 C.3       1 RES1    0.0000
      9 H5        21.1997    5.1979    4.7168 H         1 RES1    0.0000
     10 H6        20.6556    6.4042    5.6385 H         1 RES1    0.0000
     11 C5        19.1342    5.0385    5.1192 C.3       1 RES1    0.0000
     12 C6        19.1008    3.7374    4.3876 C.2       1 RES1    0.0000
     13 C7        18.6011    2.5308    4.6463 C.2       1 RES1    0.0000
     14 H7        18.0661    2.2871    5.3929 H         1 RES1    0.0000
     15 C8        19.0239    1.6736    3.5868 C.2       1 RES1    0.0000
     16 H8        18.8303    0.7490    3.4892 H         1 RES1    0.0000
     17 C9        19.7376    2.4246    2.7700 C.2       1 RES1    0.0000
     18 H9        20.1468    2.1119    1.9709 H         1 RES1    0.0000
     19 C10       18.4356    6.1453    4.3285 C.2       1 RES1    0.0000
     20 C11       16.3630    6.8980    3.4282 C.3       1 RES1    0.0000
     21 H10       16.8843    7.3462    2.7006 H         1 RES1    0.0000
     22 C12       16.0342    7.8994    4.5276 C.3       1 RES1    0.0000
     23 H11       16.8765    8.2892    4.8704 H         1 RES1    0.0000
     24 H12       15.5938    7.4236    5.2764 H         1 RES1    0.0000
     25 C13       15.1237    9.0258    4.0528 C.3       1 RES1    0.0000
     26 H13       15.6026    9.5409    3.3425 H         1 RES1    0.0000
     27 C14       13.8758    8.4247    3.4455 C.3       1 RES1    0.0000
     28 H14       13.3173    9.1468    3.0613 H         1 RES1    0.0000
     29 H15       13.3499    7.9761    4.1544 H         1 RES1    0.0000
     30 C15       14.2177    7.4197    2.3588 C.3       1 RES1    0.0000
     31 H16       14.6835    7.8889    1.6225 H         1 RES1    0.0000
     32 H17       13.3786    7.0438    1.9929 H         1 RES1    0.0000
     33 C16       15.1029    6.2689    2.8546 C.3       1 RES1    0.0000
     34 H18       14.6204    5.8419    3.6195 H         1 RES1    0.0000
     35 C17       14.7964    9.9752    5.1960 C.3       1 RES1    0.0000
     36 H19       14.3587    9.4777    5.9183 H         1 RES1    0.0000
     37 H20       14.1954   10.6795    4.8745 H         1 RES1    0.0000
     38 H21       15.6236   10.3788    5.5315 H         1 RES1    0.0000
     39 C18       15.2707    5.1693    1.7542 C.3       1 RES1    0.0000
     40 C19       16.1041    3.9702    2.2312 C.3       1 RES1    0.0000
     41 H22       15.9898    3.2239    1.6061 H         1 RES1    0.0000
     42 H23       15.8047    3.6980    3.1230 H         1 RES1    0.0000
     43 H24       17.0500    4.2238    2.2685 H         1 RES1    0.0000
     44 C20       15.9631    5.7200    0.5021 C.3       1 RES1    0.0000
     45 H25       15.4209    6.4406    0.1193 H         1 RES1    0.0000
     46 H26       16.0651    5.0022   -0.1577 H         1 RES1    0.0000
     47 H27       16.8469    6.0688    0.7434 H         1 RES1    0.0000
     48 C21       13.8547    4.6751    1.4562 C.ar      1 RES1    0.0000
     49 C22       13.1496    4.9905    0.3116 C.ar      1 RES1    0.0000
     50 H28       13.5691    5.5039   -0.3703 H         1 RES1    0.0000
     51 C23       11.8294    4.5654    0.1417 C.ar      1 RES1    0.0000
     52 H29       11.3582    4.7984   -0.6487 H         1 RES1    0.0000
     53 C24       11.2082    3.8146    1.1075 C.ar      1 RES1    0.0000
     54 H30       10.3123    3.5219    0.9875 H         1 RES1    0.0000
     55 C25       11.8911    3.4925    2.2396 C.ar      1 RES1    0.0000
     56 H31       11.4695    2.9730    2.9132 H         1 RES1    0.0000
     57 C26       13.1902    3.9140    2.4157 C.ar      1 RES1    0.0000
     58 H32       13.6469    3.6793    3.2149 H         1 RES1    0.0000
     59 N1        17.2887    4.7875    6.6862 N.2       1 RES1    0.0000
     60 O1        16.9633    4.5867    8.0372 O.3       1 RES1    0.0000
     61 H33       16.1306    4.6445    8.1361 H         1 RES1    0.0000
     62 O2        17.1720    5.8444    4.0492 O.3       1 RES1    0.0000
     63 O3        18.9741    7.1678    4.0224 O.2       1 RES1    0.0000
     64 O4        19.8108    3.7119    3.2248 O.3       1 RES1    0.0000
@<TRIPOS>BOND
     1    1    2 1
     2    2    3 1
     3    4    2 1
     4    5    2 1
     5    6    5 1
     6    7    5 1
     7    8    5 1
     8    9    8 1
     9   10    8 1
    10   11    1 1
    11   12   11 1
    12   13   12 2
    13   14   13 1
    14   15   13 1
    15   16   15 1
    16   17   15 2
    17   18   17 1
    18   19   11 1
    19   20   21 1
    20   22   20 1
    21   23   22 1
    22   24   22 1
    23   25   22 1
    24   26   25 1
    25   27   25 1
    26   28   27 1
    27   29   27 1
    28   30   27 1
    29   31   30 1
    30   32   30 1
    31   33   20 1
    32   34   33 1
    33   35   25 1
    34   36   35 1
    35   37   35 1
    36   38   35 1
    37   39   33 1
    38   40   39 1
    39   41   40 1
    40   42   40 1
    41   43   40 1
    42   44   39 1
    43   45   44 1
    44   46   44 1
    45   47   44 1
    46   48   39 1
    47   49   48 ar
    48   50   49 1
    49   51   49 ar
    50   52   51 1
    51   53   51 ar
    52   54   53 1
    53   55   53 ar
    54   56   55 1
    55   57   48 ar
    56   58   57 1
    57   59    1 2
    58   60   59 1
    59   61   60 1
    60   62   19 1
    61   63   19 2
    62   64   12 1
    63    8   11 1
    64   17   64 1
    65   20   62 1
    66   30   33 1
    67   55   57 ar
@<TRIPOS>SUBSTRUCTURE
     1 RES1 1

@<TRIPOS>CRYSIN
  19.4270    8.8959   15.4773  90.0000 117.6040  90.0000   5 1

