# MOL2 file generated by ConQuest
# Please check atom types

@<TRIPOS>MOLECULE
ZOKREY
    80    82     2
SMALL
NO_CHARGES
****
Generated from CSD

@<TRIPOS>ATOM
      1 O1         6.2315    2.3869    4.4723 O.3       1 RES1    0.0000
      2 N1        12.1898    1.7869    6.3171 N.2       1 RES1    0.0000
      3 C1        17.7852    1.9883    7.1880 C.3       1 RES1    0.0000
      4 N2        11.6771    1.5199    5.1350 N.3       1 RES1    0.0000
      5 C2        16.1130    3.5660    6.2564 C.3       1 RES1    0.0000
      6 N3        10.4948    1.3910    2.4524 N.pl3     1 RES1    0.0000
      7 C3        16.3098    2.1792    6.8433 C.3       1 RES1    0.0000
      8 C4        15.4526    1.9876    8.0841 C.3       1 RES1    0.0000
      9 O2        14.0401    0.8488    4.3493 O.2       1 RES1    0.0000
     10 C5        13.9649    1.9876    7.8699 C.2       1 RES1    0.0000
     11 O3        11.6763    1.1004    2.5471 O.2       1 RES1    0.0000
     12 C6        13.4828    1.6335    6.5005 C.2       1 RES1    0.0000
     13 C7        14.4291    1.1778    5.4702 C.2       1 RES1    0.0000
     14 O4        13.1964    2.2635    8.7636 O.2       1 RES1    0.0000
     15 C8        15.8855    1.1178    5.8186 C.3       1 RES1    0.0000
     16 C9        10.3135    1.7116    4.9233 C.ar      1 RES1    0.0000
     17 O5         9.9358    1.4412    1.3744 O.2       1 RES1    0.0000
     18 C10        9.4493    1.9646    6.0019 C.ar      1 RES1    0.0000
     19 C11        8.1224    2.1694    5.8279 C.ar      1 RES1    0.0000
     20 C12        7.5550    2.1228    4.5436 C.ar      1 RES1    0.0000
     21 C13        8.3634    1.8628    3.4598 C.ar      1 RES1    0.0000
     22 C14        9.7268    1.6579    3.6584 C.ar      1 RES1    0.0000
     23 C15        5.6060    2.3046    3.1934 C.3       1 RES1    0.0000
     24 H1         6.0420    2.9200    2.4966 H         1 RES1    0.0000
     25 H2        15.6494    2.6622    8.7381 H         1 RES1    0.0000
     26 H3         7.4873    2.3276    6.6514 H         1 RES1    0.0000
     27 H4        15.6995    1.1011    8.4959 H         1 RES1    0.0000
     28 H5        16.4290    4.2093    6.8936 H         1 RES1    0.0000
     29 H6        16.6085    3.6308    5.4403 H         1 RES1    0.0000
     30 H7        12.1989    1.1987    4.4156 H         1 RES1    0.0000
     31 H8        18.0382    2.6482    7.8252 H         1 RES1    0.0000
     32 H9         7.9846    1.8189    2.5711 H         1 RES1    0.0000
     33 H10       16.0345    0.2369    6.2415 H         1 RES1    0.0000
     34 H11       15.1840    3.7702    6.1111 H         1 RES1    0.0000
     35 H12       18.2969    2.1952    6.4092 H         1 RES1    0.0000
     36 H13       16.3745    1.2475    4.9559 H         1 RES1    0.0000
     37 H14        5.8072    1.4774    2.7388 H         1 RES1    0.0000
     38 H15        9.8571    1.9931    6.8563 H         1 RES1    0.0000
     39 H16        4.6541    2.5437    3.3723 H         1 RES1    0.0000
     40 H17       17.9137    1.0314    7.4153 H         1 RES1    0.0000
     41 O6        -0.0446    1.5297    4.8154 O.3       2 RES2    0.0000
     42 O7        -7.7250    3.0887    2.7679 O.2       2 RES2    0.0000
     43 O8        -5.5357    1.2419   -0.9791 O.2       2 RES2    0.0000
     44 N4        -1.5624    1.2677    0.2435 N.pl3     2 RES2    0.0000
     45 N5        -4.2839    1.7416    1.2466 N.3       2 RES2    0.0000
     46 N6        -5.4393    2.1360    1.7402 N.2       2 RES2    0.0000
     47 O9        -0.3921    1.1743   -0.0835 O.2       2 RES2    0.0000
     48 O10       -2.4678    1.1952   -0.5733 O.2       2 RES2    0.0000
     49 C16        1.2906    1.2816    4.3765 C.3       2 RES2    0.0000
     50 C17       -1.0154    1.5652    3.8734 C.ar      2 RES2    0.0000
     51 C18       -3.3495    1.8781    3.4759 C.ar      2 RES2    0.0000
     52 C19       -2.3018    1.8126    4.3430 C.ar      2 RES2    0.0000
     53 C20       -3.1825    1.6886    2.0983 C.ar      2 RES2    0.0000
     54 C21       -9.0238    2.5172    0.8608 C.3       2 RES2    0.0000
     55 C22       -7.7478    2.6064    1.6541 C.2       2 RES2    0.0000
     56 C23       -6.5128    2.1039    0.9835 C.2       2 RES2    0.0000
     57 C24       -0.7970    1.3750    2.5320 C.ar      2 RES2    0.0000
     58 C25       -1.8796    1.4426    1.6576 C.ar      2 RES2    0.0000
     59 C26       -9.0692    1.3896   -0.1476 C.3       2 RES2    0.0000
     60 C27       -6.5446    1.6105   -0.3965 C.2       2 RES2    0.0000
     61 C28       -7.8798    1.5527   -1.0955 C.3       2 RES2    0.0000
     62 C29      -10.3610    1.4837   -0.9595 C.3       2 RES2    0.0000
     63 C30       -9.0096    0.0467    0.5496 C.3       2 RES2    0.0000
     64 H18       -7.9111    0.8502   -1.7327 H         2 RES2    0.0000
     65 H19        1.5830    1.9792    3.6704 H         2 RES2    0.0000
     66 H20       -9.7652    2.5437    1.4532 H         2 RES2    0.0000
     67 H21       -9.1161    3.3869    0.3689 H         2 RES2    0.0000
     68 H22        1.3666    0.3485    3.9685 H         2 RES2    0.0000
     69 H23        0.0957    1.2335    2.1612 H         2 RES2    0.0000
     70 H24       -9.7615   -0.1324    1.1365 H         2 RES2    0.0000
     71 H25       -8.2560   -0.0418    1.1738 H         2 RES2    0.0000
     72 H26       -4.2031    1.4635    0.3913 H         2 RES2    0.0000
     73 H27       -2.4266    1.9653    5.2354 H         2 RES2    0.0000
     74 H28       -8.0196    2.4392   -1.5278 H         2 RES2    0.0000
     75 H29       -4.2301    2.0349    3.8567 H         2 RES2    0.0000
     76 H30      -10.5102    2.3904   -1.3787 H         2 RES2    0.0000
     77 H31      -10.5069    0.7248   -1.6023 H         2 RES2    0.0000
     78 H32      -11.0755    1.3590   -0.4472 H         2 RES2    0.0000
     79 H33        1.7964    1.2962    5.1050 H         2 RES2    0.0000
     80 H34       -9.0948   -0.7108    0.0000 H         2 RES2    0.0000
@<TRIPOS>BOND
     1    1   20 1
     2    2    4 1
     3    3    7 1
     4    4   16 1
     5    5    7 1
     6    6   11 2
     7    7    8 1
     8    8   10 1
     9    9   13 2
    10   10   12 1
    11   12    2 2
    12   13   12 1
    13   14   10 2
    14   15    7 1
    15   16   18 ar
    16   17    6 2
    17   18   19 ar
    18   19   20 ar
    19   20   21 ar
    20   21   22 ar
    21   22    6 1
    22   23    1 1
    23   24   23 1
    24   25    8 1
    25   26   19 1
    26   27    8 1
    27   28    5 1
    28   29    5 1
    29   30    4 1
    30   31    3 1
    31   32   21 1
    32   33   15 1
    33   34    5 1
    34   35    3 1
    35   36   15 1
    36   37   23 1
    37   38   18 1
    38   39   23 1
    39   40    3 1
    40   41   49 1
    41   42   55 2
    42   43   60 2
    43   44   47 2
    44   45   46 1
    45   46   56 2
    46   48   44 2
    47   49   65 1
    48   50   41 1
    49   51   52 ar
    50   52   50 ar
    51   53   45 1
    52   54   55 1
    53   55   56 1
    54   56   60 1
    55   57   50 ar
    56   58   44 1
    57   59   54 1
    58   60   61 1
    59   61   59 1
    60   62   59 1
    61   63   59 1
    62   64   61 1
    63   66   54 1
    64   67   54 1
    65   68   49 1
    66   69   57 1
    67   70   63 1
    68   71   63 1
    69   72   45 1
    70   73   52 1
    71   74   61 1
    72   75   51 1
    73   76   62 1
    74   77   62 1
    75   78   62 1
    76   79   49 1
    77   80   63 1
    78   13   15 1
    79   16   22 ar
    80   51   53 ar
    81   53   58 ar
    82   57   58 ar
@<TRIPOS>SUBSTRUCTURE
     1 RES1 1
     2 RES2 41

@<TRIPOS>CRYSIN
  23.3800    6.9690   19.9370  90.0000 110.8510  90.0000   9 1

