# MOL2 file generated by ConQuest
# Please check atom types

@<TRIPOS>MOLECULE
ZOLZUV
    28    29     1
SMALL
NO_CHARGES
****
Generated from CSD

@<TRIPOS>ATOM
      1 N1         3.3716   -0.9684    3.4145 N.3       1 RES1    0.0000
      2 N2         2.7510    0.1205    2.8032 N.pl3     1 RES1    0.0000
      3 O1         2.4091    1.1520    3.5029 O.2       1 RES1    0.0000
      4 C1         2.6472   -0.1354    1.4900 C.2       1 RES1    0.0000
      5 C2         3.2612   -1.4010    1.2780 C.2       1 RES1    0.0000
      6 N3         3.4891   -2.6539   -0.9564 N.1       1 RES1    0.0000
      7 C3         3.3807   -2.0940    0.0362 C.1       1 RES1    0.0000
      8 C4         3.7108   -1.8691    2.4826 C.2       1 RES1    0.0000
      9 N4         3.8738   -0.8445    4.6808 N.am      1 RES1    0.0000
     10 C5         5.0550   -0.1342    4.8129 C.2       1 RES1    0.0000
     11 O2         5.6776    0.2283    3.8405 O.2       1 RES1    0.0000
     12 C6         5.4567    0.0929    6.2368 C.3       1 RES1    0.0000
     13 C7         2.0055    0.7814    0.5400 C.ar      1 RES1    0.0000
     14 C8         0.8779    1.5169    0.8797 C.ar      1 RES1    0.0000
     15 C9         0.2678    2.3373   -0.0596 C.ar      1 RES1    0.0000
     16 C10        0.7904    2.4325   -1.3441 C.ar      1 RES1    0.0000
     17 C11        1.9133    1.7131   -1.6796 C.ar      1 RES1    0.0000
     18 C12        2.5250    0.8824   -0.7551 C.ar      1 RES1    0.0000
     19 H1         4.2113   -2.7308    2.6306 H         1 RES1    0.0000
     20 H2         3.4083   -1.2392    5.4743 H         1 RES1    0.0000
     21 H3         5.2303    1.0212    6.5074 H         1 RES1    0.0000
     22 H4         6.4435   -0.0459    6.3370 H         1 RES1    0.0000
     23 H5         4.9755   -0.5393    6.8375 H         1 RES1    0.0000
     24 H6         0.4831    1.4343    1.8106 H         1 RES1    0.0000
     25 H7        -0.5569    2.8800    0.1917 H         1 RES1    0.0000
     26 H8         0.3490    3.0177   -2.0236 H         1 RES1    0.0000
     27 H9         2.3095    1.8129   -2.6093 H         1 RES1    0.0000
     28 H10        3.3397    0.3327   -1.0118 H         1 RES1    0.0000
@<TRIPOS>BOND
     1    1    2 1
     2    2    3 1
     3    4    2 2
     4    5    4 1
     5    6    7 3
     6    7    5 1
     7    8    1 1
     8    9    1 1
     9   10    9 1
    10   11   10 2
    11   12   10 1
    12   13    4 1
    13   14   13 ar
    14   15   14 ar
    15   16   15 ar
    16   17   16 ar
    17   18   13 ar
    18   19    8 1
    19   20    9 1
    20   21   12 1
    21   22   12 1
    22   23   12 1
    23   24   14 1
    24   25   15 1
    25   26   16 1
    26   27   17 1
    27   28   18 1
    28    5    8 2
    29   17   18 ar
@<TRIPOS>SUBSTRUCTURE
     1 RES1 1

@<TRIPOS>CRYSIN
   9.5050   11.4740   11.5770  90.0000 113.0800  90.0000  14 1

