# MOL2 file generated by ConQuest
# Please check atom types

@<TRIPOS>MOLECULE
ZOMGAJ
    52    55     1
SMALL
NO_CHARGES
****
Generated from CSD

@<TRIPOS>ATOM
      1 O1         1.5565    3.3692    7.7155 O.3       1 RES1    0.0000
      2 C1         2.9752    3.4236    7.5716 C.3       1 RES1    0.0000
      3 N1         3.5858    4.6548    8.0554 N.3       1 RES1    0.0000
      4 C2         3.1821    4.9302    9.4487 C.3       1 RES1    0.0000
      5 C3         1.6594    4.9243    9.5666 C.3       1 RES1    0.0000
      6 C4         1.0616    3.6240    9.0552 C.3       1 RES1    0.0000
      7 C5         1.3332    2.4346    9.9724 C.3       1 RES1    0.0000
      8 C6         0.5980    1.1791    9.5575 C.3       1 RES1    0.0000
      9 N2        -0.8424    1.4295    9.4794 N.3       1 RES1    0.0000
     10 C7        -1.1288    2.4530    8.4826 C.3       1 RES1    0.0000
     11 C8        -0.4415    3.7569    8.8654 C.3       1 RES1    0.0000
     12 C9        -1.5676    0.1880    9.1777 C.3       1 RES1    0.0000
     13 C10        3.2903    3.2826    6.1078 C.ar      1 RES1    0.0000
     14 C11        2.3401    3.4970    5.1309 C.ar      1 RES1    0.0000
     15 C12        2.6655    3.4786    3.7942 C.ar      1 RES1    0.0000
     16 C13        3.9652    3.2209    3.4374 C.ar      1 RES1    0.0000
     17 C14        4.9272    2.9441    4.3898 C.ar      1 RES1    0.0000
     18 C15        4.5835    2.9941    5.7112 C.ar      1 RES1    0.0000
     19 C16        3.7949    6.2312    9.9556 C.ar      1 RES1    0.0000
     20 C17        4.5287    7.1004    9.1762 C.ar      1 RES1    0.0000
     21 C18        5.1014    8.2304    9.7213 C.ar      1 RES1    0.0000
     22 C19        4.9477    8.5329   11.0488 C.ar      1 RES1    0.0000
     23 C20        4.2016    7.6805   11.8343 C.ar      1 RES1    0.0000
     24 C21        3.6302    6.5542   11.2999 C.ar      1 RES1    0.0000
     25 N3         4.3458    3.2275    2.0135 N.pl3     1 RES1    0.0000
     26 O2         3.4645    3.4412    1.1943 O.2       1 RES1    0.0000
     27 O3         5.5025    3.0139    1.7302 O.2       1 RES1    0.0000
     28 H1         3.3394    2.7143    8.1059 H         1 RES1    0.0000
     29 H2         3.3053    5.3839    7.4981 H         1 RES1    0.0000
     30 H3         3.5206    4.2319   10.0137 H         1 RES1    0.0000
     31 H4         1.3057    5.6533    9.0506 H         1 RES1    0.0000
     32 H5         1.4190    5.0366   10.4884 H         1 RES1    0.0000
     33 H6         1.0596    2.6673   10.8635 H         1 RES1    0.0000
     34 H7         2.2757    2.2525    9.9647 H         1 RES1    0.0000
     35 H8         0.7643    0.4875   10.2021 H         1 RES1    0.0000
     36 H9         0.9172    0.8979    8.6954 H         1 RES1    0.0000
     37 H10       -0.8066    2.1622    7.6267 H         1 RES1    0.0000
     38 H11       -2.0777    2.5954    8.4351 H         1 RES1    0.0000
     39 H12       -0.8245    4.0711    9.6876 H         1 RES1    0.0000
     40 H13       -0.6039    4.4001    8.1702 H         1 RES1    0.0000
     41 H14       -1.3642   -0.4714    9.8468 H         1 RES1    0.0000
     42 H15       -1.2989   -0.1373    8.3157 H         1 RES1    0.0000
     43 H16       -2.5121    0.3612    9.1762 H         1 RES1    0.0000
     44 H17        1.4294    3.6637    5.3897 H         1 RES1    0.0000
     45 H18        1.9972    3.6424    3.1251 H         1 RES1    0.0000
     46 H19        5.8221    2.7202    4.1280 H         1 RES1    0.0000
     47 H20        5.2528    2.8259    6.3773 H         1 RES1    0.0000
     48 H21        4.6419    6.9162    8.2422 H         1 RES1    0.0000
     49 H22        5.6170    8.8148    9.1609 H         1 RES1    0.0000
     50 H23        5.3501    9.3199   11.4224 H         1 RES1    0.0000
     51 H24        4.0789    7.8772   12.7668 H         1 RES1    0.0000
     52 H25        3.1091    5.9779   11.8618 H         1 RES1    0.0000
@<TRIPOS>BOND
     1    1    2 1
     2    2    3 1
     3    3    4 1
     4    4    5 1
     5    5    6 1
     6    6    1 1
     7    7    6 1
     8    8    7 1
     9    9    8 1
    10   10    9 1
    11   11    6 1
    12   12    9 1
    13   13    2 1
    14   14   13 ar
    15   15   14 ar
    16   16   15 ar
    17   17   16 ar
    18   18   13 ar
    19   19    4 1
    20   20   19 ar
    21   21   20 ar
    22   22   21 ar
    23   23   22 ar
    24   24   19 ar
    25   25   16 1
    26   26   25 2
    27   27   25 2
    28   28    2 1
    29   29    3 1
    30   30    4 1
    31   31    5 1
    32   32    5 1
    33   33    7 1
    34   34    7 1
    35   35    8 1
    36   36    8 1
    37   37   10 1
    38   38   10 1
    39   39   11 1
    40   40   11 1
    41   41   12 1
    42   42   12 1
    43   43   12 1
    44   44   14 1
    45   45   15 1
    46   46   17 1
    47   47   18 1
    48   48   20 1
    49   49   21 1
    50   50   22 1
    51   51   23 1
    52   52   24 1
    53   10   11 1
    54   17   18 ar
    55   23   24 ar
@<TRIPOS>SUBSTRUCTURE
     1 RES1 1

@<TRIPOS>CRYSIN
  16.8440    7.3420   16.1870  90.0000 108.9300  90.0000 231 1

