# MOL2 file generated by ConQuest
# Please check atom types

@<TRIPOS>MOLECULE
ZOPZEL
    86    89     1
SMALL
NO_CHARGES
****
Generated from CSD

@<TRIPOS>ATOM
      1 O1         4.2724    2.4791   14.8555 O.3       1 RES1    0.0000
      2 O2         4.5793    5.8209   17.8077 O.2       1 RES1    0.0000
      3 O3         3.4296    5.4303   19.6912 O.3       1 RES1    0.0000
      4 O4         2.5678    2.0977   19.6845 O.2       1 RES1    0.0000
      5 O5         1.8000    3.6138   18.2260 O.3       1 RES1    0.0000
      6 O6         6.9267    0.7272   19.9158 O.2       1 RES1    0.0000
      7 C1         4.1480    3.5237   18.5027 C.3       1 RES1    0.0000
      8 C2         5.2517    2.9505   19.4771 C.3       1 RES1    0.0000
      9 C3         6.4417    2.6416   18.5806 C.3       1 RES1    0.0000
     10 C4         5.7711    2.0839   17.3126 C.3       1 RES1    0.0000
     11 C5         4.6271    3.0753   17.0692 C.3       1 RES1    0.0000
     12 C6         3.5819    2.5445   16.1084 C.3       1 RES1    0.0000
     13 C7         3.1029    2.8535   12.8398 C.3       1 RES1    0.0000
     14 C8         2.2980    2.1116   11.7517 C.3       1 RES1    0.0000
     15 C9         3.0464    0.9514   11.1608 C.3       1 RES1    0.0000
     16 C10        3.4208   -0.0185   12.2601 C.3       1 RES1    0.0000
     17 C11        4.2139    0.6271   13.4112 C.3       1 RES1    0.0000
     18 C12        4.2781    3.6261   12.2260 C.3       1 RES1    0.0000
     19 C13        2.1755    3.8565   13.5144 C.3       1 RES1    0.0000
     20 C14        4.2198   -0.3505   14.5811 C.3       1 RES1    0.0000
     21 C15        5.6712    0.8775   12.9995 C.3       1 RES1    0.0000
     22 C16        7.3763    1.6070   19.1940 C.2       1 RES1    0.0000
     23 C17        5.5769    3.7525   20.7132 C.ar      1 RES1    0.0000
     24 C18        5.1296    3.3057   21.9505 C.ar      1 RES1    0.0000
     25 C19        5.3878    4.0198   23.1035 C.ar      1 RES1    0.0000
     26 C20        6.1082    5.1985   23.0480 C.ar      1 RES1    0.0000
     27 C21        6.5751    5.6507   21.8322 C.ar      1 RES1    0.0000
     28 C22        6.3321    4.9311   20.6717 C.ar      1 RES1    0.0000
     29 C23        4.0774    5.0452   18.5903 C.2       1 RES1    0.0000
     30 C24        3.4573    6.8555   19.9979 C.3       1 RES1    0.0000
     31 C25        2.8673    7.0104   21.3619 C.3       1 RES1    0.0000
     32 C26        2.7699    2.9767   18.8979 C.2       1 RES1    0.0000
     33 C27        0.4203    3.2363   18.5226 C.3       1 RES1    0.0000
     34 C28       -0.3258    3.1963   17.2308 C.3       1 RES1    0.0000
     35 C29        8.8565    1.6648   18.9054 C.ar      1 RES1    0.0000
     36 C30        9.3934    2.5222   17.9650 C.ar      1 RES1    0.0000
     37 C31       10.7556    2.5276   17.7410 C.ar      1 RES1    0.0000
     38 C32       11.5963    1.7095   18.4573 C.ar      1 RES1    0.0000
     39 C33       11.0610    0.8520   19.3872 C.ar      1 RES1    0.0000
     40 C34        9.6918    0.7966   19.6020 C.ar      1 RES1    0.0000
     41 N1         3.4539    1.8204   13.8552 N.3       1 RES1    0.0000
     42 H1         4.9196    2.0839   19.7925 H         1 RES1    0.0000
     43 H2         4.6352    2.5022   21.9998 H         1 RES1    0.0000
     44 H3         5.0883    3.7086   23.9344 H         1 RES1    0.0000
     45 H4         6.2655    5.6876   23.8358 H         1 RES1    0.0000
     46 H5         7.0701    6.4534   21.7683 H         1 RES1    0.0000
     47 H6         6.6497    5.2424   19.8406 H         1 RES1    0.0000
     48 H7         6.9138    3.4697   18.3691 H         1 RES1    0.0000
     49 H8         9.3243    0.1880   20.2372 H         1 RES1    0.0000
     50 H9        11.6203    0.2758   19.8773 H         1 RES1    0.0000
     51 H10       12.5340    1.7372   18.3049 H         1 RES1    0.0000
     52 H11       11.1124    3.0992   17.0832 H         1 RES1    0.0000
     53 H12        8.8362    3.1146   17.4889 H         1 RES1    0.0000
     54 H13        5.4402    1.1802   17.5095 H         1 RES1    0.0000
     55 H14        6.3489    2.0523   16.5331 H         1 RES1    0.0000
     56 H15        4.9964    3.8834   16.6408 H         1 RES1    0.0000
     57 H16        3.2865    1.6532   16.3795 H         1 RES1    0.0000
     58 H17        2.8114    3.1262   16.0357 H         1 RES1    0.0000
     59 H18        4.6342   -1.1895   14.3097 H         1 RES1    0.0000
     60 H19        3.3118   -0.5262   14.8736 H         1 RES1    0.0000
     61 H20        4.6926    0.0316   15.3435 H         1 RES1    0.0000
     62 H21        2.5915   -0.3474   12.6686 H         1 RES1    0.0000
     63 H22        3.9128   -0.7727   11.9053 H         1 RES1    0.0000
     64 H23        2.5007    0.4892   10.5002 H         1 RES1    0.0000
     65 H24        3.8471    1.2657   10.7134 H         1 RES1    0.0000
     66 H25        2.0938    2.7471   11.0274 H         1 RES1    0.0000
     67 H26        1.4735    1.7919   12.1781 H         1 RES1    0.0000
     68 H27        1.8147    4.4366   12.8267 H         1 RES1    0.0000
     69 H28        1.4591    3.3873   13.9636 H         1 RES1    0.0000
     70 H29        2.6735    4.3903   14.1630 H         1 RES1    0.0000
     71 H30        3.9309    4.4204   11.7838 H         1 RES1    0.0000
     72 H31        4.7270    3.0638   11.5752 H         1 RES1    0.0000
     73 H32        4.8833    3.8726   12.9390 H         1 RES1    0.0000
     74 H33        6.1530    0.0324   12.9826 H         1 RES1    0.0000
     75 H34        5.7113    1.2911   12.1276 H         1 RES1    0.0000
     76 H35        6.0896    1.4622   13.6496 H         1 RES1    0.0000
     77 H36        0.4157    2.3543   18.9627 H         1 RES1    0.0000
     78 H37        0.0462    3.8896   19.1438 H         1 RES1    0.0000
     79 H38       -1.2531    3.0098   17.3789 H         1 RES1    0.0000
     80 H39        0.0306    2.5006   16.6523 H         1 RES1    0.0000
     81 H40       -0.2582    4.0514   16.7669 H         1 RES1    0.0000
     82 H41        2.9610    7.3547   19.3043 H         1 RES1    0.0000
     83 H42        4.3879    7.1660   19.9965 H         1 RES1    0.0000
     84 H43        2.9024    7.9410   21.6078 H         1 RES1    0.0000
     85 H44        1.9497    6.7207   21.3465 H         1 RES1    0.0000
     86 H45        3.3528    6.4950   22.0250 H         1 RES1    0.0000
@<TRIPOS>BOND
     1    1   12 1
     2    2   29 2
     3    3   29 1
     4    4   32 2
     5    5   32 1
     6    6   22 2
     7    7    8 1
     8    8    9 1
     9    9   10 1
    10   10   11 1
    11   11    7 1
    12   12   11 1
    13   13   14 1
    14   14   15 1
    15   15   16 1
    16   16   17 1
    17   17   20 1
    18   18   13 1
    19   19   13 1
    20   20   59 1
    21   21   17 1
    22   22    9 1
    23   23    8 1
    24   24   23 ar
    25   25   24 ar
    26   26   25 ar
    27   27   26 ar
    28   28   23 ar
    29   29    7 1
    30   30    3 1
    31   31   30 1
    32   32    7 1
    33   33    5 1
    34   34   33 1
    35   35   22 1
    36   36   35 ar
    37   37   36 ar
    38   38   37 ar
    39   39   38 ar
    40   40   35 ar
    41   41    1 1
    42   42    8 1
    43   43   24 1
    44   44   25 1
    45   45   26 1
    46   46   27 1
    47   47   28 1
    48   48    9 1
    49   49   40 1
    50   50   39 1
    51   51   38 1
    52   52   37 1
    53   53   36 1
    54   54   10 1
    55   55   10 1
    56   56   11 1
    57   57   12 1
    58   58   12 1
    59   60   20 1
    60   61   20 1
    61   62   16 1
    62   63   16 1
    63   64   15 1
    64   65   15 1
    65   66   14 1
    66   67   14 1
    67   68   19 1
    68   69   19 1
    69   70   19 1
    70   71   18 1
    71   72   18 1
    72   73   18 1
    73   74   21 1
    74   75   21 1
    75   76   21 1
    76   77   33 1
    77   78   33 1
    78   79   34 1
    79   80   34 1
    80   81   34 1
    81   82   30 1
    82   83   30 1
    83   84   31 1
    84   85   31 1
    85   86   31 1
    86   13   41 1
    87   17   41 1
    88   27   28 ar
    89   39   40 ar
@<TRIPOS>SUBSTRUCTURE
     1 RES1 1

@<TRIPOS>CRYSIN
  18.0280    7.7037   23.5630  90.0000 103.4030  90.0000 231 1

