# MOL2 file generated by ConQuest
# Please check atom types

@<TRIPOS>MOLECULE
ZOPZAH
    85    87     1
SMALL
NO_CHARGES
****
Generated from CSD

@<TRIPOS>ATOM
      1 N1         4.5301    4.7164   20.7720 N.3       1 RES1    0.0000
      2 N2         7.8698    6.5734   16.3798 N.3       1 RES1    0.0000
      3 O1         6.0541    2.0810   19.2124 O.2       1 RES1    0.0000
      4 O2         8.1965    2.7373   18.9160 O.3       1 RES1    0.0000
      5 O3         7.3730    5.4473   17.1564 O.3       1 RES1    0.0000
      6 C1        10.2394    8.0272   15.4720 C.3       1 RES1    0.0000
      7 C2         9.3084    8.5677   16.5371 C.3       1 RES1    0.0000
      8 C3         8.5833    7.4802   17.3453 C.3       1 RES1    0.0000
      9 C4         9.5660    6.7730   18.2885 C.3       1 RES1    0.0000
     10 C5         7.5341    8.1982   18.1956 C.3       1 RES1    0.0000
     11 C6         7.7661    5.3351   14.2714 C.3       1 RES1    0.0000
     12 C7         9.7197    4.9123   15.7303 C.3       1 RES1    0.0000
     13 C8         6.6154    5.4187   21.9515 C.3       1 RES1    0.0000
     14 C9         5.9622    4.3814   21.0419 C.3       1 RES1    0.0000
     15 C10        6.6738    4.3640   19.6620 C.3       1 RES1    0.0000
     16 C11        5.6817    5.1665   18.7867 C.3       1 RES1    0.0000
     17 C12        4.3344    4.6762   19.3122 C.3       1 RES1    0.0000
     18 C13        5.9267    5.2285   17.2619 C.3       1 RES1    0.0000
     19 C14        5.5964    3.9161   16.5505 C.3       1 RES1    0.0000
     20 C15        5.0851    6.3408   16.6535 C.3       1 RES1    0.0000
     21 C16        6.9045    2.9334   19.2291 C.2       1 RES1    0.0000
     22 C17        3.5695    3.8638   21.4945 C.3       1 RES1    0.0000
     23 C18        2.1365    4.3424   21.2302 C.3       1 RES1    0.0000
     24 C19        3.8702    3.8570   22.9817 C.ar      1 RES1    0.0000
     25 C20        4.3273    2.6963   23.5910 C.ar      1 RES1    0.0000
     26 C21        4.6561    2.6920   24.9444 C.ar      1 RES1    0.0000
     27 C22        4.5280    3.8399   25.6999 C.ar      1 RES1    0.0000
     28 C23        4.0515    4.9946   25.1077 C.ar      1 RES1    0.0000
     29 C24        3.7241    5.0030   23.7635 C.ar      1 RES1    0.0000
     30 C25        8.7025    1.3849   18.5897 C.3       1 RES1    0.0000
     31 C26        8.0833    0.9003   17.2962 C.3       1 RES1    0.0000
     32 C27       10.1909    1.6285   18.4080 C.3       1 RES1    0.0000
     33 C28        8.4557    0.4372   19.7457 C.3       1 RES1    0.0000
     34 C29        8.7103    5.9798   15.2828 C.3       1 RES1    0.0000
     35 C30        9.4183    7.1322   14.5544 C.3       1 RES1    0.0000
     36 H1         9.9470    6.7823   13.8176 H         1 RES1    0.0000
     37 H2         8.6552    7.7012   14.1781 H         1 RES1    0.0000
     38 H3        10.9455    7.5282   15.8882 H         1 RES1    0.0000
     39 H4        10.6488    8.8137   14.9765 H         1 RES1    0.0000
     40 H5         9.7922    9.1480   17.1573 H         1 RES1    0.0000
     41 H6         8.5778    9.0719   16.1027 H         1 RES1    0.0000
     42 H7         7.8967    8.9440   18.6708 H         1 RES1    0.0000
     43 H8         7.1631    7.5594   18.8316 H         1 RES1    0.0000
     44 H9         6.8492    8.5324   17.5923 H         1 RES1    0.0000
     45 H10        9.6210    7.2135   19.1266 H         1 RES1    0.0000
     46 H11        9.3200    5.8670   18.4622 H         1 RES1    0.0000
     47 H12       10.4561    6.7258   17.8872 H         1 RES1    0.0000
     48 H13        8.2665    5.1303   13.4810 H         1 RES1    0.0000
     49 H14        7.4572    4.5193   14.6309 H         1 RES1    0.0000
     50 H15        7.0229    5.9649   14.0649 H         1 RES1    0.0000
     51 H16       10.0941    4.4558   14.9587 H         1 RES1    0.0000
     52 H17       10.4682    5.3101   16.2338 H         1 RES1    0.0000
     53 H18        9.2710    4.2529   16.2725 H         1 RES1    0.0000
     54 H19        5.7544    6.0399   19.0938 H         1 RES1    0.0000
     55 H20        7.5407    4.8697   19.7016 H         1 RES1    0.0000
     56 H21        8.5331    0.0842   17.0113 H         1 RES1    0.0000
     57 H22        7.1416    0.7044   17.4463 H         1 RES1    0.0000
     58 H23        8.1504    1.5702   16.6062 H         1 RES1    0.0000
     59 H24       10.6255    0.8220   18.1494 H         1 RES1    0.0000
     60 H25       10.5903    1.9115   19.2279 H         1 RES1    0.0000
     61 H26       10.3538    2.2977   17.7293 H         1 RES1    0.0000
     62 H27        8.9932   -0.3505   19.6182 H         1 RES1    0.0000
     63 H28        8.7240    0.8485   20.5924 H         1 RES1    0.0000
     64 H29        7.5157    0.1810   19.7880 H         1 RES1    0.0000
     65 H30        6.0236    3.5312   21.4772 H         1 RES1    0.0000
     66 H31        3.6895    5.3009   19.0402 H         1 RES1    0.0000
     67 H32        4.0541    3.8010   19.0015 H         1 RES1    0.0000
     68 H33        3.6886    2.9179   21.1703 H         1 RES1    0.0000
     69 H34        4.3603    1.9011   23.0830 H         1 RES1    0.0000
     70 H35        4.8987    1.9011   25.3532 H         1 RES1    0.0000
     71 H36        4.8497    3.8379   26.6193 H         1 RES1    0.0000
     72 H37        3.9054    5.7690   25.6153 H         1 RES1    0.0000
     73 H38        3.4065    5.8059   23.3779 H         1 RES1    0.0000
     74 H39        1.4466    3.7722   21.7036 H         1 RES1    0.0000
     75 H40        2.0761    5.2398   21.5159 H         1 RES1    0.0000
     76 H41        1.9643    4.3175   20.2766 H         1 RES1    0.0000
     77 H42        6.1724    5.3793   22.8178 H         1 RES1    0.0000
     78 H43        7.5209    5.1856   22.0641 H         1 RES1    0.0000
     79 H44        6.5413    6.3120   21.5844 H         1 RES1    0.0000
     80 H45        4.1315    6.1148   16.7015 H         1 RES1    0.0000
     81 H46        5.2332    7.1755   17.1305 H         1 RES1    0.0000
     82 H47        5.3829    6.5160   15.7303 H         1 RES1    0.0000
     83 H48        4.7473    3.5889   16.8505 H         1 RES1    0.0000
     84 H49        6.2833    3.2626   16.7402 H         1 RES1    0.0000
     85 H50        5.5824    4.0650   15.6022 H         1 RES1    0.0000
@<TRIPOS>BOND
     1    1   14 1
     2    2    5 1
     3    3   21 2
     4    4   21 1
     5    5   18 1
     6    6    7 1
     7    7    8 1
     8    8    2 1
     9    9    8 1
    10   10    8 1
    11   11   34 1
    12   12   34 1
    13   13   14 1
    14   14   15 1
    15   15   16 1
    16   16   17 1
    17   17    1 1
    18   18   16 1
    19   19   18 1
    20   20   18 1
    21   21   15 1
    22   22    1 1
    23   23   22 1
    24   24   22 1
    25   25   24 ar
    26   26   25 ar
    27   27   26 ar
    28   28   27 ar
    29   29   24 ar
    30   30    4 1
    31   31   30 1
    32   32   30 1
    33   33   30 1
    34   34    2 1
    35   35    6 1
    36   36   35 1
    37   37   35 1
    38   38    6 1
    39   39    6 1
    40   40    7 1
    41   41    7 1
    42   42   10 1
    43   43   10 1
    44   44   10 1
    45   45    9 1
    46   46    9 1
    47   47    9 1
    48   48   11 1
    49   49   11 1
    50   50   11 1
    51   51   12 1
    52   52   12 1
    53   53   12 1
    54   54   16 1
    55   55   15 1
    56   56   31 1
    57   57   31 1
    58   58   31 1
    59   59   32 1
    60   60   32 1
    61   61   32 1
    62   62   33 1
    63   63   33 1
    64   64   33 1
    65   65   14 1
    66   66   17 1
    67   67   17 1
    68   68   22 1
    69   69   25 1
    70   70   26 1
    71   71   27 1
    72   72   28 1
    73   73   29 1
    74   74   23 1
    75   75   23 1
    76   76   23 1
    77   77   13 1
    78   78   13 1
    79   79   13 1
    80   80   20 1
    81   81   20 1
    82   82   20 1
    83   83   19 1
    84   84   19 1
    85   85   19 1
    86   28   29 ar
    87   34   35 1
@<TRIPOS>SUBSTRUCTURE
     1 RES1 1

@<TRIPOS>CRYSIN
   8.6002   11.5287   29.7922  90.0000  90.0000  90.0000  19 1

