# MOL2 file generated by ConQuest
# Please check atom types

@<TRIPOS>MOLECULE
ZORHIX
    33    34     1
SMALL
NO_CHARGES
****
Generated from CSD

@<TRIPOS>ATOM
      1 O1        -3.9156    4.0239    6.7127 O.2       1 RES1    0.0000
      2 O2        -0.9252    6.9000    4.7484 O.2       1 RES1    0.0000
      3 N1        -0.1865    4.0330    4.8733 N.2       1 RES1    0.0000
      4 N2        -0.2387    2.2343    6.2395 N.2       1 RES1    0.0000
      5 N3        -1.2657    3.0767    6.5056 N.3       1 RES1    0.0000
      6 N4        -3.4269    5.0869    6.2017 N.pl3     1 RES1    0.0000
      7 N5        -2.0029    6.4354    5.2495 N.3       1 RES1    0.0000
      8 C1         0.3718    2.8544    5.2421 C.2       1 RES1    0.0000
      9 C2         1.5925    2.2994    4.5923 C.3       1 RES1    0.0000
     10 C3        -1.2093    4.1378    5.7030 C.2       1 RES1    0.0000
     11 C4        -2.1841    5.1953    5.7244 C.2       1 RES1    0.0000
     12 C5        -4.2350    6.3143    5.9971 C.3       1 RES1    0.0000
     13 C6        -3.1926    7.3230    5.4754 C.3       1 RES1    0.0000
     14 C7        -4.8506    6.6885    7.3362 C.3       1 RES1    0.0000
     15 C8        -5.3048    5.9473    4.9784 C.3       1 RES1    0.0000
     16 C9        -3.5466    8.0081    4.1635 C.3       1 RES1    0.0000
     17 C10       -2.7353    8.3534    6.5065 C.3       1 RES1    0.0000
     18 H1         1.6455    1.4281    4.7238 H         1 RES1    0.0000
     19 H2         1.4811    2.2958    3.6229 H         1 RES1    0.0000
     20 H3         2.4216    2.7658    4.9784 H         1 RES1    0.0000
     21 H4        -5.3494    7.5200    7.1801 H         1 RES1    0.0000
     22 H5        -4.1466    6.8421    7.9942 H         1 RES1    0.0000
     23 H6        -5.4154    6.0106    7.6681 H         1 RES1    0.0000
     24 H7        -5.8757    6.8331    4.8141 H         1 RES1    0.0000
     25 H8        -5.7174    5.1700    5.3481 H         1 RES1    0.0000
     26 H9        -5.1154    5.6671    4.0978 H         1 RES1    0.0000
     27 H10       -3.7646    7.2489    3.4668 H         1 RES1    0.0000
     28 H11       -4.4859    8.5866    4.3212 H         1 RES1    0.0000
     29 H12       -2.8614    8.6950    3.9187 H         1 RES1    0.0000
     30 H13       -3.4033    9.0023    6.5640 H         1 RES1    0.0000
     31 H14       -1.9721    8.8035    6.1532 H         1 RES1    0.0000
     32 H15       -2.4653    7.7550    7.4266 H         1 RES1    0.0000
     33 H16       -1.8273    2.8381    7.2623 H         1 RES1    0.0000
@<TRIPOS>BOND
     1    1    6 1
     2    2    7 1
     3    3    8 1
     4    4    5 1
     5    5   10 1
     6    6   11 2
     7    7   11 1
     8    8    4 2
     9    9    8 1
    10   10    3 2
    11   11   10 1
    12   12    6 1
    13   13    7 1
    14   14   12 1
    15   15   12 1
    16   16   13 1
    17   17   13 1
    18   18    9 1
    19   19    9 1
    20   20    9 1
    21   21   14 1
    22   22   14 1
    23   23   14 1
    24   24   15 1
    25   25   15 1
    26   26   15 1
    27   27   16 1
    28   28   16 1
    29   29   16 1
    30   30   17 1
    31   31   17 1
    32   32   17 1
    33   33    5 1
    34   12   13 1
@<TRIPOS>SUBSTRUCTURE
     1 RES1 1

@<TRIPOS>CRYSIN
   8.1900   18.0770    8.8290  90.0000 111.4900  90.0000  14 1

