# MOL2 file generated by ConQuest
# Please check atom types

@<TRIPOS>MOLECULE
ZORHUJ
    40    40     1
SMALL
NO_CHARGES
****
Generated from CSD

@<TRIPOS>ATOM
      1 O1        -2.0586    9.0557    5.0707 O.2       1 RES1    0.0000
      2 O2         0.0477    8.9403    4.7453 O.2       1 RES1    0.0000
      3 O3         1.8249    7.8850    2.7500 O.2       1 RES1    0.0000
      4 O4         0.2314    6.8936    1.6883 O.2       1 RES1    0.0000
      5 O5         1.5808   11.3137    4.8203 O.2       1 RES1    0.0000
      6 O6        -0.3520   12.2383    5.0915 O.2       1 RES1    0.0000
      7 O7         3.7223    9.5451    0.5620 O.2       1 RES1    0.0000
      8 O8         1.7987    8.8096   -0.1223 O.2       1 RES1    0.0000
      9 O9         1.5933   11.3999   -1.1482 O.2       1 RES1    0.0000
     10 O10        0.0134   12.0117    0.1870 O.2       1 RES1    0.0000
     11 O11        3.5163   11.4235    2.5134 O.2       1 RES1    0.0000
     12 O12        2.8672   12.8501    0.9913 O.2       1 RES1    0.0000
     13 N1        -1.0950    9.0598    4.3564 N.pl3     1 RES1    0.0000
     14 N2         0.7388    7.8836    2.1857 N.pl3     1 RES1    0.0000
     15 N3         0.4999   11.7002    4.4164 N.pl3     1 RES1    0.0000
     16 N4         2.5287    9.5979    0.4570 N.pl3     1 RES1    0.0000
     17 N5         1.0456   11.4444   -0.0600 N.pl3     1 RES1    0.0000
     18 N6         2.8341   11.7795    1.5706 N.pl3     1 RES1    0.0000
     19 C1        -1.2881   11.6460    2.6612 C.2       1 RES1    0.0000
     20 C2        -2.0334   10.5420    2.6173 C.2       1 RES1    0.0000
     21 C3        -1.3678    9.1822    2.8331 C.3       1 RES1    0.0000
     22 C4        -0.0457    9.1864    2.0334 C.3       1 RES1    0.0000
     23 C5         0.9162   10.3668    2.3057 C.3       1 RES1    0.0000
     24 C6         0.1878   11.5820    2.9000 C.3       1 RES1    0.0000
     25 C7        -1.8644   13.0350    2.4973 C.3       1 RES1    0.0000
     26 C8        -3.5098   10.5740    2.3773 C.3       1 RES1    0.0000
     27 C9        -2.2545    7.9990    2.5158 C.3       1 RES1    0.0000
     28 C10        1.7701   10.7742    1.0929 C.3       1 RES1    0.0000
     29 H1        -0.3019    9.2489    1.0686 H         1 RES1    0.0000
     30 H2         1.5558   10.0512    3.0074 H         1 RES1    0.0000
     31 H3         0.5820   12.3912    2.4638 H         1 RES1    0.0000
     32 H4        -1.1403   13.6954    2.5273 H         1 RES1    0.0000
     33 H5        -2.4993   13.2130    3.2232 H         1 RES1    0.0000
     34 H6        -2.3282   13.0976    1.6364 H         1 RES1    0.0000
     35 H7        -3.9782   10.2751    3.1851 H         1 RES1    0.0000
     36 H8        -3.7323    9.9775    1.6318 H         1 RES1    0.0000
     37 H9        -3.7853   11.4875    2.1592 H         1 RES1    0.0000
     38 H10       -1.8177    7.1731    2.8135 H         1 RES1    0.0000
     39 H11       -2.4099    7.9559    1.5487 H         1 RES1    0.0000
     40 H12       -3.1126    8.0991    2.9797 H         1 RES1    0.0000
@<TRIPOS>BOND
     1    1   13 2
     2    2   13 2
     3    3   14 2
     4    4   14 2
     5    5   15 2
     6    6   15 2
     7    7   16 2
     8    8   16 2
     9    9   17 2
    10   10   17 2
    11   11   18 2
    12   12   18 2
    13   13   21 1
    14   14   22 1
    15   15   24 1
    16   16   28 1
    17   17   28 1
    18   18   28 1
    19   19   20 2
    20   20   21 1
    21   21   22 1
    22   22   23 1
    23   23   24 1
    24   24   19 1
    25   25   19 1
    26   26   20 1
    27   27   21 1
    28   28   23 1
    29   29   22 1
    30   30   23 1
    31   31   24 1
    32   32   25 1
    33   33   25 1
    34   34   25 1
    35   35   26 1
    36   36   26 1
    37   37   26 1
    38   38   27 1
    39   39   27 1
    40   40   27 1
@<TRIPOS>SUBSTRUCTURE
     1 RES1 1

@<TRIPOS>CRYSIN
  10.1870   13.9040   12.3480  90.0000 110.8400  90.0000 231 1

