# MOL2 file generated by ConQuest
# Please check atom types

@<TRIPOS>MOLECULE
ZORHOD
    34    36     1
SMALL
NO_CHARGES
****
Generated from CSD

@<TRIPOS>ATOM
      1 O1         6.3727    3.8624    4.7419 O.2       1 RES1    0.0000
      2 O2         4.8496    2.3168    4.7678 O.2       1 RES1    0.0000
      3 O3         7.5062    1.7534    6.7736 O.2       1 RES1    0.0000
      4 O4         6.8286   -0.1676    6.0231 O.2       1 RES1    0.0000
      5 O5         8.4170    2.8808    3.0226 O.3       1 RES1    0.0000
      6 O6         9.2632    1.1492    4.1411 O.3       1 RES1    0.0000
      7 O7         6.3301   -1.7793    1.9652 O.2       1 RES1    0.0000
      8 O8         8.2617   -1.3202    1.0759 O.2       1 RES1    0.0000
      9 N1         5.9979    2.7214    4.6624 N.pl3     1 RES1    0.0000
     10 N2         7.1354    0.9980    5.8918 N.pl3     1 RES1    0.0000
     11 N3         8.3599    2.2486    4.2797 N.3       1 RES1    0.0000
     12 N4         7.4142   -1.2125    1.9578 N.pl3     1 RES1    0.0000
     13 C1         7.7548   -0.3467    3.1409 C.3       1 RES1    0.0000
     14 C2         6.5496    0.5715    3.4497 C.3       1 RES1    0.0000
     15 C3         6.1443    1.2132    2.1131 C.2       1 RES1    0.0000
     16 C4         7.1257    1.7166    1.3569 C.2       1 RES1    0.0000
     17 C5         8.5146    1.8079    1.9892 C.3       1 RES1    0.0000
     18 C6         8.9153    0.5756    2.8470 C.3       1 RES1    0.0000
     19 C7         7.0288    1.6056    4.4646 C.3       1 RES1    0.0000
     20 C8         4.6864    1.1063    1.7507 C.3       1 RES1    0.0000
     21 C9         6.9428    2.2834   -0.0222 C.3       1 RES1    0.0000
     22 C10        9.6388    2.2282    1.0649 C.3       1 RES1    0.0000
     23 H1         7.9632   -0.9176    3.9359 H         1 RES1    0.0000
     24 H2         5.7913    0.0388    3.8268 H         1 RES1    0.0000
     25 H3         9.6849    0.0811    2.4440 H         1 RES1    0.0000
     26 H4         4.1567    1.6594    2.3608 H         1 RES1    0.0000
     27 H5         4.3997    0.1723    1.8228 H         1 RES1    0.0000
     28 H6         4.5560    1.4183    0.8301 H         1 RES1    0.0000
     29 H7         7.4419    1.7391   -0.6674 H         1 RES1    0.0000
     30 H8         7.2781    3.2037   -0.0444 H         1 RES1    0.0000
     31 H9         5.9918    2.2766   -0.2551 H         1 RES1    0.0000
     32 H10        9.7131    1.5865    0.3291 H         1 RES1    0.0000
     33 H11       10.4816    2.2507    1.5659 H         1 RES1    0.0000
     34 H12        9.4490    3.1192    0.7044 H         1 RES1    0.0000
@<TRIPOS>BOND
     1    1    9 2
     2    2    9 2
     3    3   10 2
     4    4   10 2
     5    5   11 1
     6    6   11 1
     7    7   12 2
     8    8   12 2
     9    9   19 1
    10   10   19 1
    11   11   19 1
    12   12   13 1
    13   13   14 1
    14   14   15 1
    15   15   16 2
    16   16   17 1
    17   17    5 1
    18   18    6 1
    19   19   14 1
    20   20   15 1
    21   21   16 1
    22   22   17 1
    23   23   13 1
    24   24   14 1
    25   25   18 1
    26   26   20 1
    27   27   20 1
    28   28   20 1
    29   29   21 1
    30   30   21 1
    31   31   21 1
    32   32   22 1
    33   33   22 1
    34   34   22 1
    35   13   18 1
    36   17   18 1
@<TRIPOS>SUBSTRUCTURE
     1 RES1 1

@<TRIPOS>CRYSIN
  10.4400    6.8120   18.8440  90.0000 101.1700  90.0000  14 1

