# MOL2 file generated by ConQuest
# Please check atom types

@<TRIPOS>MOLECULE
ZORJIZ
    33    34     1
SMALL
NO_CHARGES
****
Generated from CSD

@<TRIPOS>ATOM
      1 O1         6.2261    5.7255    9.9544 O.3       1 RES1    0.0000
      2 O2         7.0096    8.6864   11.9278 O.3       1 RES1    0.0000
      3 O3         8.6188    9.1580   13.3390 O.2       1 RES1    0.0000
      4 O4        10.3955    7.3075   13.8327 O.2       1 RES1    0.0000
      5 O5         9.4833    5.3343   13.8560 O.2       1 RES1    0.0000
      6 O6         7.2362    3.2808   11.3394 O.2       1 RES1    0.0000
      7 O7         5.1740    3.4283   11.9598 O.2       1 RES1    0.0000
      8 N1         8.0687    8.2240   12.7288 N.pl3     1 RES1    0.0000
      9 N2         9.4960    6.5326   13.5458 N.pl3     1 RES1    0.0000
     10 N3         6.3149    3.8452   11.9147 N.pl3     1 RES1    0.0000
     11 C1         7.0137    6.6271   10.7088 C.3       1 RES1    0.0000
     12 C2         7.7059    5.9169   11.8783 C.3       1 RES1    0.0000
     13 C3         6.6455    5.1413   12.6763 C.3       1 RES1    0.0000
     14 C4         5.4216    5.9368   13.0011 C.2       1 RES1    0.0000
     15 C5         5.1994    7.1318   12.4258 C.2       1 RES1    0.0000
     16 C6         6.0983    7.6680   11.3263 C.3       1 RES1    0.0000
     17 C7         8.3641    6.9503   12.7346 C.2       1 RES1    0.0000
     18 C8         4.5373    5.3791   14.0949 C.3       1 RES1    0.0000
     19 C9         4.0677    8.0301   12.8395 C.3       1 RES1    0.0000
     20 C10        5.3737    8.4751   10.2675 C.3       1 RES1    0.0000
     21 H1         6.7059    5.3534    9.3733 H         1 RES1    0.0000
     22 H2         7.6913    7.0680   10.1219 H         1 RES1    0.0000
     23 H3         8.3938    5.2821   11.5273 H         1 RES1    0.0000
     24 H4         7.0652    4.8761   13.5444 H         1 RES1    0.0000
     25 H5         4.7706    4.4410   14.2580 H         1 RES1    0.0000
     26 H6         3.5984    5.4388   13.8196 H         1 RES1    0.0000
     27 H7         4.6694    5.8962   14.9177 H         1 RES1    0.0000
     28 H8         3.3721    8.0177   12.1506 H         1 RES1    0.0000
     29 H9         4.4012    8.9450   12.9516 H         1 RES1    0.0000
     30 H10        3.6934    7.7127   13.6885 H         1 RES1    0.0000
     31 H11        4.6338    7.9464    9.9019 H         1 RES1    0.0000
     32 H12        5.9985    8.7038    9.5466 H         1 RES1    0.0000
     33 H13        5.0211    9.2972   10.6665 H         1 RES1    0.0000
@<TRIPOS>BOND
     1    1   11 1
     2    2    8 1
     3    3    8 1
     4    4    9 2
     5    5    9 2
     6    6   10 2
     7    7   10 2
     8    8   17 2
     9    9   17 1
    10   10   13 1
    11   11   12 1
    12   12   13 1
    13   13   14 1
    14   14   15 2
    15   15   16 1
    16   16    2 1
    17   17   12 1
    18   18   14 1
    19   19   15 1
    20   20   16 1
    21   21    1 1
    22   22   11 1
    23   23   12 1
    24   24   13 1
    25   25   18 1
    26   26   18 1
    27   27   18 1
    28   28   19 1
    29   29   19 1
    30   30   19 1
    31   31   20 1
    32   32   20 1
    33   33   20 1
    34   11   16 1
@<TRIPOS>SUBSTRUCTURE
     1 RES1 1

@<TRIPOS>CRYSIN
  10.0040    8.2870   14.6710  90.0000  96.9300  90.0000  14 1

