# MOL2 file generated by ConQuest
# Please check atom types

@<TRIPOS>MOLECULE
ZORJUL
    31    31     1
SMALL
NO_CHARGES
****
Generated from CSD

@<TRIPOS>ATOM
      1 O1         3.0797    0.2204    1.3581 O.2       1 RES1    0.0000
      2 O2         4.3717   -2.1471    1.2777 O.3       1 RES1    0.0000
      3 O3         0.5511    1.1409    0.8366 O.2       1 RES1    0.0000
      4 O4        -0.8038    0.6409    2.4505 O.2       1 RES1    0.0000
      5 O5        -0.1620   -3.9718    1.6204 O.2       1 RES1    0.0000
      6 O6         0.3898   -5.1596    3.3343 O.2       1 RES1    0.0000
      7 O7         3.4878   -1.3001    3.9638 O.2       1 RES1    0.0000
      8 O8         4.4691   -3.2023    4.2424 O.2       1 RES1    0.0000
      9 N1         0.1999    0.4409    1.7837 N.pl3     1 RES1    0.0000
     10 N2         0.4173   -4.1351    2.6820 N.pl3     1 RES1    0.0000
     11 N3         3.6388   -2.4900    3.7136 N.pl3     1 RES1    0.0000
     12 C1         2.4319   -0.7613    1.6204 C.2       1 RES1    0.0000
     13 C2         1.0282   -0.7327    2.1021 C.2       1 RES1    0.0000
     14 C3         0.4905   -1.7185    2.7925 C.2       1 RES1    0.0000
     15 C4         1.2414   -2.9411    3.2279 C.3       1 RES1    0.0000
     16 C5         2.6982   -3.0840    2.6357 C.3       1 RES1    0.0000
     17 C6         2.9697   -2.1737    1.4011 C.3       1 RES1    0.0000
     18 C7         1.1858   -3.0452    4.7492 C.3       1 RES1    0.0000
     19 C8         3.1306   -4.5188    2.3921 C.3       1 RES1    0.0000
     20 C9         2.3169   -2.7023    0.1186 C.3       1 RES1    0.0000
     21 H1         4.5847   -1.6777    0.6141 H         1 RES1    0.0000
     22 H2        -0.4275   -1.6512    3.0272 H         1 RES1    0.0000
     23 H3         1.7037   -3.8228    5.0432 H         1 RES1    0.0000
     24 H4         0.2547   -3.1452    5.0359 H         1 RES1    0.0000
     25 H5         1.5646   -2.2329    5.1456 H         1 RES1    0.0000
     26 H6         2.5632   -4.9168    1.7000 H         1 RES1    0.0000
     27 H7         3.0428   -5.0311    3.2222 H         1 RES1    0.0000
     28 H8         4.0653   -4.5310    2.0972 H         1 RES1    0.0000
     29 H9         1.3533   -2.8064    0.2615 H         1 RES1    0.0000
     30 H10        2.7088   -3.5697   -0.1137 H         1 RES1    0.0000
     31 H11        2.4718   -2.0675   -0.6124 H         1 RES1    0.0000
@<TRIPOS>BOND
     1    1   12 2
     2    2   17 1
     3    3    9 2
     4    4    9 2
     5    5   10 2
     6    6   10 2
     7    7   11 2
     8    8   11 2
     9    9   13 1
    10   10   15 1
    11   11   16 1
    12   12   13 1
    13   13   14 2
    14   14   15 1
    15   15   16 1
    16   16   17 1
    17   17   12 1
    18   18   15 1
    19   19   16 1
    20   20   17 1
    21   21    2 1
    22   22   14 1
    23   23   18 1
    24   24   18 1
    25   25   18 1
    26   26   19 1
    27   27   19 1
    28   28   19 1
    29   29   20 1
    30   30   20 1
    31   31   20 1
@<TRIPOS>SUBSTRUCTURE
     1 RES1 1

@<TRIPOS>CRYSIN
   6.9430   20.4100    8.2810  90.0000 101.2300  90.0000 231 1

