# MOL2 file generated by ConQuest
# Please check atom types

@<TRIPOS>MOLECULE
ZORYIO
    43    46     1
SMALL
NO_CHARGES
****
Generated from CSD

@<TRIPOS>ATOM
      1 O1         5.7077   -2.4741   11.0938 O.2       1 RES1    0.0000
      2 O2         6.3426    0.5116    8.4056 O.3       1 RES1    0.0000
      3 O3         7.2376    1.3121    6.5044 O.2       1 RES1    0.0000
      4 O4         2.1584    1.2829    2.8781 O.2       1 RES1    0.0000
      5 O5         4.2351    1.8628    2.7076 O.2       1 RES1    0.0000
      6 O6         1.5214    1.1990    9.0375 O.2       1 RES1    0.0000
      7 O7         0.2431    1.1038    7.3220 O.2       1 RES1    0.0000
      8 N1         3.2647    1.5147    3.3478 N.pl3     1 RES1    0.0000
      9 N2         1.3431    1.1475    7.8388 N.pl3     1 RES1    0.0000
     10 C1         8.2770   -0.9829    8.9072 C.3       1 RES1    0.0000
     11 C2         8.2133   -1.7386    7.5548 C.3       1 RES1    0.0000
     12 C3         8.6794   -3.1234    8.0509 C.3       1 RES1    0.0000
     13 C4         6.7843   -2.0655    7.2375 C.2       1 RES1    0.0000
     14 C5         6.3638   -2.9835    8.1035 C.2       1 RES1    0.0000
     15 C6         7.5126   -3.2958    9.0167 C.3       1 RES1    0.0000
     16 C7         7.7196   -2.0498    9.9118 C.3       1 RES1    0.0000
     17 C8         6.5199   -1.6445   10.7197 C.2       1 RES1    0.0000
     18 C9         6.3798   -0.2015   11.1021 C.3       1 RES1    0.0000
     19 C10        7.4213    0.7299   10.5021 C.3       1 RES1    0.0000
     20 C11        7.6527    0.4008    9.0472 C.3       1 RES1    0.0000
     21 C12        6.2842    1.0042    7.1723 C.2       1 RES1    0.0000
     22 C13        4.8817    1.1027    6.6818 C.ar      1 RES1    0.0000
     23 C14        4.7023    1.2762    5.3127 C.ar      1 RES1    0.0000
     24 C15        3.4388    1.3647    4.8111 C.ar      1 RES1    0.0000
     25 C16        2.3241    1.3210    5.5982 C.ar      1 RES1    0.0000
     26 C17        2.5290    1.1699    6.9562 C.ar      1 RES1    0.0000
     27 C18        3.7818    1.0534    7.5104 C.ar      1 RES1    0.0000
     28 H1         9.1678   -0.6930    9.0624 H         1 RES1    0.0000
     29 H2         8.6539   -1.2852    6.8453 H         1 RES1    0.0000
     30 H3         9.5224   -3.0999    8.4860 H         1 RES1    0.0000
     31 H4         8.6953   -3.7794    7.3636 H         1 RES1    0.0000
     32 H5         6.2672   -1.6815    6.5363 H         1 RES1    0.0000
     33 H6         5.4954   -3.3686    8.1368 H         1 RES1    0.0000
     34 H7         7.4160   -4.1097    9.4947 H         1 RES1    0.0000
     35 H8         8.3259   -2.2021   10.6269 H         1 RES1    0.0000
     36 H9         6.4392   -0.1411   12.0472 H         1 RES1    0.0000
     37 H10        5.5219    0.0952   10.8195 H         1 RES1    0.0000
     38 H11        8.2377    0.6314   10.9774 H         1 RES1    0.0000
     39 H12        7.1166    1.6255   10.5742 H         1 RES1    0.0000
     40 H13        8.2685    0.9908    8.6287 H         1 RES1    0.0000
     41 H14        5.4529    1.3322    4.7335 H         1 RES1    0.0000
     42 H15        1.4503    1.3915    5.2296 H         1 RES1    0.0000
     43 H16        3.8869    0.9404    8.4472 H         1 RES1    0.0000
@<TRIPOS>BOND
     1    1   17 2
     2    2   20 1
     3    3   21 2
     4    4    8 2
     5    5    8 2
     6    6    9 2
     7    7    9 2
     8    8   24 1
     9    9   26 1
    10   10   11 1
    11   11   12 1
    12   12   15 1
    13   13   11 1
    14   14   13 2
    15   15   14 1
    16   16   10 1
    17   17   16 1
    18   18   17 1
    19   19   18 1
    20   20   10 1
    21   21    2 1
    22   22   21 1
    23   23   22 ar
    24   24   23 ar
    25   25   24 ar
    26   26   25 ar
    27   27   22 ar
    28   28   10 1
    29   29   11 1
    30   30   12 1
    31   31   12 1
    32   32   13 1
    33   33   14 1
    34   34   15 1
    35   35   16 1
    36   36   18 1
    37   37   18 1
    38   38   19 1
    39   39   19 1
    40   40   20 1
    41   41   23 1
    42   42   25 1
    43   43   27 1
    44   15   16 1
    45   19   20 1
    46   26   27 ar
@<TRIPOS>SUBSTRUCTURE
     1 RES1 1

@<TRIPOS>CRYSIN
  10.6170   11.1950   13.8569  90.0000  90.0000  90.0000  19 1

