# MOL2 file generated by ConQuest
# Please check atom types

@<TRIPOS>MOLECULE
ZOWDOE
    27    28     1
SMALL
NO_CHARGES
****
Generated from CSD

@<TRIPOS>ATOM
      1 N1         0.0615    2.3673    7.7567 N.2       1 RES1    0.0000
      2 N2        -0.6192    3.5028    7.4169 N.2       1 RES1    0.0000
      3 N3        -0.4224    3.8212    6.1818 N.2       1 RES1    0.0000
      4 N4         0.4328    2.8747    5.6880 N.3       1 RES1    0.0000
      5 C1         0.7039    1.9963    6.6602 C.2       1 RES1    0.0000
      6 N5         1.4669    0.8998    6.5380 N.3       1 RES1    0.0000
      7 C2         2.3354    0.7372    5.4098 C.ar      1 RES1    0.0000
      8 C3         2.1436   -0.3136    4.5233 C.ar      1 RES1    0.0000
      9 C4         3.0243   -0.4285    3.4423 C.ar      1 RES1    0.0000
     10 C5         4.0561    0.4645    3.2401 C.ar      1 RES1    0.0000
     11 C6         4.1994    1.4958    4.1382 C.ar      1 RES1    0.0000
     12 C7         3.3629    1.6545    5.2269 C.ar      1 RES1    0.0000
     13 C8         1.6219    0.0166    7.6970 C.3       1 RES1    0.0000
     14 C9         1.0204   -1.2961    4.6715 C.3       1 RES1    0.0000
     15 N6         5.3001    2.4501    3.9707 N.pl3     1 RES1    0.0000
     16 O1         6.0826    2.2573    3.0524 O.2       1 RES1    0.0000
     17 O2         5.3764    3.3937    4.7283 O.2       1 RES1    0.0000
     18 H1         2.8849   -1.1598    2.8243 H         1 RES1    0.0000
     19 H2         4.6393    0.3574    2.4835 H         1 RES1    0.0000
     20 H3         3.4665    2.3839    5.8574 H         1 RES1    0.0000
     21 H4         2.0779    0.4665    8.4083 H         1 RES1    0.0000
     22 H5         0.7703   -0.2727    8.0233 H         1 RES1    0.0000
     23 H6         2.1325   -0.7644    7.4659 H         1 RES1    0.0000
     24 H7         0.3457   -0.9465    5.2587 H         1 RES1    0.0000
     25 H8         0.6217   -1.4782    3.8283 H         1 RES1    0.0000
     26 H9         1.3481   -2.1112    5.0440 H         1 RES1    0.0000
     27 H10        0.5010    2.7198    4.8130 H         1 RES1    0.0000
@<TRIPOS>BOND
     1    1    2 1
     2    2    3 2
     3    3    4 1
     4    4    5 1
     5    5    1 2
     6    6    5 1
     7    7    6 1
     8    8    7 ar
     9    9    8 ar
    10   10    9 ar
    11   11   10 ar
    12   12    7 ar
    13   13    6 1
    14   14    8 1
    15   15   11 1
    16   16   15 2
    17   17   15 2
    18   18    9 1
    19   19   10 1
    20   20   12 1
    21   21   13 1
    22   22   13 1
    23   23   13 1
    24   24   14 1
    25   25   14 1
    26   26   14 1
    27   27    4 1
    28   11   12 ar
@<TRIPOS>SUBSTRUCTURE
     1 RES1 1

@<TRIPOS>CRYSIN
  11.6340    9.7380    9.7490  90.0000  99.1100  90.0000  14 1

