# MOL2 file generated by ConQuest
# Please check atom types

@<TRIPOS>MOLECULE
ZOWDIY
    24    25     1
SMALL
NO_CHARGES
****
Generated from CSD

@<TRIPOS>ATOM
      1 O1         9.0418    2.0732    3.5931 O.2       1 RES1    0.0000
      2 O2         7.7292    3.7596    3.4821 O.2       1 RES1    0.0000
      3 N1         1.7875    3.8926    4.9391 N.3       1 RES1    0.0000
      4 N2         1.9561    5.1015    5.5334 N.2       1 RES1    0.0000
      5 N3         3.1918    5.1831    5.8662 N.2       1 RES1    0.0000
      6 N4         3.8664    4.0377    5.5185 N.2       1 RES1    0.0000
      7 N5         3.1459    2.0128    4.4240 N.3       1 RES1    0.0000
      8 N6         7.9235    2.5658    3.6164 N.pl3     1 RES1    0.0000
      9 C1         2.9626    3.2549    4.9377 C.2       1 RES1    0.0000
     10 C2         4.4439    1.4627    4.2778 C.ar      1 RES1    0.0000
     11 C3         5.5311    2.2606    3.9259 C.ar      1 RES1    0.0000
     12 C4         6.7740    1.6803    3.8390 C.ar      1 RES1    0.0000
     13 C5         6.9849    0.3385    3.9979 C.ar      1 RES1    0.0000
     14 C6         5.8959   -0.4564    4.2700 C.ar      1 RES1    0.0000
     15 C7         4.6419    0.0967    4.4389 C.ar      1 RES1    0.0000
     16 C8         1.9653    1.2663    4.0312 C.3       1 RES1    0.0000
     17 H1         0.8800    3.6871    4.6636 H         1 RES1    0.0000
     18 H2         5.4156    3.1673    3.7528 H         1 RES1    0.0000
     19 H3         7.8392   -0.2418    3.9245 H         1 RES1    0.0000
     20 H4         6.0059   -1.3781    4.3414 H         1 RES1    0.0000
     21 H5         3.9233   -0.4503    4.6621 H         1 RES1    0.0000
     22 H6         2.2238    0.3959    3.7238 H         1 RES1    0.0000
     23 H7         1.5216    1.7317    3.3210 H         1 RES1    0.0000
     24 H8         1.3750    1.1787    4.7837 H         1 RES1    0.0000
@<TRIPOS>BOND
     1    1    8 2
     2    2    8 2
     3    3    4 1
     4    4    5 2
     5    5    6 1
     6    6    9 2
     7    7    9 1
     8    8   12 1
     9    9    3 1
    10   10    7 1
    11   11   10 ar
    12   12   11 ar
    13   13   12 ar
    14   14   13 ar
    15   15   10 ar
    16   16    7 1
    17   17    3 1
    18   18   11 1
    19   19   13 1
    20   20   14 1
    21   21   15 1
    22   22   16 1
    23   23   16 1
    24   24   16 1
    25   14   15 ar
@<TRIPOS>SUBSTRUCTURE
     1 RES1 1

@<TRIPOS>CRYSIN
  18.3330   30.2220    7.0660  90.0000  90.0000  90.0000  43 1

