# MOL2 file generated by ConQuest
# Please check atom types

@<TRIPOS>MOLECULE
ZOWDEU
    24    25     1
SMALL
NO_CHARGES
****
Generated from CSD

@<TRIPOS>ATOM
      1 O1         1.7625    2.4808    6.2594 O.2       1 RES1    0.0000
      2 O2         3.4240    2.5567    7.6365 O.2       1 RES1    0.0000
      3 N1         2.3914    1.3198    1.8498 N.2       1 RES1    0.0000
      4 N2         1.6225    1.6596    0.7716 N.2       1 RES1    0.0000
      5 N3         1.1395    0.6244    0.1881 N.2       1 RES1    0.0000
      6 N4         1.5978   -0.4468    0.8791 N.3       1 RES1    0.0000
      7 N5         2.9894   -0.8138    2.7653 N.3       1 RES1    0.0000
      8 N6         2.8671    2.1114    6.6421 N.pl3     1 RES1    0.0000
      9 C1         2.3695    0.0039    1.8941 C.2       1 RES1    0.0000
     10 C2         3.5994   -0.3388    3.9637 C.ar      1 RES1    0.0000
     11 C3         4.8287   -0.8601    4.3543 C.ar      1 RES1    0.0000
     12 C4         5.3921   -0.3798    5.5511 C.ar      1 RES1    0.0000
     13 C5         4.7577    0.5968    6.3053 C.ar      1 RES1    0.0000
     14 C6         3.5469    1.0742    5.8752 C.ar      1 RES1    0.0000
     15 C7         2.9386    0.6086    4.7226 C.ar      1 RES1    0.0000
     16 C8         5.5484   -1.8840    3.5384 C.3       1 RES1    0.0000
     17 H1         3.0520   -1.6769    2.5297 H         1 RES1    0.0000
     18 H2         6.2092   -0.7398    5.8499 H         1 RES1    0.0000
     19 H3         5.1321    0.9371    7.1148 H         1 RES1    0.0000
     20 H4         2.0688    0.9371    4.4270 H         1 RES1    0.0000
     21 H5         5.2835   -2.7619    3.7946 H         1 RES1    0.0000
     22 H6         5.3136   -1.7755    2.6878 H         1 RES1    0.0000
     23 H7         6.4520   -1.7755    3.6365 H         1 RES1    0.0000
     24 H8         1.4077   -1.3810    0.6324 H         1 RES1    0.0000
@<TRIPOS>BOND
     1    1    8 2
     2    2    8 2
     3    3    4 1
     4    4    5 2
     5    5    6 1
     6    6    9 1
     7    7    9 1
     8    8   14 1
     9    9    3 2
    10   10    7 1
    11   11   10 ar
    12   12   11 ar
    13   13   12 ar
    14   14   13 ar
    15   15   10 ar
    16   16   11 1
    17   17    7 1
    18   18   12 1
    19   19   13 1
    20   20   15 1
    21   21   16 1
    22   22   16 1
    23   23   16 1
    24   24    6 1
    25   14   15 ar
@<TRIPOS>SUBSTRUCTURE
     1 RES1 1

@<TRIPOS>CRYSIN
   6.0820    4.9320   15.8640  90.0000  94.7000  90.0000   4 1

