# MOL2 file generated by ConQuest
# Please check atom types

@<TRIPOS>MOLECULE
ZOWSUZ
    29    30     1
SMALL
NO_CHARGES
****
Generated from CSD

@<TRIPOS>ATOM
      1 C1         6.5623    2.4031    5.8811 C.ar      1 RES1    0.0000
      2 C2         6.6931    3.2464    6.9412 C.ar      1 RES1    0.0000
      3 C3         6.6931    2.7301    8.2254 C.ar      1 RES1    0.0000
      4 C4         6.5558    1.3765    8.4075 C.ar      1 RES1    0.0000
      5 C5         6.4257    0.5296    7.3409 C.ar      1 RES1    0.0000
      6 C6         6.3896    1.0423    6.0973 C.ar      1 RES1    0.0000
      7 C7         6.9916    2.4490    3.4319 C.2       1 RES1    0.0000
      8 C8         7.7123    1.3065    3.2917 C.2       1 RES1    0.0000
      9 C9         8.0520    0.7528    1.9892 C.2       1 RES1    0.0000
     10 C10        7.7123    1.5261    0.8020 C.3       1 RES1    0.0000
     11 C11        7.4954    2.9641    1.0470 C.3       1 RES1    0.0000
     12 C12        6.6136    3.2440    2.1517 C.3       1 RES1    0.0000
     13 N1         6.5558    2.9750    4.5550 N.pl3     1 RES1    0.0000
     14 N2         6.6353    0.8143    9.7494 N.pl3     1 RES1    0.0000
     15 O1         6.5558   -0.4005    9.8961 O.2       1 RES1    0.0000
     16 O2         6.7871    1.5900   10.6614 O.2       1 RES1    0.0000
     17 O3         8.6151   -0.3378    1.9106 O.2       1 RES1    0.0000
     18 H1         6.2884    3.7881    4.4685 H         1 RES1    0.0000
     19 H2         6.7893    4.1814    6.7984 H         1 RES1    0.0000
     20 H3         6.8037    3.2971    8.9776 H         1 RES1    0.0000
     21 H4         6.3657   -0.4054    7.4955 H         1 RES1    0.0000
     22 H5         6.2435    0.4693    5.3569 H         1 RES1    0.0000
     23 H6         8.0036    0.8421    4.0727 H         1 RES1    0.0000
     24 H7         6.9237    1.1678    0.4324 H         1 RES1    0.0000
     25 H8         8.4315    1.4332    0.1808 H         1 RES1    0.0000
     26 H9         8.3520    3.3610    1.2213 H         1 RES1    0.0000
     27 H10        7.1362    3.3429    0.2581 H         1 RES1    0.0000
     28 H11        6.6664    4.1717    2.3679 H         1 RES1    0.0000
     29 H12        5.7282    3.0232    1.9132 H         1 RES1    0.0000
@<TRIPOS>BOND
     1    1    2 ar
     2    2    3 ar
     3    3    4 ar
     4    4    5 ar
     5    5    6 ar
     6    6    1 ar
     7    7    8 2
     8    8    9 1
     9    9   10 1
    10   10   11 1
    11   11   12 1
    12   12    7 1
    13   13    1 1
    14   14    4 1
    15   15   14 2
    16   16   14 2
    17   17    9 2
    18   18   13 1
    19   19    2 1
    20   20    3 1
    21   21    5 1
    22   22    6 1
    23   23    8 1
    24   24   10 1
    25   25   10 1
    26   26   11 1
    27   27   11 1
    28   28   12 1
    29   29   12 1
    30    7   13 1
@<TRIPOS>SUBSTRUCTURE
     1 RES1 1

@<TRIPOS>CRYSIN
   7.2280   12.0640   13.1040  90.0000  90.0000  90.0000  19 1

