# MOL2 file generated by ConQuest
# Please check atom types

@<TRIPOS>MOLECULE
ZOWSUZ01
    29    30     1
SMALL
NO_CHARGES
****
Generated from CSD

@<TRIPOS>ATOM
      1 C1         0.0709    1.0214    5.8814 C.ar      1 RES1    0.0000
      2 C2        -0.0038    0.1507    6.9754 C.ar      1 RES1    0.0000
      3 C3         0.2203    0.6141    8.2421 C.ar      1 RES1    0.0000
      4 C4         0.5131    1.9304    8.4380 C.ar      1 RES1    0.0000
      5 C5         0.6310    2.7972    7.3816 C.ar      1 RES1    0.0000
      6 C6         0.4205    2.3415    6.0995 C.ar      1 RES1    0.0000
      7 C7        -0.5383    1.0341    3.4417 C.2       1 RES1    0.0000
      8 C8        -0.8959    2.3159    3.2600 C.2       1 RES1    0.0000
      9 C9        -1.1779    2.8483    1.9570 C.2       1 RES1    0.0000
     10 C10       -1.1258    1.9329    0.7761 C.3       1 RES1    0.0000
     11 C11       -1.4340    0.5209    1.1693 C.3       1 RES1    0.0000
     12 C12       -0.5351    0.0613    2.2931 C.3       1 RES1    0.0000
     13 N1        -0.1563    0.4532    4.6213 N.pl3     1 RES1    0.0000
     14 N2         0.7404    2.4487    9.7877 N.pl3     1 RES1    0.0000
     15 O1         0.9754    3.6322    9.9395 O.2       1 RES1    0.0000
     16 O2         0.6571    1.6610   10.7273 O.2       1 RES1    0.0000
     17 O3        -1.4503    4.0382    1.7935 O.2       1 RES1    0.0000
     18 H1        -0.1012   -0.5362    4.5811 H         1 RES1    0.0000
     19 H2        -0.2120   -0.7660    6.8366 H         1 RES1    0.0000
     20 H3         0.1733    0.0638    8.9818 H         1 RES1    0.0000
     21 H4         0.8557    3.7075    7.5335 H         1 RES1    0.0000
     22 H5         0.5169    2.9351    5.3623 H         1 RES1    0.0000
     23 H6        -0.9376    2.9109    3.9711 H         1 RES1    0.0000
     24 H7        -1.7626    2.2202    0.1324 H         1 RES1    0.0000
     25 H8        -0.2557    1.9648    0.3971 H         1 RES1    0.0000
     26 H9        -2.3384    0.4685    1.4535 H         1 RES1    0.0000
     27 H10       -1.3060   -0.0460    0.4166 H         1 RES1    0.0000
     28 H11       -0.8379   -0.7839    2.6046 H         1 RES1    0.0000
     29 H12        0.3523   -0.0230    1.9635 H         1 RES1    0.0000
@<TRIPOS>BOND
     1    1    2 ar
     2    2    3 ar
     3    3    4 ar
     4    4    5 ar
     5    5    6 ar
     6    6    1 ar
     7    7    8 2
     8    8    9 1
     9    9   10 1
    10   10   11 1
    11   11   12 1
    12   12    7 1
    13   13    1 1
    14   14    4 1
    15   15   14 2
    16   16   14 2
    17   17    9 2
    18   18   13 1
    19   19    2 1
    20   20    3 1
    21   21    5 1
    22   22    6 1
    23   23    8 1
    24   24   10 1
    25   25   10 1
    26   26   11 1
    27   27   11 1
    28   28   12 1
    29   29   12 1
    30    7   13 1
@<TRIPOS>SUBSTRUCTURE
     1 RES1 1

@<TRIPOS>CRYSIN
   6.8630   12.7670   13.4100  90.0000 104.5900  90.0000  14 1

