# MOL2 file generated by ConQuest
# Please check atom types

@<TRIPOS>MOLECULE
ZOXYIU
    56    56     2
SMALL
NO_CHARGES
****
Generated from CSD

@<TRIPOS>ATOM
      1 O1         7.1850    9.1131   -4.9945 O.2       1 RES1    0.0000
      2 O2         7.9637    7.1962   -5.6366 O.2       1 RES1    0.0000
      3 O3         3.7749    7.9000   -1.0768 O.2       1 RES1    0.0000
      4 O4         3.8699    5.7963   -0.9260 O.2       1 RES1    0.0000
      5 N1         7.0664    7.9306   -5.1640 N.pl3     1 RES1    0.0000
      6 N2         3.9105    6.8339   -1.5788 N.pl3     1 RES1    0.0000
      7 C1         5.8139    7.2649   -4.8451 C.3       1 RES1    0.0000
      8 C2         5.4543    7.4671   -3.3742 C.3       1 RES1    0.0000
      9 C3         4.1553    6.7518   -3.0582 C.3       1 RES1    0.0000
     10 C4         2.8936    7.3259   -3.7575 C.3       1 RES1    0.0000
     11 C5         6.6008    7.0532   -2.4604 C.ar      1 RES1    0.0000
     12 C6         7.1638    8.0259   -1.6460 C.ar      1 RES1    0.0000
     13 C7         8.1820    7.6559   -0.7722 C.ar      1 RES1    0.0000
     14 C8         8.6294    6.3570   -0.7107 C.ar      1 RES1    0.0000
     15 C9         8.0789    5.3977   -1.5237 C.ar      1 RES1    0.0000
     16 C10        7.0754    5.7505   -2.4097 C.ar      1 RES1    0.0000
     17 O5         8.1501    0.3776   -8.5825 O.2       2 RES2    0.0000
     18 O6         9.0461    2.1877   -9.1124 O.2       2 RES2    0.0000
     19 O7         4.8571    3.7536   -4.6191 O.2       2 RES2    0.0000
     20 O8         4.8206    1.5831   -4.6012 O.2       2 RES2    0.0000
     21 N3         8.1355    1.5850   -8.7534 N.pl3     2 RES2    0.0000
     22 N4         4.9498    2.6893   -5.1847 N.pl3     2 RES2    0.0000
     23 C11        6.8201    2.2830   -8.4109 C.3       2 RES2    0.0000
     24 C12        6.4887    1.9874   -6.9659 C.3       2 RES2    0.0000
     25 C13        5.1702    2.7141   -6.6462 C.3       2 RES2    0.0000
     26 C14        3.9685    2.1591   -7.3391 C.3       2 RES2    0.0000
     27 C15        7.6146    2.4070   -6.0249 C.ar      2 RES2    0.0000
     28 C16        8.2039    1.4763   -5.2126 C.ar      2 RES2    0.0000
     29 C17        9.2376    1.7967   -4.3453 C.ar      2 RES2    0.0000
     30 C18        9.6631    3.1146   -4.2916 C.ar      2 RES2    0.0000
     31 C19        9.0839    4.0416   -5.1111 C.ar      2 RES2    0.0000
     32 C20        8.0668    3.7288   -5.9577 C.ar      2 RES2    0.0000
     33 H1         5.8609    6.2369   -5.0767 H         1 RES1    0.0000
     34 H2         5.0257    7.6101   -5.4700 H         1 RES1    0.0000
     35 H3         5.2688    8.5256   -3.1747 H         1 RES1    0.0000
     36 H4         4.2423    5.7791   -3.4608 H         1 RES1    0.0000
     37 H5         2.7243    8.3730   -3.4322 H         1 RES1    0.0000
     38 H6         2.0097    6.7518   -3.4608 H         1 RES1    0.0000
     39 H7         3.0125    7.3050   -4.8050 H         1 RES1    0.0000
     40 H8         6.8230    9.0406   -1.6732 H         1 RES1    0.0000
     41 H9         8.7405    8.3349   -0.1502 H         1 RES1    0.0000
     42 H10        9.4084    5.7982   -0.0143 H         1 RES1    0.0000
     43 H11        8.3258    4.3105   -1.4801 H         1 RES1    0.0000
     44 H12        6.6295    5.0353   -3.0746 H         1 RES1    0.0000
     45 H13        6.0025    1.9836   -9.1381 H         2 RES2    0.0000
     46 H14        6.8112    3.3568   -8.6805 H         2 RES2    0.0000
     47 H15        6.3799    0.8964   -6.8071 H         2 RES2    0.0000
     48 H16        5.3249    3.7574   -7.0216 H         2 RES2    0.0000
     49 H17        3.0787    2.7465   -7.1146 H         2 RES2    0.0000
     50 H18        3.8173    1.1444   -7.0574 H         2 RES2    0.0000
     51 H19        4.1457    2.2125   -8.4302 H         2 RES2    0.0000
     52 H20        7.8355    0.4196   -5.2698 H         2 RES2    0.0000
     53 H21        9.6463    0.9918   -3.6824 H         2 RES2    0.0000
     54 H22       10.4309    3.4331   -3.5895 H         2 RES2    0.0000
     55 H23        9.5416    5.0543   -5.1697 H         2 RES2    0.0000
     56 H24        7.6155    4.5394   -6.5783 H         2 RES2    0.0000
@<TRIPOS>BOND
     1    1    5 2
     2    2    5 2
     3    3    6 2
     4    4    6 2
     5    5    7 1
     6    6    9 1
     7    7    8 1
     8    8    9 1
     9    9   10 1
    10   10   37 1
    11   11    8 1
    12   12   11 ar
    13   13   12 ar
    14   14   13 ar
    15   15   14 ar
    16   16   11 ar
    17   17   21 2
    18   18   21 2
    19   19   22 2
    20   20   22 2
    21   21   23 1
    22   22   25 1
    23   23   24 1
    24   24   25 1
    25   25   26 1
    26   26   49 1
    27   27   24 1
    28   28   27 ar
    29   29   28 ar
    30   30   29 ar
    31   31   30 ar
    32   32   27 ar
    33   33    7 1
    34   34    7 1
    35   35    8 1
    36   36    9 1
    37   38   10 1
    38   39   10 1
    39   40   12 1
    40   41   13 1
    41   42   14 1
    42   43   15 1
    43   44   16 1
    44   45   23 1
    45   46   23 1
    46   47   24 1
    47   48   25 1
    48   50   26 1
    49   51   26 1
    50   52   28 1
    51   53   29 1
    52   54   30 1
    53   55   31 1
    54   56   32 1
    55   15   16 ar
    56   31   32 ar
@<TRIPOS>SUBSTRUCTURE
     1 RES1 1
     2 RES2 17

@<TRIPOS>CRYSIN
   8.0310   19.0730    7.4370  90.0000 105.9600  90.0000   4 1

