# MOL2 file generated by ConQuest
# Please check atom types

@<TRIPOS>MOLECULE
ZOXYOA
    31    31     1
SMALL
NO_CHARGES
****
Generated from CSD

@<TRIPOS>ATOM
      1 O1         8.4541    4.5298    3.4325 O.2       1 RES1    0.0000
      2 O2        10.3371    4.5048    4.4861 O.2       1 RES1    0.0000
      3 O3         8.8112    1.8782   -0.6118 O.2       1 RES1    0.0000
      4 O4         9.3501    0.1270    0.4619 O.2       1 RES1    0.0000
      5 N1         9.3576    3.9444    4.0203 N.pl3     1 RES1    0.0000
      6 N2         8.9360    1.2635    0.4097 N.pl3     1 RES1    0.0000
      7 C1        10.1301    1.9221    5.1810 C.3       1 RES1    0.0000
      8 C2         9.2455    2.4459    4.0845 C.3       1 RES1    0.0000
      9 C3         9.5850    1.8184    2.6989 C.3       1 RES1    0.0000
     10 C4         8.5352    2.0247    1.6721 C.3       1 RES1    0.0000
     11 C5         7.1446    1.4729    2.0590 C.3       1 RES1    0.0000
     12 C6        10.9997    2.1626    2.2250 C.ar      1 RES1    0.0000
     13 C7        11.3124    3.3517    1.5998 C.ar      1 RES1    0.0000
     14 C8        12.6428    3.5977    1.2183 C.ar      1 RES1    0.0000
     15 C9        13.6260    2.6729    1.4740 C.ar      1 RES1    0.0000
     16 C10       13.3037    1.4796    2.0831 C.ar      1 RES1    0.0000
     17 C11       11.9921    1.2306    2.4606 C.ar      1 RES1    0.0000
     18 H1         9.8308    2.3622    6.1448 H         1 RES1    0.0000
     19 H2        11.1544    2.1913    4.9935 H         1 RES1    0.0000
     20 H3        10.0425    0.8485    5.2747 H         1 RES1    0.0000
     21 H4         8.2299    2.1364    4.3242 H         1 RES1    0.0000
     22 H5         9.6239    0.7386    2.8515 H         1 RES1    0.0000
     23 H6         8.4025    3.1130    1.5529 H         1 RES1    0.0000
     24 H7         7.2287    0.4212    2.3160 H         1 RES1    0.0000
     25 H8         6.4259    1.6115    1.2718 H         1 RES1    0.0000
     26 H9         6.8389    2.0265    2.9586 H         1 RES1    0.0000
     27 H10       10.5203    4.0897    1.3789 H         1 RES1    0.0000
     28 H11       12.8610    4.5719    0.7229 H         1 RES1    0.0000
     29 H12       14.6684    2.8628    1.1245 H         1 RES1    0.0000
     30 H13       14.0852    0.7447    2.3428 H         1 RES1    0.0000
     31 H14       11.7338    0.2442    2.8917 H         1 RES1    0.0000
@<TRIPOS>BOND
     1    1    5 2
     2    2    5 2
     3    3    6 2
     4    4    6 2
     5    5    8 1
     6    6   10 1
     7    7    8 1
     8    8    9 1
     9    9   10 1
    10   10   11 1
    11   11   24 1
    12   12    9 1
    13   13   12 ar
    14   14   13 ar
    15   15   14 ar
    16   16   15 ar
    17   17   12 ar
    18   18    7 1
    19   19    7 1
    20   20    7 1
    21   21    8 1
    22   22    9 1
    23   23   10 1
    24   25   11 1
    25   26   11 1
    26   27   13 1
    27   28   14 1
    28   29   15 1
    29   30   16 1
    30   31   17 1
    31   16   17 ar
@<TRIPOS>SUBSTRUCTURE
     1 RES1 1

@<TRIPOS>CRYSIN
  14.6370    6.1040   14.0180  90.0000 107.2500  90.0000  14 1

