# MOL2 file generated by ConQuest
# Please check atom types

@<TRIPOS>MOLECULE
ZOZZIX
    65    69     1
SMALL
NO_CHARGES
****
Generated from CSD

@<TRIPOS>ATOM
      1 O1         1.5595   -2.4771    7.1994 O.3       1 RES1    0.0000
      2 O2        -1.6459   -3.5021    3.5487 O.3       1 RES1    0.0000
      3 N1         0.9673   -2.7572    4.0906 N.3       1 RES1    0.0000
      4 N2         1.9710   -3.1211    5.0334 N.3       1 RES1    0.0000
      5 N3         2.5160   -1.5883    6.6231 N.2       1 RES1    0.0000
      6 N4        -0.5683   -4.0856    2.8372 N.2       1 RES1    0.0000
      7 C1         2.6967   -1.9448    5.4186 C.2       1 RES1    0.0000
      8 C2         1.5310   -3.6554    6.3371 C.3       1 RES1    0.0000
      9 C3         2.6082   -4.5937    6.8531 C.3       1 RES1    0.0000
     10 C4         0.1781   -4.3077    6.4017 C.2       1 RES1    0.0000
     11 C5        -0.9826   -4.0680    5.7995 C.2       1 RES1    0.0000
     12 C6        -2.1390   -5.0111    6.0079 C.3       1 RES1    0.0000
     13 C7        -1.2939   -2.9530    4.8308 C.3       1 RES1    0.0000
     14 C8         0.6265   -3.7763    3.1937 C.2       1 RES1    0.0000
     15 C9        -0.1624   -1.9941    4.6022 C.3       1 RES1    0.0000
     16 C10        3.5359   -1.2026    4.4556 C.ar      1 RES1    0.0000
     17 C11        4.5731   -1.8565    3.7801 C.ar      1 RES1    0.0000
     18 C12        4.9295   -3.2892    4.0704 C.3       1 RES1    0.0000
     19 C13        5.2995   -1.1514    2.8444 C.ar      1 RES1    0.0000
     20 C14        5.0464    0.1835    2.5498 C.ar      1 RES1    0.0000
     21 C15        5.8119    0.9201    1.4833 C.3       1 RES1    0.0000
     22 C16        4.0472    0.8153    3.2627 C.ar      1 RES1    0.0000
     23 C17        3.2851    0.1630    4.2185 C.ar      1 RES1    0.0000
     24 C18        2.2433    0.9493    4.9716 C.3       1 RES1    0.0000
     25 C19        1.7314   -4.4428    2.4607 C.ar      1 RES1    0.0000
     26 C20        2.0393   -5.7801    2.7021 C.ar      1 RES1    0.0000
     27 C21        1.3185   -6.5987    3.7370 C.3       1 RES1    0.0000
     28 C22        3.0629   -6.3677    1.9605 C.ar      1 RES1    0.0000
     29 C23        3.7462   -5.6713    1.0061 C.ar      1 RES1    0.0000
     30 C24        4.8023   -6.3607    0.1466 C.3       1 RES1    0.0000
     31 C25        3.4145   -4.3447    0.7646 C.ar      1 RES1    0.0000
     32 C26        2.4067   -3.7092    1.4862 C.ar      1 RES1    0.0000
     33 C27        2.0598   -2.2896    1.1599 C.3       1 RES1    0.0000
     34 H1         0.1462   -4.9920    6.9565 H         1 RES1    0.0000
     35 H2         6.0473   -1.5924    2.3859 H         1 RES1    0.0000
     36 H3         3.8022    1.8300    3.1333 H         1 RES1    0.0000
     37 H4         3.2300   -7.3323    2.0553 H         1 RES1    0.0000
     38 H5         3.8659   -3.8175    0.0287 H         1 RES1    0.0000
     39 H6         3.4340   -4.1683    6.8128 H         1 RES1    0.0000
     40 H7         2.3690   -4.8359    7.8908 H         1 RES1    0.0000
     41 H8         2.6357   -5.3627    6.2235 H         1 RES1    0.0000
     42 H9        -1.9617   -5.6930    6.7266 H         1 RES1    0.0000
     43 H10       -2.9578   -4.5756    6.2666 H         1 RES1    0.0000
     44 H11       -2.2655   -5.5825    5.2318 H         1 RES1    0.0000
     45 H12       -2.1749   -2.4908    5.0737 H         1 RES1    0.0000
     46 H13       -0.4334   -1.3512    3.9670 H         1 RES1    0.0000
     47 H14        0.1143   -1.5195    5.4617 H         1 RES1    0.0000
     48 H15        5.0102   -3.4136    5.1168 H         1 RES1    0.0000
     49 H16        4.2288   -3.9037    3.7657 H         1 RES1    0.0000
     50 H17        5.7662   -3.4883    3.7082 H         1 RES1    0.0000
     51 H18        6.6513    0.4748    1.3223 H         1 RES1    0.0000
     52 H19        5.2029    1.0528    0.6180 H         1 RES1    0.0000
     53 H20        6.0857    1.7057    1.8254 H         1 RES1    0.0000
     54 H21        2.0998    1.8398    4.5131 H         1 RES1    0.0000
     55 H22        1.3730    0.5702    4.9587 H         1 RES1    0.0000
     56 H23        2.5305    1.0945    5.9792 H         1 RES1    0.0000
     57 H24        0.4208   -6.1812    3.9095 H         1 RES1    0.0000
     58 H25        1.0078   -7.3944    3.3777 H         1 RES1    0.0000
     59 H26        1.8815   -6.8595    4.5419 H         1 RES1    0.0000
     60 H27        5.2281   -7.0802    0.6324 H         1 RES1    0.0000
     61 H28        4.5950   -6.3171   -0.8624 H         1 RES1    0.0000
     62 H29        5.6664   -5.8742    0.3306 H         1 RES1    0.0000
     63 H30        2.1767   -2.0839    0.2587 H         1 RES1    0.0000
     64 H31        1.0069   -2.0848    1.1930 H         1 RES1    0.0000
     65 H32        2.5008   -1.6445    1.6385 H         1 RES1    0.0000
@<TRIPOS>BOND
     1    1    5 1
     2    2    6 1
     3    3    4 1
     4    4    7 1
     5    5    7 2
     6    6   14 2
     7    7   16 1
     8    8    1 1
     9    9    8 1
    10   10    8 1
    11   11   10 2
    12   12   11 1
    13   13    2 1
    14   14    3 1
    15   15    3 1
    16   16   17 ar
    17   17   18 1
    18   18   48 1
    19   19   17 ar
    20   20   19 ar
    21   21   20 1
    22   22   20 ar
    23   23   16 ar
    24   24   23 1
    25   25   14 1
    26   26   25 ar
    27   27   26 1
    28   28   26 ar
    29   29   28 ar
    30   30   29 1
    31   31   29 ar
    32   32   25 ar
    33   33   32 1
    34   34   10 1
    35   35   19 1
    36   36   22 1
    37   37   28 1
    38   38   31 1
    39   39    9 1
    40   40    9 1
    41   41    9 1
    42   42   12 1
    43   43   12 1
    44   44   12 1
    45   45   13 1
    46   46   15 1
    47   47   15 1
    48   49   18 1
    49   50   18 1
    50   51   21 1
    51   52   21 1
    52   53   21 1
    53   54   24 1
    54   55   24 1
    55   56   24 1
    56   57   27 1
    57   58   27 1
    58   59   27 1
    59   60   30 1
    60   61   30 1
    61   62   30 1
    62   63   33 1
    63   64   33 1
    64   65   33 1
    65    4    8 1
    66   11   13 1
    67   13   15 1
    68   22   23 ar
    69   31   32 ar
@<TRIPOS>SUBSTRUCTURE
     1 RES1 1

@<TRIPOS>CRYSIN
  10.1690    8.7480   15.2540 104.4500  97.4000 109.2200   2 1

