# MOL2 file generated by ConQuest
# Please check atom types

@<TRIPOS>MOLECULE
ZOZZOD
    68    72     1
SMALL
NO_CHARGES
****
Generated from CSD

@<TRIPOS>ATOM
      1 O1         1.7132   -2.6550    7.1147 O.3       1 RES1    0.0000
      2 O2        -1.2539   -4.2967    3.4762 O.3       1 RES1    0.0000
      3 N1         1.2352   -3.2222    4.0317 N.3       1 RES1    0.0000
      4 N2         2.2440   -3.4345    5.0155 N.3       1 RES1    0.0000
      5 N3         2.6124   -1.7483    6.4989 N.2       1 RES1    0.0000
      6 N4        -0.1020   -4.7883    2.8198 N.2       1 RES1    0.0000
      7 C1         2.8695   -2.1816    5.3262 C.2       1 RES1    0.0000
      8 C2         1.8195   -3.8953    6.3478 C.3       1 RES1    0.0000
      9 C3         2.9679   -4.6818    6.9635 C.3       1 RES1    0.0000
     10 C4         0.5426   -4.6776    6.4388 C.2       1 RES1    0.0000
     11 C5        -0.6090   -4.6069    5.7740 C.2       1 RES1    0.0000
     12 C6        -1.6823   -5.6343    6.0259 C.3       1 RES1    0.0000
     13 C7        -0.9974   -3.6137    4.7287 C.3       1 RES1    0.0000
     14 C8         1.0407   -4.3140    3.1795 C.2       1 RES1    0.0000
     15 C9         0.0202   -2.5321    4.4572 C.3       1 RES1    0.0000
     16 C10       -0.4543   -1.5586    3.3936 C.3       1 RES1    0.0000
     17 C11        3.7066   -1.4735    4.3466 C.ar      1 RES1    0.0000
     18 C12        4.7778   -2.1501    3.7225 C.ar      1 RES1    0.0000
     19 C13        5.1638   -3.5495    4.0947 C.3       1 RES1    0.0000
     20 C14        5.5242   -1.4600    2.7807 C.ar      1 RES1    0.0000
     21 C15        5.2656   -0.1406    2.4476 C.ar      1 RES1    0.0000
     22 C16        6.1108    0.5683    1.3994 C.3       1 RES1    0.0000
     23 C17        4.2481    0.5125    3.1067 C.ar      1 RES1    0.0000
     24 C18        3.4545   -0.1207    4.0541 C.ar      1 RES1    0.0000
     25 C19        2.3951    0.6725    4.7581 C.3       1 RES1    0.0000
     26 C20        2.2278   -4.8839    2.4938 C.ar      1 RES1    0.0000
     27 C21        2.6993   -6.1515    2.8338 C.ar      1 RES1    0.0000
     28 C22        2.0599   -6.9737    3.9086 C.3       1 RES1    0.0000
     29 C23        3.8097   -6.6399    2.1565 C.ar      1 RES1    0.0000
     30 C24        4.4438   -5.9111    1.1755 C.ar      1 RES1    0.0000
     31 C25        5.6609   -6.4735    0.4450 C.3       1 RES1    0.0000
     32 C26        3.9522   -4.6711    0.8523 C.ar      1 RES1    0.0000
     33 C27        2.8421   -4.1322    1.4960 C.ar      1 RES1    0.0000
     34 C28        2.3306   -2.7885    1.0762 C.3       1 RES1    0.0000
     35 H1         0.6043   -5.4289    7.0531 H         1 RES1    0.0000
     36 H2         0.1685   -2.0466    5.2898 H         1 RES1    0.0000
     37 H3         6.2620   -1.9485    2.2811 H         1 RES1    0.0000
     38 H4         4.0277    1.4662    2.9388 H         1 RES1    0.0000
     39 H5         4.2064   -7.5540    2.4210 H         1 RES1    0.0000
     40 H6         4.4503   -4.1331    0.1259 H         1 RES1    0.0000
     41 H7         3.8087   -4.1075    6.9412 H         1 RES1    0.0000
     42 H8         2.7332   -4.9227    7.8508 H         1 RES1    0.0000
     43 H9         3.0844   -5.5230    6.4514 H         1 RES1    0.0000
     44 H10       -1.4927   -6.1026    6.8992 H         1 RES1    0.0000
     45 H11       -2.5617   -5.1736    6.2275 H         1 RES1    0.0000
     46 H12       -1.7606   -6.2343    5.2758 H         1 RES1    0.0000
     47 H13       -1.9022   -3.2290    5.0099 H         1 RES1    0.0000
     48 H14        0.3093   -0.9152    3.1767 H         1 RES1    0.0000
     49 H15       -0.7139   -2.0643    2.6029 H         1 RES1    0.0000
     50 H16       -1.3013   -1.0730    3.7085 H         1 RES1    0.0000
     51 H17        5.3192   -3.6329    5.0939 H         1 RES1    0.0000
     52 H18        4.4115   -4.2386    3.9044 H         1 RES1    0.0000
     53 H19        5.9856   -3.7743    3.6105 H         1 RES1    0.0000
     54 H20        6.3516    0.0113    0.6857 H         1 RES1    0.0000
     55 H21        5.4585    1.2026    1.0216 H         1 RES1    0.0000
     56 H22        6.4969    1.1952    1.7913 H         1 RES1    0.0000
     57 H23        2.1661    1.5028    4.2403 H         1 RES1    0.0000
     58 H24        1.5378    0.1796    4.8560 H         1 RES1    0.0000
     59 H25        2.7014    0.9517    5.6817 H         1 RES1    0.0000
     60 H26        1.5854   -6.4701    4.5481 H         1 RES1    0.0000
     61 H27        1.6517   -7.7327    3.6245 H         1 RES1    0.0000
     62 H28        2.7670   -7.4286    4.5062 H         1 RES1    0.0000
     63 H29        5.7003   -7.3637    0.5458 H         1 RES1    0.0000
     64 H30        5.7758   -6.1635   -0.3079 H         1 RES1    0.0000
     65 H31        6.4089   -6.0946    0.9236 H         1 RES1    0.0000
     66 H32        2.4932   -2.6516    0.1120 H         1 RES1    0.0000
     67 H33        1.3580   -2.7557    1.0076 H         1 RES1    0.0000
     68 H34        2.7187   -2.0334    1.6513 H         1 RES1    0.0000
@<TRIPOS>BOND
     1    1    5 1
     2    2    6 1
     3    3    4 1
     4    4    7 1
     5    5    7 2
     6    6   14 2
     7    7   17 1
     8    8    1 1
     9    9    8 1
    10   10    8 1
    11   11   10 2
    12   12   11 1
    13   13    2 1
    14   14    3 1
    15   15    3 1
    16   16   15 1
    17   17   18 ar
    18   18   19 1
    19   19   51 1
    20   20   18 ar
    21   21   20 ar
    22   22   21 1
    23   23   21 ar
    24   24   17 ar
    25   25   24 1
    26   26   14 1
    27   27   26 ar
    28   28   27 1
    29   29   27 ar
    30   30   29 ar
    31   31   30 1
    32   32   30 ar
    33   33   26 ar
    34   34   33 1
    35   35   10 1
    36   36   15 1
    37   37   20 1
    38   38   23 1
    39   39   29 1
    40   40   32 1
    41   41    9 1
    42   42    9 1
    43   43    9 1
    44   44   12 1
    45   45   12 1
    46   46   12 1
    47   47   13 1
    48   48   16 1
    49   49   16 1
    50   50   16 1
    51   52   19 1
    52   53   19 1
    53   54   22 1
    54   55   22 1
    55   56   22 1
    56   57   25 1
    57   58   25 1
    58   59   25 1
    59   60   28 1
    60   61   28 1
    61   62   28 1
    62   63   31 1
    63   64   31 1
    64   65   31 1
    65   66   34 1
    66   67   34 1
    67   68   34 1
    68    4    8 1
    69   11   13 1
    70   13   15 1
    71   23   24 ar
    72   32   33 ar
@<TRIPOS>SUBSTRUCTURE
     1 RES1 1

@<TRIPOS>CRYSIN
   9.8940    9.9080   14.7800 105.2900  94.0700 112.2000   2 1

