# MOL2 file generated by ConQuest
# Please check atom types

@<TRIPOS>MOLECULE
ZUBBON
    66    65     2
SMALL
NO_CHARGES
****
Generated from CSD

@<TRIPOS>ATOM
      1 N1         1.2496    1.4050   17.6028 N.2       1 RES1    0.0000
      2 N2         0.6963    1.1218   18.8409 N.3       1 RES1    0.0000
      3 N3        -0.5189    0.3042   21.3732 N.pl3     1 RES1    0.0000
      4 N4        -2.4468   -3.5218   19.1019 N.pl3     1 RES1    0.0000
      5 O1         0.1852    1.3365   21.3732 O.2       1 RES1    0.0000
      6 O2        -1.0779   -0.0818   22.3869 O.2       1 RES1    0.0000
      7 O3        -2.9112   -3.8489   20.1761 O.2       1 RES1    0.0000
      8 O4        -2.6201   -4.1296   18.0752 O.2       1 RES1    0.0000
      9 C1         2.1420    2.3435   17.5554 C.2       1 RES1    0.0000
     10 C2         2.7070    3.1425   18.6899 C.3       1 RES1    0.0000
     11 C3         4.1898    2.8858   18.8086 C.3       1 RES1    0.0000
     12 C4         4.9410    2.8942   17.4950 C.3       1 RES1    0.0000
     13 C5         4.2942    2.0597   16.3734 C.3       1 RES1    0.0000
     14 C6         2.8360    2.5557   16.2332 C.3       1 RES1    0.0000
     15 C7         5.0073    2.3345   15.0253 C.3       1 RES1    0.0000
     16 C8         4.2889    1.8102   13.7505 C.3       1 RES1    0.0000
     17 C9         2.8668    2.3056   13.7613 C.3       1 RES1    0.0000
     18 C10        2.0913    1.9858   15.0253 C.3       1 RES1    0.0000
     19 C11        6.4749    1.9779   14.9972 C.3       1 RES1    0.0000
     20 C12        7.1787    2.5797   13.7872 C.3       1 RES1    0.0000
     21 C13        6.5515    2.1571   12.4822 C.3       1 RES1    0.0000
     22 C14        5.0278    2.3844   12.5383 C.3       1 RES1    0.0000
     23 C15        4.3298    0.5525   16.7767 C.3       1 RES1    0.0000
     24 C16        4.2666    0.2549   13.6146 C.3       1 RES1    0.0000
     25 C17        6.9160    0.9132   11.9559 C.3       1 RES1    0.0000
     26 C18        7.3481    2.7156   11.4534 Du        2 SUP2    0.0000
     27 C19       -0.0486    0.0006   18.9250 C.ar      1 RES1    0.0000
     28 C20       -0.6687   -0.4154   20.1372 C.ar      1 RES1    0.0000
     29 C21       -1.4554   -1.5733   20.1825 C.ar      1 RES1    0.0000
     30 C22       -1.6469   -2.3020   19.0631 C.ar      1 RES1    0.0000
     31 C23       -1.0292   -1.9599   17.8530 C.ar      1 RES1    0.0000
     32 C24       -0.2789   -0.8351   17.8034 C.ar      1 RES1    0.0000
     33 H1         0.8061    1.5331   19.5053 H         1 RES1    0.0000
     34 H2         2.2433    2.9146   19.5009 H         1 RES1    0.0000
     35 H3         2.5797    4.0797   18.5238 H         1 RES1    0.0000
     36 H4         4.2924    2.0056   19.1774 H         1 RES1    0.0000
     37 H5         4.5792    3.5092   19.4255 H         1 RES1    0.0000
     38 H6         4.9823    3.8086   17.2038 H         1 RES1    0.0000
     39 H7         5.8418    2.5858   17.6244 H         1 RES1    0.0000
     40 H8         2.8810    3.5032   16.0865 H         1 RES1    0.0000
     41 H9         5.0037    3.2886   14.9153 H         1 RES1    0.0000
     42 H10        2.4059    1.9305   13.0064 H         1 RES1    0.0000
     43 H11        2.8912    3.2585   13.6448 H         1 RES1    0.0000
     44 H12        1.2099    2.3621   14.9800 H         1 RES1    0.0000
     45 H13        2.0157    1.0359   15.1353 H         1 RES1    0.0000
     46 H14        6.5414    1.0232   14.9239 H         1 RES1    0.0000
     47 H15        6.8940    2.2479   15.8190 H         1 RES1    0.0000
     48 H16        8.1102    2.3471   13.7764 H         1 RES1    0.0000
     49 H17        7.1073    3.5345   13.8648 H         1 RES1    0.0000
     50 H18        4.8844    3.3337   12.5599 H         1 RES1    0.0000
     51 H19        4.6262    2.0435   11.7359 H         1 RES1    0.0000
     52 H20        3.9102    0.0198   16.0973 H         1 RES1    0.0000
     53 H21        5.2468    0.2814   16.8738 H         1 RES1    0.0000
     54 H22        3.8708    0.4299   17.6093 H         1 RES1    0.0000
     55 H23        3.8383   -0.1311   14.3825 H         1 RES1    0.0000
     56 H24        3.7821    0.0090   12.8230 H         1 RES1    0.0000
     57 H25        5.1670   -0.0697   13.5542 H         1 RES1    0.0000
     58 H26        6.4738    0.7359   11.1212 H         1 RES1    0.0000
     59 H27        7.8663    0.9054   11.8201 H         1 RES1    0.0000
     60 H28        6.6767    0.2381   12.5944 H         1 RES1    0.0000
     61 H29        7.0060    2.4619   10.5928 Du        2 SUP2    0.0000
     62 H30        7.3060    3.6703   11.5461 Du        2 SUP2    0.0000
     63 H31        8.2607    2.4264   11.5332 Du        2 SUP2    0.0000
     64 H32       -1.8835   -1.8337   21.0000 H         1 RES1    0.0000
     65 H33       -1.1394   -2.5118   17.0744 H         1 RES1    0.0000
     66 H34        0.1278   -0.5808   16.9730 H         1 RES1    0.0000
@<TRIPOS>BOND
     1    1    2 1
     2    2   27 1
     3    3    5 2
     4    4    7 2
     5    6    3 2
     6    8    4 2
     7    9    1 2
     8   10    9 1
     9   11   10 1
    10   12   11 1
    11   13   12 1
    12   14    9 1
    13   15   13 1
    14   16   15 1
    15   17   16 1
    16   18   14 1
    17   19   15 1
    18   20   19 1
    19   21   20 1
    20   22   16 1
    21   23   13 1
    22   24   16 1
    23   25   21 1
    24   27   28 ar
    25   28    3 1
    26   29   28 ar
    27   30    4 1
    28   31   30 ar
    29   32   27 ar
    30   33    2 1
    31   34   10 1
    32   35   10 1
    33   36   11 1
    34   37   11 1
    35   38   12 1
    36   39   12 1
    37   40   14 1
    38   41   15 1
    39   42   17 1
    40   43   17 1
    41   44   18 1
    42   45   18 1
    43   46   19 1
    44   47   19 1
    45   48   20 1
    46   49   20 1
    47   50   22 1
    48   51   22 1
    49   52   23 1
    50   53   23 1
    51   54   23 1
    52   55   24 1
    53   56   24 1
    54   57   24 1
    55   58   25 1
    56   59   25 1
    57   60   25 1
    58   64   29 1
    59   65   31 1
    60   66   32 1
    61   13   14 1
    62   17   18 1
    63   21   22 1
    64   29   30 ar
    65   31   32 ar
@<TRIPOS>SUBSTRUCTURE
     1 RES1 1
     2 SUP2 26

@<TRIPOS>CRYSIN
  17.2140    6.0120   22.8000  90.0000 108.9100  90.0000 231 1

