# MOL2 file generated by ConQuest
# Please check atom types

@<TRIPOS>MOLECULE
ZUBGEK
    44    48     1
SMALL
NO_CHARGES
****
Generated from CSD

@<TRIPOS>ATOM
      1 N1         6.3095    2.7793    9.5211 N.3       1 RES1    0.0000
      2 O1         7.7447    0.9719    6.8566 O.2       1 RES1    0.0000
      3 C1         6.0758    1.7271    8.4810 C.3       1 RES1    0.0000
      4 O2         5.1552    3.4889    9.9662 O.3       1 RES1    0.0000
      5 C2         7.4156    1.7979    7.6587 C.2       1 RES1    0.0000
      6 O3         3.4967    4.7651    9.3096 O.2       1 RES1    0.0000
      7 C3         8.1186    3.0119    8.1060 C.ar      1 RES1    0.0000
      8 C4         9.2898    3.5958    7.6300 C.ar      1 RES1    0.0000
      9 H1         9.7968    3.1888    6.9650 H         1 RES1    0.0000
     10 C5         9.6669    4.8016    8.1835 C.ar      1 RES1    0.0000
     11 H2        10.4621    5.2045    7.9179 H         1 RES1    0.0000
     12 C6         8.8697    5.4113    9.1312 C.ar      1 RES1    0.0000
     13 H3         9.1148    6.2552    9.4382 H         1 RES1    0.0000
     14 C7         7.7286    4.8316    9.6464 C.ar      1 RES1    0.0000
     15 H4         7.2287    5.2399   10.3157 H         1 RES1    0.0000
     16 C8         7.3682    3.5985    9.1046 C.ar      1 RES1    0.0000
     17 C9         6.0105    0.3416    9.1174 C.ar      1 RES1    0.0000
     18 C10        6.5116    0.1170   10.3805 C.ar      1 RES1    0.0000
     19 H5         6.8082    0.8357   10.8915 H         1 RES1    0.0000
     20 C11        6.5808   -1.1732   10.9022 C.ar      1 RES1    0.0000
     21 H6         6.9292   -1.3174   11.7521 H         1 RES1    0.0000
     22 C12        6.1273   -2.2402   10.1457 C.ar      1 RES1    0.0000
     23 H7         6.1693   -3.1058   10.4846 H         1 RES1    0.0000
     24 C13        5.6258   -2.0184    8.9187 C.ar      1 RES1    0.0000
     25 H8         5.3133   -2.7424    8.4247 H         1 RES1    0.0000
     26 C14        5.5561   -0.7363    8.3567 C.ar      1 RES1    0.0000
     27 H9         5.2173   -0.6070    7.5004 H         1 RES1    0.0000
     28 C15        4.9240    2.1354    7.5174 C.3       1 RES1    0.0000
     29 H10        5.2049    1.8972    6.6091 H         1 RES1    0.0000
     30 C16        4.7817    3.6747    7.5673 C.3       1 RES1    0.0000
     31 H11        5.6189    4.0939    7.3145 H         1 RES1    0.0000
     32 H12        4.0953    3.9646    6.9448 H         1 RES1    0.0000
     33 C17        4.4113    4.0762    8.9516 C.2       1 RES1    0.0000
     34 C18        3.5399    1.5325    7.7405 C.ar      1 RES1    0.0000
     35 C19        2.9641    1.3460    8.9931 C.ar      1 RES1    0.0000
     36 H13        3.4667    1.5080    9.7590 H         1 RES1    0.0000
     37 C20        1.6538    0.9255    9.1142 C.ar      1 RES1    0.0000
     38 H14        1.2750    0.8125    9.9566 H         1 RES1    0.0000
     39 C21        0.9130    0.6737    7.9902 C.ar      1 RES1    0.0000
     40 H15        0.0338    0.3838    8.0741 H         1 RES1    0.0000
     41 C22        1.4625    0.8479    6.7185 C.ar      1 RES1    0.0000
     42 H16        0.9563    0.6805    5.9557 H         1 RES1    0.0000
     43 C23        2.7832    1.2780    6.6165 C.ar      1 RES1    0.0000
     44 H17        3.1616    1.3950    5.7751 H         1 RES1    0.0000
@<TRIPOS>BOND
     1    1    3 1
     2    2    5 2
     3    3    5 1
     4    4    1 1
     5    5    7 1
     6    6   33 2
     7    7    8 ar
     8    8    9 1
     9   10    8 ar
    10   11   10 1
    11   12   10 ar
    12   13   12 1
    13   14   12 ar
    14   15   14 1
    15   16    1 1
    16   17    3 1
    17   18   17 ar
    18   19   18 1
    19   20   18 ar
    20   21   20 1
    21   22   20 ar
    22   23   22 1
    23   24   22 ar
    24   25   24 1
    25   26   17 ar
    26   27   26 1
    27   28    3 1
    28   29   28 1
    29   30   28 1
    30   31   30 1
    31   32   30 1
    32   33    4 1
    33   34   28 1
    34   35   34 ar
    35   36   35 1
    36   37   35 ar
    37   38   37 1
    38   39   37 ar
    39   40   39 1
    40   41   39 ar
    41   42   41 1
    42   43   34 ar
    43   44   43 1
    44    7   16 ar
    45   14   16 ar
    46   24   26 ar
    47   30   33 1
    48   41   43 ar
@<TRIPOS>SUBSTRUCTURE
     1 RES1 1

@<TRIPOS>CRYSIN
  12.2240   13.6100   11.2640  90.0000 109.4100  90.0000  14 1

