# MOL2 file generated by ConQuest
# Please check atom types

@<TRIPOS>MOLECULE
ZUBYEC
    46    49     1
SMALL
NO_CHARGES
****
Generated from CSD

@<TRIPOS>ATOM
      1 C1         3.0457    6.8279    9.5731 C.ar      1 RES1    0.0000
      2 C2         4.5960    6.6161    7.7452 C.ar      1 RES1    0.0000
      3 C3         6.5399    7.9624    7.4100 C.3       1 RES1    0.0000
      4 C4         3.8130    7.8591   10.0917 C.ar      1 RES1    0.0000
      5 C5         3.4287    6.1899    8.3965 C.ar      1 RES1    0.0000
      6 C6         4.3931    2.3550    9.2908 C.ar      1 RES1    0.0000
      7 C7         3.6095    3.0142    7.0855 C.ar      1 RES1    0.0000
      8 C8         5.6731    3.9196    7.7050 C.2       1 RES1    0.0000
      9 C9         4.9853    8.2774    9.4542 C.ar      1 RES1    0.0000
     10 C10        5.3632    7.6447    8.2858 C.ar      1 RES1    0.0000
     11 C11        4.5620    3.0526    8.0932 C.ar      1 RES1    0.0000
     12 C12        2.4637    2.2438    7.2068 C.ar      1 RES1    0.0000
     13 C13        3.3689    3.9818    4.8054 C.2       1 RES1    0.0000
     14 C14        3.9875    4.7483    3.6915 C.3       1 RES1    0.0000
     15 C15        5.3015    4.5312    6.3375 C.3       1 RES1    0.0000
     16 C16        5.2177    6.0641    6.4683 C.3       1 RES1    0.0000
     17 C17        6.6294    6.6651    6.5640 C.3       1 RES1    0.0000
     18 C18        2.3137    1.5435    8.3957 C.ar      1 RES1    0.0000
     19 C19        3.2303    1.5819    9.4280 C.ar      1 RES1    0.0000
     20 C20        2.3289    8.1252   11.9679 C.3       1 RES1    0.0000
     21 O1         6.6924    4.1883    8.3037 O.2       1 RES1    0.0000
     22 O2         3.5112    8.5395   11.2618 O.3       1 RES1    0.0000
     23 O3         6.3629    9.1127    6.6013 O.3       1 RES1    0.0000
     24 O4         6.5847    7.1072    4.2531 O.2       1 RES1    0.0000
     25 O5         2.2640    3.4550    4.6591 O.2       1 RES1    0.0000
     26 O6         8.4902    7.0688    5.2534 O.2       1 RES1    0.0000
     27 N1         4.0070    3.8773    6.0161 N.am      1 RES1    0.0000
     28 N2         7.2738    6.9709    5.2411 N.pl3     1 RES1    0.0000
     29 H1         5.3384    2.5739   10.0777 H         1 RES1    0.0000
     30 H2         2.2968    7.1741   12.0730 H         1 RES1    0.0000
     31 H3         2.8011    5.4704    7.9373 H         1 RES1    0.0000
     32 H4         1.9694    8.7321   12.6247 H         1 RES1    0.0000
     33 H5         1.6226    0.9783    8.5955 H         1 RES1    0.0000
     34 H6         6.1166    4.1698    5.5290 H         1 RES1    0.0000
     35 H7         7.1705    5.9542    7.0112 H         1 RES1    0.0000
     36 H8         4.7383    6.4003    5.6143 H         1 RES1    0.0000
     37 H9         2.2596    6.4387   10.2232 H         1 RES1    0.0000
     38 H10        5.4149    9.2649    6.3679 H         1 RES1    0.0000
     39 H11        3.3846    1.0863   10.4085 H         1 RES1    0.0000
     40 H12        1.7995    8.2773   11.1585 H         1 RES1    0.0000
     41 H13        1.8222    2.1556    6.4853 H         1 RES1    0.0000
     42 H14        5.5182    9.0000    9.7952 H         1 RES1    0.0000
     43 H15        7.3316    8.1053    7.9265 H         1 RES1    0.0000
     44 H16        3.5333    5.5977    3.5820 H         1 RES1    0.0000
     45 H17        3.9546    4.2825    2.8755 H         1 RES1    0.0000
     46 H18        4.8998    4.9426    3.9134 H         1 RES1    0.0000
@<TRIPOS>BOND
     1    1    4 ar
     2    2    5 ar
     3    3   10 1
     4    4    9 ar
     5    5    1 ar
     6    6   11 ar
     7    7   11 ar
     8    8   11 1
     9    9   10 ar
    10   10    2 ar
    11   12    7 ar
    12   13   14 1
    13   14   44 1
    14   15    8 1
    15   16    2 1
    16   17    3 1
    17   18   12 ar
    18   19    6 ar
    19   20   22 1
    20   21    8 2
    21   22    4 1
    22   23    3 1
    23   24   28 2
    24   25   13 2
    25   26   28 2
    26   27    7 1
    27   28   17 1
    28   29    6 1
    29   30   20 1
    30   31    5 1
    31   32   20 1
    32   33   18 1
    33   34   15 1
    34   35   17 1
    35   36   16 1
    36   37    1 1
    37   38   23 1
    38   39   19 1
    39   40   20 1
    40   41   12 1
    41   42    9 1
    42   43    3 1
    43   45   14 1
    44   46   14 1
    45   13   27 1
    46   15   16 1
    47   15   27 1
    48   16   17 1
    49   18   19 ar
@<TRIPOS>SUBSTRUCTURE
     1 RES1 1

@<TRIPOS>CRYSIN
   6.2993   13.2375   20.8170  90.0000  90.0000  90.0000  19 1

