# MOL2 file generated by ConQuest
# Please check atom types

@<TRIPOS>MOLECULE
ZUCMOB
    28    29     1
SMALL
NO_CHARGES
****
Generated from CSD

@<TRIPOS>ATOM
      1 C1        10.6569    1.5851    7.7335 C.2       1 RES1    0.0000
      2 C2        10.8067    0.7863    6.6547 C.2       1 RES1    0.0000
      3 C3        11.7478    2.5049    7.6601 C.2       1 RES1    0.0000
      4 C4         8.5841    2.0739   10.5239 C.ar      1 RES1    0.0000
      5 C5         8.5322    2.9541   11.5997 C.ar      1 RES1    0.0000
      6 C6         7.5920    2.8873   12.5942 C.ar      1 RES1    0.0000
      7 H1         7.5922    3.5006   13.2935 H         1 RES1    0.0000
      8 C7         6.6517    1.8906   12.5277 C.ar      1 RES1    0.0000
      9 H2         6.0047    1.8159   13.1927 H         1 RES1    0.0000
     10 C8         6.6667    1.0013   11.4791 C.ar      1 RES1    0.0000
     11 H3         6.0255    0.3281   11.4437 H         1 RES1    0.0000
     12 C9         7.6164    1.0861   10.4710 C.ar      1 RES1    0.0000
     13 H4         7.6029    0.4820    9.7637 H         1 RES1    0.0000
     14 C10       10.0236   -0.3428    6.1245 C.3       1 RES1    0.0000
     15 H5         9.6130   -0.0860    5.2948 H         1 RES1    0.0000
     16 H6         9.3434   -0.5849    6.7573 H         1 RES1    0.0000
     17 H7        10.6044   -1.0918    5.9756 H         1 RES1    0.0000
     18 C11       12.1210    3.6386    8.5452 C.3       1 RES1    0.0000
     19 H8        12.9109    4.0651    8.2021 H         1 RES1    0.0000
     20 H9        12.2930    3.3105    9.4312 H         1 RES1    0.0000
     21 H10       11.4017    4.2733    8.5735 H         1 RES1    0.0000
     22 N1         9.6371    1.4097    8.6543 N.2       1 RES1    0.0000
     23 N2         9.6067    2.2843    9.5571 N.2       1 RES1    0.0000
     24 O1        11.8864    1.1608    5.9565 O.3       1 RES1    0.0000
     25 N3         9.5664    3.9916   11.6929 N.pl3     1 RES1    0.0000
     26 O2        10.7295    3.6556   11.7792 O.2       1 RES1    0.0000
     27 O3         9.2019    5.1252   11.7139 O.2       1 RES1    0.0000
     28 N4        12.4914    2.2696    6.6195 N.2       1 RES1    0.0000
@<TRIPOS>BOND
     1    1    2 2
     2    2   14 1
     3    3    1 1
     4    4    5 ar
     5    5    6 ar
     6    6    7 1
     7    8    6 ar
     8    9    8 1
     9   10    8 ar
    10   11   10 1
    11   12    4 ar
    12   13   12 1
    13   14   15 1
    14   16   14 1
    15   17   14 1
    16   18    3 1
    17   19   18 1
    18   20   18 1
    19   21   18 1
    20   22    1 1
    21   23    4 1
    22   24    2 1
    23   25    5 1
    24   26   25 2
    25   27   25 2
    26   28    3 2
    27   10   12 ar
    28   22   23 2
    29   24   28 1
@<TRIPOS>SUBSTRUCTURE
     1 RES1 1

@<TRIPOS>CRYSIN
  11.7650   11.3140   17.7740  90.0000  95.7500  90.0000  15 1

