# MOL2 file generated by ConQuest
# Please check atom types

@<TRIPOS>MOLECULE
ZUDGOU
    32    32     1
SMALL
NO_CHARGES
****
Generated from CSD

@<TRIPOS>ATOM
      1 O1         1.0016   11.2415   15.3516 O.3       1 RES1    0.0000
      2 O2         0.0998   15.9246   18.4889 O.2       1 RES1    0.0000
      3 O3         1.9537   14.8528   18.2219 O.2       1 RES1    0.0000
      4 O4         4.7047    9.8223   18.5714 O.2       1 RES1    0.0000
      5 O5         2.7402    9.2657   19.3141 O.2       1 RES1    0.0000
      6 O6         4.2256   10.7417   15.6202 O.2       1 RES1    0.0000
      7 O7         2.8237    9.1345   16.0570 O.2       1 RES1    0.0000
      8 O8         3.8836   12.4445   18.9484 O.2       1 RES1    0.0000
      9 O9         3.5762   12.9656   16.8515 O.2       1 RES1    0.0000
     10 N1         0.7431   14.9083   18.2753 N.pl3     1 RES1    0.0000
     11 N2         3.4873    9.9003   18.6086 N.pl3     1 RES1    0.0000
     12 N3         3.3509   10.2146   16.2690 N.pl3     1 RES1    0.0000
     13 N4         3.5348   12.2070   17.8029 N.pl3     1 RES1    0.0000
     14 C1         0.7960   11.8666   16.5440 C.2       1 RES1    0.0000
     15 C2         0.1975   13.0318   16.7285 C.2       1 RES1    0.0000
     16 C3        -0.0482   13.5943   18.0925 C.3       1 RES1    0.0000
     17 C4         0.3176   12.6891   19.2348 C.2       1 RES1    0.0000
     18 C5         0.9209   11.5263   19.0277 C.2       1 RES1    0.0000
     19 C6         1.3368   11.0075   17.6669 C.3       1 RES1    0.0000
     20 C7         0.4302   11.8749   14.1915 C.3       1 RES1    0.0000
     21 C8         2.8698   10.8693   17.5763 C.3       1 RES1    0.0000
     22 C9        -0.0889   13.1547   20.6020 C.3       1 RES1    0.0000
     23 H1        -0.0869   13.5269   15.9680 H         1 RES1    0.0000
     24 H2        -1.0227   13.8082   18.1685 H         1 RES1    0.0000
     25 H3         1.1048   10.9815   19.7833 H         1 RES1    0.0000
     26 H4         0.9460   10.0941   17.5602 H         1 RES1    0.0000
     27 H5         0.5978   11.3207   13.4003 H         1 RES1    0.0000
     28 H6         0.0862   12.7565   14.0653 H         1 RES1    0.0000
     29 H7        -0.5361   11.9789   14.3177 H         1 RES1    0.0000
     30 H8        -1.0525   13.3319   20.6149 H         1 RES1    0.0000
     31 H9         0.3970   13.9760   20.8253 H         1 RES1    0.0000
     32 H10        0.1242   12.4610   21.2605 H         1 RES1    0.0000
@<TRIPOS>BOND
     1    1   14 1
     2    2   10 2
     3    3   10 2
     4    4   11 2
     5    5   11 2
     6    6   12 2
     7    7   12 2
     8    8   13 2
     9    9   13 2
    10   10   16 1
    11   11   21 1
    12   12   21 1
    13   13   21 1
    14   14   15 2
    15   15   16 1
    16   16   17 1
    17   17   18 2
    18   18   19 1
    19   19   14 1
    20   20    1 1
    21   21   19 1
    22   22   17 1
    23   23   15 1
    24   24   16 1
    25   25   18 1
    26   26   19 1
    27   27   20 1
    28   28   20 1
    29   29   20 1
    30   30   22 1
    31   31   22 1
    32   32   22 1
@<TRIPOS>SUBSTRUCTURE
     1 RES1 1

@<TRIPOS>CRYSIN
   6.7860   11.8170   16.1800  90.0000  90.0000  90.0000  19 1

