# MOL2 file generated by ConQuest
# Please check atom types

@<TRIPOS>MOLECULE
ZUGPOG
    18    18     1
SMALL
NO_CHARGES
****
Generated from CSD

@<TRIPOS>ATOM
      1 C1         4.1521    4.8278    1.5187 C.ar      1 RES1    0.0000
      2 C2         3.3147    4.4361    0.4764 C.ar      1 RES1    0.0000
      3 C3         2.6547    5.3301   -0.3410 C.ar      1 RES1    0.0000
      4 C4         2.8182    6.6747   -0.0926 C.ar      1 RES1    0.0000
      5 C5         3.6347    7.0989    0.9283 C.ar      1 RES1    0.0000
      6 C6         4.3116    6.2064    1.7467 C.ar      1 RES1    0.0000
      7 C7         4.8559    3.9176    2.3778 C.1       1 RES1    0.0000
      8 N1         5.4710    3.3197    3.1300 N.1       1 RES1    0.0000
      9 N2         3.1313    3.0045    0.1802 N.pl3     1 RES1    0.0000
     10 O1         3.7035    2.1945    0.8917 O.2       1 RES1    0.0000
     11 O2         2.4215    2.6820   -0.7563 O.2       1 RES1    0.0000
     12 C8         5.2138    6.6791    2.8389 C.3       1 RES1    0.0000
     13 H1         2.0536    5.0959   -1.0688 H         1 RES1    0.0000
     14 H2         2.2630    7.3345   -0.6413 H         1 RES1    0.0000
     15 H3         3.7384    7.9237    1.0586 H         1 RES1    0.0000
     16 H4         5.1938    7.6880    2.8705 H         1 RES1    0.0000
     17 H5         6.1409    6.3183    2.7280 H         1 RES1    0.0000
     18 H6         4.8649    6.3183    3.7357 H         1 RES1    0.0000
@<TRIPOS>BOND
     1    1    2 ar
     2    2    3 ar
     3    3    4 ar
     4    4    5 ar
     5    5    6 ar
     6    6    1 ar
     7    7    1 1
     8    8    7 3
     9    9    2 1
    10   10    9 2
    11   11    9 2
    12   12    6 1
    13   13    3 1
    14   14    4 1
    15   15    5 1
    16   16   12 1
    17   17   12 1
    18   18   12 1
@<TRIPOS>SUBSTRUCTURE
     1 RES1 1

@<TRIPOS>CRYSIN
   9.9690   14.7280   10.1790  90.0000  90.0000  90.0000  61 1

