# MOL2 file generated by ConQuest
# Please check atom types

@<TRIPOS>MOLECULE
ZUGPUM
    28    29     1
SMALL
NO_CHARGES
****
Generated from CSD

@<TRIPOS>ATOM
      1 C1         2.2495    3.2104    8.3698 C.3       1 RES1    0.0000
      2 C2         3.2906    4.2576    8.0350 C.3       1 RES1    0.0000
      3 C3         1.6447    4.0980    6.1945 C.3       1 RES1    0.0000
      4 C4         1.0258    3.4477    7.4466 C.3       1 RES1    0.0000
      5 C5         0.3399    2.0959    7.2196 C.3       1 RES1    0.0000
      6 C6         2.6605    1.7784    8.0119 C.3       1 RES1    0.0000
      7 N1         2.9674    4.4764    6.6358 N.pl3     1 RES1    0.0000
      8 N2         1.4170    1.1867    7.5578 N.3       1 RES1    0.0000
      9 N3         3.8133    5.0922    5.8077 N.pl3     1 RES1    0.0000
     10 N4         1.3721   -0.1106    7.2115 N.pl3     1 RES1    0.0000
     11 N5         1.8915    3.2288    9.8373 N.pl3     1 RES1    0.0000
     12 N6         0.0376    4.4468    8.0293 N.pl3     1 RES1    0.0000
     13 O1         4.8959    5.4651    6.2629 O.2       1 RES1    0.0000
     14 O2         3.4470    5.2141    4.6401 O.2       1 RES1    0.0000
     15 O3         2.3950   -0.7665    7.4258 O.2       1 RES1    0.0000
     16 O4         0.3221   -0.5300    6.7470 O.2       1 RES1    0.0000
     17 O5         0.8642    2.6379   10.1478 O.2       1 RES1    0.0000
     18 O6         2.6608    3.7693   10.5972 O.2       1 RES1    0.0000
     19 O7         0.4386    5.2382    8.8597 O.2       1 RES1    0.0000
     20 O8        -1.0865    4.4227    7.5567 O.2       1 RES1    0.0000
     21 H1         3.1078    5.0441    8.5458 H         1 RES1    0.0000
     22 H2         4.2159    3.9224    8.0883 H         1 RES1    0.0000
     23 H3         1.0844    4.8437    5.9872 H         1 RES1    0.0000
     24 H4         1.7179    3.4806    5.4775 H         1 RES1    0.0000
     25 H5        -0.4130    1.9371    7.8961 H         1 RES1    0.0000
     26 H6         0.0557    1.9548    6.2988 H         1 RES1    0.0000
     27 H7         2.9576    1.3085    8.7509 H         1 RES1    0.0000
     28 H8         3.2983    1.7944    7.3401 H         1 RES1    0.0000
@<TRIPOS>BOND
     1    1    2 1
     2    2    7 1
     3    3    4 1
     4    4    1 1
     5    5    4 1
     6    6    1 1
     7    7    3 1
     8    8    5 1
     9    9    7 1
    10   10    8 1
    11   11    1 1
    12   12    4 1
    13   13    9 2
    14   14    9 2
    15   15   10 2
    16   16   10 2
    17   17   11 2
    18   18   11 2
    19   19   12 2
    20   20   12 2
    21   21    2 1
    22   22    2 1
    23   23    3 1
    24   24    3 1
    25   25    5 1
    26   26    5 1
    27   27    6 1
    28   28    6 1
    29    6    8 1
@<TRIPOS>SUBSTRUCTURE
     1 RES1 1

@<TRIPOS>CRYSIN
  11.5590    8.0180   11.6970  90.0000  98.0100  90.0000  14 1

