# MOL2 file generated by ConQuest
# Please check atom types

@<TRIPOS>MOLECULE
ZUHQUO
    23    24     1
SMALL
NO_CHARGES
****
Generated from CSD

@<TRIPOS>ATOM
      1 C1         5.3467    2.8299   10.6809 C.3       1 RES1    0.0000
      2 C2         5.8790    4.1966   10.3410 C.3       1 RES1    0.0000
      3 H1         5.1941    4.7078    9.9032 H         1 RES1    0.0000
      4 H2         6.6360    4.1100    9.7569 H         1 RES1    0.0000
      5 H3         6.1464    4.6450   11.1464 H         1 RES1    0.0000
      6 N1         3.9024    2.7129   10.7754 N.am      1 RES1    0.0000
      7 N2         3.1700    3.4862   11.6914 N.pl3     1 RES1    0.0000
      8 O1         3.8311    4.1403   12.4657 O.2       1 RES1    0.0000
      9 O2         1.9602    3.4710   11.5889 O.2       1 RES1    0.0000
     10 C3         3.3929    1.4675   10.3652 C.2       1 RES1    0.0000
     11 O3         2.3117    1.0115   10.5576 O.2       1 RES1    0.0000
     12 N3         4.5032    0.8772    9.7327 N.am      1 RES1    0.0000
     13 N4         4.5245   -0.5123    9.4999 N.pl3     1 RES1    0.0000
     14 O4         3.4565   -1.0852    9.3997 O.2       1 RES1    0.0000
     15 O5         5.6305   -1.0018    9.4100 O.2       1 RES1    0.0000
     16 C4         5.7547    1.5898    9.9285 C.3       1 RES1    0.0000
     17 C5         6.7240    1.6310    8.7763 C.3       1 RES1    0.0000
     18 H4         6.2474    1.4989    7.9525 H         1 RES1    0.0000
     19 H5         7.3769    0.9357    8.8823 H         1 RES1    0.0000
     20 H6         7.1642    2.4833    8.7590 H         1 RES1    0.0000
     21 C6         6.1412    1.7577   11.3734 C.3       1 RES1    0.0000
     22 H7         5.6843    1.2097   12.0302 H         1 RES1    0.0000
     23 H8         7.0718    1.9440   11.5739 H         1 RES1    0.0000
@<TRIPOS>BOND
     1    1    2 1
     2    2    3 1
     3    4    2 1
     4    5    2 1
     5    6    1 1
     6    7    6 1
     7    8    7 2
     8    9    7 2
     9   10    6 1
    10   11   10 2
    11   12   10 1
    12   13   12 1
    13   14   13 2
    14   15   13 2
    15   16    1 1
    16   17   16 1
    17   18   17 1
    18   19   17 1
    19   20   17 1
    20   21    1 1
    21   22   21 1
    22   23   21 1
    23   12   16 1
    24   16   21 1
@<TRIPOS>SUBSTRUCTURE
     1 RES1 1

@<TRIPOS>CRYSIN
   7.3060   10.8300   11.5250  90.0000  91.3000  90.0000  14 1

