# MOL2 file generated by ConQuest
# Please check atom types

@<TRIPOS>MOLECULE
ZUHRID01
    60    62     2
SMALL
NO_CHARGES
****
Generated from CSD

@<TRIPOS>ATOM
      1 N1         8.1192    5.2218   -6.0724 N.pl3     1 RES1    0.0000
      2 O1         8.0639    6.4405   -6.3087 O.2       1 RES1    0.0000
      3 O2         8.8607    4.4653   -6.6950 O.2       1 RES1    0.0000
      4 N2         4.9591    3.1310   -1.9589 N.3       1 RES1    0.0000
      5 O3         4.5622    1.9402    1.3692 O.3       1 RES1    0.0000
      6 H1         4.1799    2.4445    1.8911 H         1 RES1    0.0000
      7 N3         2.2857    4.2972    3.2545 N.pl3     2 RES2    0.0000
      8 O4         2.4885    5.0408    2.3007 O.2       2 RES2    0.0000
      9 O5         2.8713    3.2150    3.3553 O.2       2 RES2    0.0000
     10 N4        -1.0760    5.9386    7.3893 N.3       2 RES2    0.0000
     11 O6        -2.5529    7.5075   10.9789 O.3       2 RES2    0.0000
     12 H2        -2.8761    6.9974   11.5337 H         2 RES2    0.0000
     13 C1         5.7271    3.6598   -2.9476 C.ar      1 RES1    0.0000
     14 C2         6.5556    2.8450   -3.7290 C.ar      1 RES1    0.0000
     15 H3         6.5873    1.9320   -3.5538 H         1 RES1    0.0000
     16 C3         7.3189    3.3563   -4.7438 C.ar      1 RES1    0.0000
     17 H4         7.8627    2.7901   -5.2416 H         1 RES1    0.0000
     18 C4         7.2886    4.7035   -5.0343 C.ar      1 RES1    0.0000
     19 C5         6.4667    5.5300   -4.2916 C.ar      1 RES1    0.0000
     20 H5         6.4337    6.4394   -4.4843 H         1 RES1    0.0000
     21 C6         5.7027    5.0245   -3.2778 C.ar      1 RES1    0.0000
     22 H6         5.1523    5.5989   -2.7946 H         1 RES1    0.0000
     23 C7         5.1377    1.7651   -1.4690 C.3       1 RES1    0.0000
     24 H7         5.4369    1.1943   -2.1933 H         1 RES1    0.0000
     25 H8         4.2914    1.4219   -1.1417 H         1 RES1    0.0000
     26 C8         6.1596    1.7569   -0.3544 C.3       1 RES1    0.0000
     27 H9         7.0072    2.0943   -0.6836 H         1 RES1    0.0000
     28 H10        6.2954    0.8487   -0.0416 H         1 RES1    0.0000
     29 C9         5.6747    2.6185    0.7805 C.3       1 RES1    0.0000
     30 H11        6.3878    2.6967    1.4467 H         1 RES1    0.0000
     31 C10        5.2965    4.0053    0.3041 C.3       1 RES1    0.0000
     32 H12        6.1003    4.4933    0.0658 H         1 RES1    0.0000
     33 H13        4.8577    4.4840    1.0245 H         1 RES1    0.0000
     34 C11        4.3647    3.9458   -0.9044 C.3       1 RES1    0.0000
     35 H14        3.5122    3.5641   -0.6401 H         1 RES1    0.0000
     36 H15        4.2041    4.8424   -1.2366 H         1 RES1    0.0000
     37 C12       -0.3357    5.5125    6.3290 C.ar      2 RES2    0.0000
     38 C13        0.2851    4.2423    6.3445 C.ar      2 RES2    0.0000
     39 H16        0.1191    3.6621    7.0523 H         2 RES2    0.0000
     40 C14        1.1288    3.8478    5.3345 C.ar      2 RES2    0.0000
     41 H17        1.5463    3.0189    5.3771 H         2 RES2    0.0000
     42 C15        1.3578    4.6754    4.2597 C.ar      2 RES2    0.0000
     43 C16        0.7055    5.8860    4.1851 C.ar      2 RES2    0.0000
     44 H18        0.8280    6.4324    3.4424 H         2 RES2    0.0000
     45 C17       -0.1155    6.2853    5.1902 C.ar      2 RES2    0.0000
     46 H19       -0.5474    7.1060    5.1157 H         2 RES2    0.0000
     47 C18       -1.6877    4.9930    8.3266 C.3       2 RES2    0.0000
     48 H20       -1.1566    4.1816    8.3557 H         2 RES2    0.0000
     49 H21       -2.5753    4.7583    8.0129 H         2 RES2    0.0000
     50 C19       -1.7866    5.5755    9.7133 C.3       2 RES2    0.0000
     51 H22       -0.8950    5.7238   10.0648 H         2 RES2    0.0000
     52 H23       -2.2388    4.9463   10.2962 H         2 RES2    0.0000
     53 C20       -2.5417    6.8772    9.7026 C.3       2 RES2    0.0000
     54 H24       -3.4647    6.7114    9.4160 H         2 RES2    0.0000
     55 C21       -1.8894    7.8204    8.7421 C.3       2 RES2    0.0000
     56 H25       -1.0095    8.0539    9.0752 H         2 RES2    0.0000
     57 H26       -2.4137    8.6353    8.6927 H         2 RES2    0.0000
     58 C22       -1.7518    7.2355    7.3515 C.3       2 RES2    0.0000
     59 H27       -2.6326    7.1281    6.9584 H         2 RES2    0.0000
     60 H28       -1.2460    7.8461    6.7938 H         2 RES2    0.0000
@<TRIPOS>BOND
     1    1    2 2
     2    3    1 2
     3    4   13 1
     4    5    6 1
     5    7    8 2
     6    9    7 2
     7   10   37 1
     8   11   12 1
     9   13   14 ar
    10   14   15 1
    11   16   14 ar
    12   17   16 1
    13   18    1 1
    14   19   18 ar
    15   20   19 1
    16   21   13 ar
    17   22   21 1
    18   23    4 1
    19   24   23 1
    20   25   23 1
    21   26   23 1
    22   27   26 1
    23   28   26 1
    24   29    5 1
    25   30   29 1
    26   31   29 1
    27   32   31 1
    28   33   31 1
    29   34    4 1
    30   35   34 1
    31   36   34 1
    32   37   38 ar
    33   38   39 1
    34   40   38 ar
    35   41   40 1
    36   42    7 1
    37   43   42 ar
    38   44   43 1
    39   45   37 ar
    40   46   45 1
    41   47   10 1
    42   48   47 1
    43   49   47 1
    44   50   47 1
    45   51   50 1
    46   52   50 1
    47   53   11 1
    48   54   53 1
    49   55   53 1
    50   56   55 1
    51   57   55 1
    52   58   10 1
    53   59   58 1
    54   60   58 1
    55   16   18 ar
    56   19   21 ar
    57   26   29 1
    58   31   34 1
    59   40   42 ar
    60   43   45 ar
    61   50   53 1
    62   55   58 1
@<TRIPOS>SUBSTRUCTURE
     1 RES1 1
     2 RES2 7

@<TRIPOS>CRYSIN
   9.5423   11.6740    9.7854  90.0000  98.2850  90.0000   4 1

