# MOL2 file generated by ConQuest
# Please check atom types

@<TRIPOS>MOLECULE
ZUHRID
    30    31     1
SMALL
NO_CHARGES
****
Generated from CSD

@<TRIPOS>ATOM
      1 C1         1.1401    6.8659   15.2244 C.3       1 RES1    0.0000
      2 C2         0.5148    8.2035   14.9241 C.3       1 RES1    0.0000
      3 C3         1.0045    8.7545   13.5967 C.3       1 RES1    0.0000
      4 C4         1.4524    6.5310   12.7718 C.3       1 RES1    0.0000
      5 C5         0.9387    5.9206   14.0692 C.3       1 RES1    0.0000
      6 C6        -0.1045    8.0058   11.5004 C.ar      1 RES1    0.0000
      7 C7        -0.9278    9.1456   11.4423 C.ar      1 RES1    0.0000
      8 C8        -1.8238    9.3325   10.4353 C.ar      1 RES1    0.0000
      9 C9        -1.9388    8.3904    9.4242 C.ar      1 RES1    0.0000
     10 C10       -1.1159    7.2776    9.4141 C.ar      1 RES1    0.0000
     11 C11       -0.2193    7.0788   10.4332 C.ar      1 RES1    0.0000
     12 N1         0.7753    7.8005   12.5215 N.pl3     1 RES1    0.0000
     13 N2        -2.9226    8.5665    8.3971 N.pl3     1 RES1    0.0000
     14 O1         0.5977    6.2836   16.4017 O.3       1 RES1    0.0000
     15 O2        -3.5574    9.6188    8.3630 O.2       1 RES1    0.0000
     16 O3        -3.1039    7.6719    7.5802 O.2       1 RES1    0.0000
     17 H1         2.1352    7.0118   15.3766 H         1 RES1    0.0000
     18 H2         1.1476    6.5580   17.2186 H         1 RES1    0.0000
     19 H3         0.8198    8.8161   15.7570 H         1 RES1    0.0000
     20 H4        -0.4971    8.0706   14.8961 H         1 RES1    0.0000
     21 H5         0.6951    9.6264   13.4545 H         1 RES1    0.0000
     22 H6         2.0603    8.7620   13.7348 H         1 RES1    0.0000
     23 H7         1.2085    5.8558   12.1731 H         1 RES1    0.0000
     24 H8         2.3417    6.7417   12.9339 H         1 RES1    0.0000
     25 H9         0.8268    4.9266   14.7960 H         1 RES1    0.0000
     26 H10       -0.0719    5.7801   13.9350 H         1 RES1    0.0000
     27 H11       -0.9329    9.7884   12.2332 H         1 RES1    0.0000
     28 H12       -2.4022   10.0585   10.4913 H         1 RES1    0.0000
     29 H13       -1.0796    6.7309    8.6093 H         1 RES1    0.0000
     30 H14        0.4821    6.2879   10.3512 H         1 RES1    0.0000
@<TRIPOS>BOND
     1    1    2 1
     2    2    3 1
     3    3   12 1
     4    4    5 1
     5    5    1 1
     6    6    7 ar
     7    7    8 ar
     8    8    9 ar
     9    9   10 ar
    10   10   11 ar
    11   11    6 ar
    12   12    4 1
    13   13    9 1
    14   14    1 1
    15   15   13 2
    16   16   13 2
    17   17    1 1
    18   18   14 1
    19   19    2 1
    20   20    2 1
    21   21    3 1
    22   22    3 1
    23   23    4 1
    24   24    4 1
    25   25    5 1
    26   26    5 1
    27   27    7 1
    28   28    8 1
    29   29   10 1
    30   30   11 1
    31    6   12 1
@<TRIPOS>SUBSTRUCTURE
     1 RES1 1

@<TRIPOS>CRYSIN
   4.8630   10.8040   20.1390  90.0000  96.1900  90.0000 231 1

