# MOL2 file generated by ConQuest
# Please check atom types

@<TRIPOS>MOLECULE
ZUHXAB01
    51    50     2
SMALL
NO_CHARGES
****
Generated from CSD

@<TRIPOS>ATOM
      1 O1        -1.9210    8.4910    0.3671 O.2       1 RES1    0.0000
      2 O2        -0.0929    7.8337    1.2539 O.2       1 RES1    0.0000
      3 O3        -3.2708    7.0981   -3.9743 O.2       1 RES1    0.0000
      4 O4        -2.1013    5.6237   -5.0155 O.2       1 RES1    0.0000
      5 O5         2.7161   -1.8284    4.0003 O.2       1 RES1    0.0000
      6 O6         3.2016   -2.9518    5.7538 O.2       1 RES1    0.0000
      7 O7         6.6763   -1.7002    8.6728 O.2       1 RES1    0.0000
      8 O8         7.7647    0.1435    8.3516 O.2       1 RES1    0.0000
      9 N1         2.0074    4.6581    0.2889 N.2       1 RES1    0.0000
     10 N2         1.0242    5.6461    0.3772 N.pl3     1 RES1    0.0000
     11 H1         0.9122    6.2607    1.0733 H         1 RES1    0.0000
     12 N3        -0.9252    7.7808    0.3631 N.pl3     1 RES1    0.0000
     13 N4        -2.3476    6.3024   -4.0324 N.pl3     1 RES1    0.0000
     14 N5         4.1273    1.6799    2.8634 N.2       1 RES1    0.0000
     15 N6         3.8972    0.4681    3.4827 N.pl3     1 RES1    0.0000
     16 H2         3.2734   -0.1333    3.1557 H         1 RES1    0.0000
     17 N7         3.3852   -1.9963    5.0107 N.pl3     1 RES1    0.0000
     18 N8         6.9068   -0.6715    8.0541 N.pl3     1 RES1    0.0000
     19 C1         2.6117    4.3671    1.3843 C.2       1 RES1    0.0000
     20 C2         3.6874    3.3293    1.2579 C.3       1 RES1    0.0000
     21 H3         4.5020    3.6752    1.6551 H         1 RES1    0.0000
     22 H4         3.8616    3.1736    0.3170 H         1 RES1    0.0000
     23 C3         3.3460    2.0075    1.9159 C.2       1 RES1    0.0000
     24 C4         2.2988    4.9278    2.7144 C.3       1 RES1    0.0000
     25 H5         1.3793    5.2015    2.7384 H         1 RES1    0.0000
     26 H6         2.8631    5.6858    2.8829 H         1 RES1    0.0000
     27 H7         2.4506    4.2593    3.3885 H         1 RES1    0.0000
     28 C5         2.1772    1.2383    1.4063 C.3       1 RES1    0.0000
     29 H8         2.4328    0.3246    1.2639 H         1 RES1    0.0000
     30 H9         1.8789    1.6209    0.5798 H         1 RES1    0.0000
     31 H10        1.4655    1.2749    2.0503 H         1 RES1    0.0000
     32 C6         0.2192    5.8394   -0.6941 C.ar      1 RES1    0.0000
     33 C7        -0.7367    6.8539   -0.7343 C.ar      1 RES1    0.0000
     34 C8        -1.5986    6.9862   -1.8296 C.ar      1 RES1    0.0000
     35 H11       -2.2483    7.6516   -1.8377 H         1 RES1    0.0000
     36 C9        -1.4781    6.1406   -2.8729 C.ar      1 RES1    0.0000
     37 C10       -0.5172    5.1577   -2.8769 C.ar      1 RES1    0.0000
     38 H12       -0.4289    4.6042   -3.6192 H         1 RES1    0.0000
     39 C11        0.2941    4.9878   -1.8216 C.ar      1 RES1    0.0000
     40 H13        0.9181    4.2979   -1.8337 H         1 RES1    0.0000
     41 C12        4.6105    0.1282    4.5561 C.ar      1 RES1    0.0000
     42 C13        4.4214   -1.0277    5.3244 C.ar      1 RES1    0.0000
     43 C14        5.1759   -1.2912    6.4800 C.ar      1 RES1    0.0000
     44 H14        5.0295   -2.0665    6.9735 H         1 RES1    0.0000
     45 C15        6.1036   -0.4141    6.8618 C.ar      1 RES1    0.0000
     46 C16        6.3987    0.7234    6.1028 C.ar      1 RES1    0.0000
     47 H15        7.0818    1.3004    6.3576 H         1 RES1    0.0000
     48 C17        5.6710    0.9666    4.9874 C.ar      1 RES1    0.0000
     49 H16        5.8751    1.7186    4.4798 H         1 RES1    0.0000
     50 O9        -1.5806    8.7963    0.1565 Du        2 SUP2    0.0000
     51 O10       -0.4320    7.5295    1.4485 Du        2 SUP2    0.0000
@<TRIPOS>BOND
     1    1   12 2
     2    2   12 2
     3    3   13 2
     4    4   13 2
     5    5   17 2
     6    6   17 2
     7    7   18 2
     8    8   18 2
     9    9   10 1
    10   10   11 1
    11   12   33 1
    12   13   36 1
    13   14   15 1
    14   15   16 1
    15   17   42 1
    16   18   45 1
    17   19    9 2
    18   20   19 1
    19   21   20 1
    20   22   20 1
    21   23   14 2
    22   24   19 1
    23   25   24 1
    24   26   24 1
    25   27   24 1
    26   28   23 1
    27   29   28 1
    28   30   28 1
    29   31   28 1
    30   32   10 1
    31   33   32 ar
    32   34   33 ar
    33   35   34 1
    34   36   34 ar
    35   37   36 ar
    36   38   37 1
    37   39   32 ar
    38   40   39 1
    39   41   15 1
    40   42   41 ar
    41   43   42 ar
    42   44   43 1
    43   45   43 ar
    44   46   45 ar
    45   47   46 1
    46   48   41 ar
    47   49   48 1
    48   20   23 1
    49   37   39 ar
    50   46   48 ar
@<TRIPOS>SUBSTRUCTURE
     1 RES1 1
     2 SUP2 50

