# MOL2 file generated by ConQuest
# Please check atom types

@<TRIPOS>MOLECULE
ZUHXEF
    58    60     2
SMALL
NO_CHARGES
****
Generated from CSD

@<TRIPOS>ATOM
      1 O1         9.9151    1.2284    1.4864 O.2       1 RES1    0.0000
      2 O2        11.8688    1.5622    2.3421 O.2       1 RES1    0.0000
      3 O3        15.2942   -1.4504    0.8557 O.2       1 RES1    0.0000
      4 O4        14.8270   -3.4460    0.4133 O.2       1 RES1    0.0000
      5 N1        11.0228    0.8413    1.8323 N.pl3     1 RES1    0.0000
      6 N2        14.5012   -2.3465    0.6996 N.pl3     1 RES1    0.0000
      7 N3         9.1170   -1.3795    2.0436 N.pl3     1 RES1    0.0000
      8 N4         8.1144   -1.5815    1.1282 N.2       1 RES1    0.0000
      9 C1        11.3918   -0.5567    1.5966 C.ar      1 RES1    0.0000
     10 C2        12.7016   -0.7973    1.2874 C.ar      1 RES1    0.0000
     11 C3        13.0763   -2.0905    0.9874 C.ar      1 RES1    0.0000
     12 C4        12.1813   -3.1307    0.9843 C.ar      1 RES1    0.0000
     13 C5        10.8861   -2.8754    1.3302 C.ar      1 RES1    0.0000
     14 C6        10.4536   -1.5862    1.6502 C.ar      1 RES1    0.0000
     15 C7         8.6478   -0.9315    3.2422 C.2       1 RES1    0.0000
     16 C8         9.5253   -0.7194    4.4194 C.3       1 RES1    0.0000
     17 C9         7.3029   -0.8390    3.0922 C.2       1 RES1    0.0000
     18 C10        7.0066   -1.2438    1.7910 C.2       1 RES1    0.0000
     19 C11        5.6658   -1.3664    1.1435 C.3       1 RES1    0.0000
     20 O5        16.1182    1.1682    8.8586 O.2       2 RES2    0.0000
     21 O6        14.2050    1.5792    7.9662 O.2       2 RES2    0.0000
     22 O7        12.9485   -1.4088    4.4071 O.2       2 RES2    0.0000
     23 O8        13.8819   -3.2895    4.2249 O.2       2 RES2    0.0000
     24 N5        15.1213    0.8266    8.2555 N.pl3     2 RES2    0.0000
     25 N6        13.6938   -2.2740    4.8066 N.pl3     2 RES2    0.0000
     26 N7        16.1973   -1.4443    9.7801 N.pl3     2 RES2    0.0000
     27 N8        17.5538   -1.6309    9.9179 N.2       2 RES2    0.0000
     28 C12       15.0283   -0.5660    7.7978 C.ar      2 RES2    0.0000
     29 C13       14.3780   -0.7734    6.6053 C.ar      2 RES2    0.0000
     30 C14       14.3806   -2.0473    6.0879 C.ar      2 RES2    0.0000
     31 C15       14.9905   -3.1129    6.7217 C.ar      2 RES2    0.0000
     32 C16       15.5762   -2.8878    7.9447 C.ar      2 RES2    0.0000
     33 C17       15.6079   -1.6232    8.5050 C.ar      2 RES2    0.0000
     34 C18       15.5985   -1.0280   10.9298 C.2       2 RES2    0.0000
     35 C19       14.1360   -0.8366   11.0568 C.3       2 RES2    0.0000
     36 C20       16.6052   -0.9323   11.8360 C.2       2 RES2    0.0000
     37 C21       17.7845   -1.2970   11.1869 C.2       2 RES2    0.0000
     38 C22       19.1630   -1.3926   11.7579 C.3       2 RES2    0.0000
     39 H1        13.2915   -0.1619    1.2552 H         1 RES1    0.0000
     40 H2        12.4653   -3.9866    0.7654 H         1 RES1    0.0000
     41 H3        10.2364   -3.5548    1.3777 H         1 RES1    0.0000
     42 H4         9.0454   -0.3933    5.1587 H         1 RES1    0.0000
     43 H5        10.2453    0.0231    4.2862 H         1 RES1    0.0000
     44 H6         9.8594   -1.4342    4.6536 H         1 RES1    0.0000
     45 H7         6.6422   -0.5783    3.7504 H         1 RES1    0.0000
     46 H8         5.0517   -1.1335    1.6073 H         1 RES1    0.0000
     47 H9         5.5041   -2.4290    0.9491 H         1 RES1    0.0000
     48 H10        5.5694   -0.6400    0.4286 H         1 RES1    0.0000
     49 H11       14.0189   -0.0540    6.1537 H         2 RES2    0.0000
     50 H12       14.9863   -3.9403    6.3221 H         2 RES2    0.0000
     51 H13       15.9638   -3.5933    8.3734 H         2 RES2    0.0000
     52 H14       13.8117    0.0386   10.6236 H         2 RES2    0.0000
     53 H15       13.7243   -1.5114   10.8226 H         2 RES2    0.0000
     54 H16       13.8598   -0.5321   11.9554 H         2 RES2    0.0000
     55 H17       16.5389   -0.6169   12.7820 H         2 RES2    0.0000
     56 H18       19.1572   -1.1027   12.4452 H         2 RES2    0.0000
     57 H19       19.7708   -0.6940   11.3737 H         2 RES2    0.0000
     58 H20       19.5208   -2.2979   11.7105 H         2 RES2    0.0000
@<TRIPOS>BOND
     1    1    5 2
     2    2    5 2
     3    3    6 2
     4    4    6 2
     5    5    9 1
     6    6   11 1
     7    7    8 1
     8    8   18 2
     9    9   10 ar
    10   10   11 ar
    11   11   12 ar
    12   12   13 ar
    13   13   14 ar
    14   14    7 1
    15   15    7 1
    16   16   15 1
    17   17   15 2
    18   18   17 1
    19   19   18 1
    20   20   24 2
    21   21   24 2
    22   22   25 2
    23   23   25 2
    24   24   28 1
    25   25   30 1
    26   26   27 1
    27   27   37 2
    28   28   29 ar
    29   29   30 ar
    30   30   31 ar
    31   31   32 ar
    32   32   33 ar
    33   33   26 1
    34   34   26 1
    35   35   34 1
    36   36   34 2
    37   37   36 1
    38   38   37 1
    39   39   10 1
    40   40   12 1
    41   41   13 1
    42   42   16 1
    43   43   16 1
    44   44   16 1
    45   45   17 1
    46   46   19 1
    47   47   19 1
    48   48   19 1
    49   49   29 1
    50   50   31 1
    51   51   32 1
    52   52   35 1
    53   53   35 1
    54   54   35 1
    55   55   36 1
    56   56   38 1
    57   57   38 1
    58   58   38 1
    59    9   14 ar
    60   28   33 ar
@<TRIPOS>SUBSTRUCTURE
     1 RES1 1
     2 RES2 20

@<TRIPOS>CRYSIN
  20.4170    7.7110   16.7190  90.0000 113.7100  90.0000  14 1

