# MOL2 file generated by ConQuest
# Please check atom types

@<TRIPOS>MOLECULE
ZUKNEY
    42    45     1
SMALL
NO_CHARGES
****
Generated from CSD

@<TRIPOS>ATOM
      1 O1         5.2060   -3.0461    5.4479 O.2       1 RES1    0.0000
      2 O2         7.0309   -2.6004    6.4857 O.2       1 RES1    0.0000
      3 O3         5.6325    4.0998    3.9339 O.2       1 RES1    0.0000
      4 O4         5.6129    3.0800    2.0517 O.2       1 RES1    0.0000
      5 N1         6.2661   -2.4894    5.5694 N.pl3     1 RES1    0.0000
      6 N2         5.6665    3.0944    3.2625 N.pl3     1 RES1    0.0000
      7 C1         4.9410   -0.1633    6.8676 C.ar      1 RES1    0.0000
      8 C2         4.2595    0.7055    7.7154 C.ar      1 RES1    0.0000
      9 C3         4.0456    2.0119    7.3728 C.ar      1 RES1    0.0000
     10 C4         4.4719    2.4997    6.1569 C.ar      1 RES1    0.0000
     11 C5         5.7325    1.8281    3.9750 C.2       1 RES1    0.0000
     12 C6         6.3392    0.7302    3.5023 C.2       1 RES1    0.0000
     13 C7         6.1748   -0.3122    4.5436 C.2       1 RES1    0.0000
     14 C8         5.3801    0.3019    5.6397 C.ar      1 RES1    0.0000
     15 C9         5.1398    1.6411    5.3057 C.ar      1 RES1    0.0000
     16 C10        7.0203    0.5525    2.1956 C.ar      1 RES1    0.0000
     17 C11        8.1518    1.2683    1.8582 C.ar      1 RES1    0.0000
     18 C12        8.7841    1.0445    0.6439 C.ar      1 RES1    0.0000
     19 C13        8.2947    0.1202   -0.2312 C.ar      1 RES1    0.0000
     20 C14        7.1479   -0.5998    0.0736 C.ar      1 RES1    0.0000
     21 C15        6.5282   -0.3697    1.2982 C.ar      1 RES1    0.0000
     22 C16        6.6973   -1.5374    4.4922 C.2       1 RES1    0.0000
     23 C17        7.6814   -2.1813    3.6034 C.ar      1 RES1    0.0000
     24 C18        8.9203   -1.6093    3.3807 C.ar      1 RES1    0.0000
     25 C19        9.8610   -2.2235    2.5689 C.ar      1 RES1    0.0000
     26 C20        9.5879   -3.4137    2.0072 C.ar      1 RES1    0.0000
     27 C21        8.3723   -4.0228    2.2315 C.ar      1 RES1    0.0000
     28 C22        7.4233   -3.4117    3.0399 C.ar      1 RES1    0.0000
     29 H1         5.0801   -1.0783    7.0903 H         1 RES1    0.0000
     30 H2         3.9474    0.3903    8.5460 H         1 RES1    0.0000
     31 H3         3.4902    2.5983    7.9466 H         1 RES1    0.0000
     32 H4         4.3626    3.3378    5.8572 H         1 RES1    0.0000
     33 H5         8.4598    1.8691    2.4319 H         1 RES1    0.0000
     34 H6         9.5247    1.5918    0.3939 H         1 RES1    0.0000
     35 H7         8.7373   -0.0103   -1.0961 H         1 RES1    0.0000
     36 H8         6.7508   -1.2324   -0.4795 H         1 RES1    0.0000
     37 H9         5.8256   -0.9346    1.5071 H         1 RES1    0.0000
     38 H10        9.0742   -0.8216    3.7335 H         1 RES1    0.0000
     39 H11       10.6490   -1.7151    2.3977 H         1 RES1    0.0000
     40 H12       10.1622   -3.8718    1.4044 H         1 RES1    0.0000
     41 H13        8.1744   -4.8474    1.8839 H         1 RES1    0.0000
     42 H14        6.6819   -3.7280    3.1512 H         1 RES1    0.0000
@<TRIPOS>BOND
     1    1    5 2
     2    2    5 2
     3    3    6 2
     4    4    6 2
     5    5   22 1
     6    6   11 1
     7    7    8 ar
     8    8    9 ar
     9    9   10 ar
    10   10   15 ar
    11   11   12 2
    12   12   13 1
    13   13   14 1
    14   14    7 ar
    15   15   11 1
    16   16   12 1
    17   17   16 ar
    18   18   17 ar
    19   19   18 ar
    20   20   19 ar
    21   21   16 ar
    22   22   13 2
    23   23   22 1
    24   24   23 ar
    25   25   24 ar
    26   26   25 ar
    27   27   26 ar
    28   28   23 ar
    29   29    7 1
    30   30    8 1
    31   31    9 1
    32   32   10 1
    33   33   17 1
    34   34   18 1
    35   35   19 1
    36   36   20 1
    37   37   21 1
    38   38   24 1
    39   39   25 1
    40   40   26 1
    41   41   27 1
    42   42   28 1
    43   14   15 ar
    44   20   21 ar
    45   27   28 ar
@<TRIPOS>SUBSTRUCTURE
     1 RES1 1

@<TRIPOS>CRYSIN
  10.3770   10.2700   17.8480  90.0000 106.3500  90.0000  14 1

