# MOL2 file generated by ConQuest
# Please check atom types

@<TRIPOS>MOLECULE
ZUKQUR
    79    85     1
SMALL
NO_CHARGES
****
Generated from CSD

@<TRIPOS>ATOM
      1 O1         5.2727    2.6635   -0.3320 O.3       1 RES1    0.0000
      2 O2         6.4899    4.1574   -1.4895 O.2       1 RES1    0.0000
      3 O3         3.3815    2.4573    1.2306 O.3       1 RES1    0.0000
      4 O4         1.2924    1.7062    1.5664 O.2       1 RES1    0.0000
      5 O5         0.7445   -0.6874    5.8830 O.2       1 RES1    0.0000
      6 O6         2.3827   -1.8776    6.5996 O.2       1 RES1    0.0000
      7 O7         7.0608    0.1129    3.1966 O.2       1 RES1    0.0000
      8 O8         6.7622   -1.2928    4.7649 O.2       1 RES1    0.0000
      9 N1         1.9101   -1.0363    5.8755 N.pl3     1 RES1    0.0000
     10 N2         6.3633   -0.4720    3.9695 N.pl3     1 RES1    0.0000
     11 C1         4.0413    3.0780   -0.9811 C.3       1 RES1    0.0000
     12 C2         3.0167    3.3140    0.1163 C.3       1 RES1    0.0000
     13 C3         3.5682    2.0315   -2.0392 C.3       1 RES1    0.0000
     14 C4         4.7713    1.8468   -3.0297 C.3       1 RES1    0.0000
     15 C5         4.3659    0.9234   -4.1627 C.3       1 RES1    0.0000
     16 C6         3.2044    1.4672   -4.8662 C.3       1 RES1    0.0000
     17 C7         2.0342    1.6416   -3.9808 C.3       1 RES1    0.0000
     18 C8         2.4185    2.6163   -2.8327 C.3       1 RES1    0.0000
     19 C9         3.2392    0.7182   -1.4914 C.3       1 RES1    0.0000
     20 C10        2.8044   -0.2873   -2.6376 C.3       1 RES1    0.0000
     21 C11        4.0138   -0.4309   -3.5380 C.3       1 RES1    0.0000
     22 C12        2.9505    4.8119    0.5909 C.3       1 RES1    0.0000
     23 C13        4.2358    5.3762    1.0562 C.3       1 RES1    0.0000
     24 C14        4.0823    6.8845    1.5458 C.3       1 RES1    0.0000
     25 C15        3.5307    7.6540    0.4202 C.3       1 RES1    0.0000
     26 C16        2.1979    7.1307   -0.0807 C.3       1 RES1    0.0000
     27 C17        2.3478    5.6533   -0.5234 C.3       1 RES1    0.0000
     28 C18        1.9057    4.8838    1.7465 C.3       1 RES1    0.0000
     29 C19        1.6866    6.3509    2.2117 C.3       1 RES1    0.0000
     30 C20        3.0382    6.8434    2.6845 C.3       1 RES1    0.0000
     31 C21        1.6406    0.2975   -3.3467 C.3       1 RES1    0.0000
     32 C22        6.4392    3.2627   -0.7372 C.2       1 RES1    0.0000
     33 C23        7.5329    2.5958   -0.0450 C.3       1 RES1    0.0000
     34 C24        1.2095    7.1307    1.0430 C.3       1 RES1    0.0000
     35 C25        2.4344    1.7134    1.8441 C.2       1 RES1    0.0000
     36 C26        3.0717    0.9234    2.9209 C.ar      1 RES1    0.0000
     37 C27        2.2631    0.3694    3.8813 C.ar      1 RES1    0.0000
     38 C28        2.7925   -0.4104    4.8775 C.ar      1 RES1    0.0000
     39 C29        4.1164   -0.6874    4.9375 C.ar      1 RES1    0.0000
     40 C30        4.9356   -0.1231    3.9695 C.ar      1 RES1    0.0000
     41 C31        4.4204    0.6566    2.9377 C.ar      1 RES1    0.0000
     42 H1         4.1700    3.8844   -1.4726 H         1 RES1    0.0000
     43 H2         2.1510    3.1180   -0.2232 H         1 RES1    0.0000
     44 H3         5.5078    1.4723   -2.5625 H         1 RES1    0.0000
     45 H4         5.0185    2.6943   -3.3842 H         1 RES1    0.0000
     46 H5         5.0727    0.8393   -4.7893 H         1 RES1    0.0000
     47 H6         2.9668    0.8629   -5.5641 H         1 RES1    0.0000
     48 H7         3.4349    2.3054   -5.2358 H         1 RES1    0.0000
     49 H8         1.3089    1.9833   -4.4910 H         1 RES1    0.0000
     50 H9         2.6770    3.4494   -3.2004 H         1 RES1    0.0000
     51 H10        1.6702    2.7374   -2.2605 H         1 RES1    0.0000
     52 H11        2.5241    0.8023   -0.8704 H         1 RES1    0.0000
     53 H12        4.0012    0.3622   -1.0468 H         1 RES1    0.0000
     54 H13        2.5391   -1.1399   -2.3206 H         1 RES1    0.0000
     55 H14        4.7503   -0.7387   -3.0259 H         1 RES1    0.0000
     56 H15        3.8191   -1.0506   -4.2265 H         1 RES1    0.0000
     57 H16        4.8597    5.3465    0.3395 H         1 RES1    0.0000
     58 H17        4.5585    4.8489    1.7784 H         1 RES1    0.0000
     59 H18        4.9028    7.2672    1.8328 H         1 RES1    0.0000
     60 H19        4.1516    7.6232   -0.2964 H         1 RES1    0.0000
     61 H20        3.4145    8.5538    0.6997 H         1 RES1    0.0000
     62 H21        1.9136    7.6899   -0.7973 H         1 RES1    0.0000
     63 H22        1.4905    5.3126   -0.7485 H         1 RES1    0.0000
     64 H23        2.9143    5.6174   -1.2850 H         1 RES1    0.0000
     65 H24        2.2194    4.3656    2.4800 H         1 RES1    0.0000
     66 H25        1.0799    4.5247    1.4389 H         1 RES1    0.0000
     67 H26        1.0484    6.4412    2.9077 H         1 RES1    0.0000
     68 H27        2.9318    7.7227    3.0334 H         1 RES1    0.0000
     69 H28        3.3465    6.2658    3.3673 H         1 RES1    0.0000
     70 H29        1.3519   -0.2945   -4.0258 H         1 RES1    0.0000
     71 H30        0.9346    0.4412   -2.7258 H         1 RES1    0.0000
     72 H31        8.3616    2.9867   -0.3020 H         1 RES1    0.0000
     73 H32        7.4215    2.6840    0.8930 H         1 RES1    0.0000
     74 H33        7.5386    1.6714   -0.2739 H         1 RES1    0.0000
     75 H34        0.3965    6.7388    0.7335 H         1 RES1    0.0000
     76 H35        1.0466    8.0223    1.3150 H         1 RES1    0.0000
     77 H36        1.3263    0.5345    3.8588 H         1 RES1    0.0000
     78 H37        4.9900    0.9901    2.2549 H         1 RES1    0.0000
     79 H38        4.4729   -1.2384    5.6203 H         1 RES1    0.0000
@<TRIPOS>BOND
     1    1   11 1
     2    2   32 2
     3    3   12 1
     4    4   35 2
     5    5    9 2
     6    6    9 2
     7    7   10 2
     8    8   10 2
     9    9   38 1
    10   10   40 1
    11   11   12 1
    12   12   22 1
    13   13   11 1
    14   14   13 1
    15   15   14 1
    16   16   15 1
    17   17   16 1
    18   18   13 1
    19   19   13 1
    20   20   19 1
    21   21   15 1
    22   22   23 1
    23   23   24 1
    24   24   25 1
    25   25   26 1
    26   26   27 1
    27   27   22 1
    28   28   22 1
    29   29   28 1
    30   30   24 1
    31   31   17 1
    32   32    1 1
    33   33   32 1
    34   34   26 1
    35   35    3 1
    36   36   35 1
    37   37   36 ar
    38   38   37 ar
    39   39   38 ar
    40   40   39 ar
    41   41   36 ar
    42   42   11 1
    43   43   12 1
    44   44   14 1
    45   45   14 1
    46   46   15 1
    47   47   16 1
    48   48   16 1
    49   49   17 1
    50   50   18 1
    51   51   18 1
    52   52   19 1
    53   53   19 1
    54   54   20 1
    55   55   21 1
    56   56   21 1
    57   57   23 1
    58   58   23 1
    59   59   24 1
    60   60   25 1
    61   61   25 1
    62   62   26 1
    63   63   27 1
    64   64   27 1
    65   65   28 1
    66   66   28 1
    67   67   29 1
    68   68   30 1
    69   69   30 1
    70   70   31 1
    71   71   31 1
    72   72   33 1
    73   73   33 1
    74   74   33 1
    75   75   34 1
    76   76   34 1
    77   77   37 1
    78   78   41 1
    79   79   39 1
    80   17   18 1
    81   20   21 1
    82   20   31 1
    83   29   30 1
    84   29   34 1
    85   40   41 ar
@<TRIPOS>SUBSTRUCTURE
     1 RES1 1

@<TRIPOS>CRYSIN
  15.0600   10.2600   20.2030  90.0000 111.7900  90.0000  14 1

