# MOL2 file generated by ConQuest
# Please check atom types

@<TRIPOS>MOLECULE
ZUKSIH
    68    68     3
SMALL
NO_CHARGES
****
Generated from CSD

@<TRIPOS>ATOM
      1 O1         6.0774    5.0498    9.0001 O.3       1 RES1    0.0000
      2 O2         3.5316    5.8022    8.4018 Du        3 SUP3    0.0000
      3 N1         4.8283    5.0877    8.1949 N.2       1 RES1    0.0000
      4 C1         4.8739    4.3920    7.1255 C.2       1 RES1    0.0000
      5 C2         6.1037    3.6331    6.7371 C.3       1 RES1    0.0000
      6 C3         5.7685    2.2883    6.0796 C.3       1 RES1    0.0000
      7 C4         4.7420    2.4584    4.9857 C.2       1 RES1    0.0000
      8 C5         3.4570    3.0272    5.5626 C.3       1 RES1    0.0000
      9 C6         3.7099    4.4082    6.1843 C.3       1 RES1    0.0000
     10 C7         4.9454    2.1999    3.6886 C.2       1 RES1    0.0000
     11 C8         6.2191    1.6425    3.1136 C.3       1 RES1    0.0000
     12 C9         5.9767    0.3392    2.3575 C.3       1 RES1    0.0000
     13 C10        4.9426    0.5369    1.2627 C.3       1 RES1    0.0000
     14 C11        3.6512    1.0927    1.8397 C.3       1 RES1    0.0000
     15 C12        3.9062    2.3870    2.6038 C.3       1 RES1    0.0000
     16 O3         7.4619    9.6406    9.0429 O.3       2 RES2    0.0000
     17 O4         4.9175   10.3721    8.4596 Du        3 SUP3    0.0000
     18 N2         6.1415    9.5751    8.3144 N.2       2 RES2    0.0000
     19 C13        6.0452    8.6487    7.4399 C.2       2 RES2    0.0000
     20 C14        7.2142    7.7613    7.1508 C.3       2 RES2    0.0000
     21 C15        7.5247    7.7686    5.6393 C.3       2 RES2    0.0000
     22 C16        6.2976    7.4958    4.8029 C.2       2 RES2    0.0000
     23 C17        5.1950    8.4682    5.1264 C.3       2 RES2    0.0000
     24 C18        4.8270    8.4259    6.6210 C.3       2 RES2    0.0000
     25 C19        6.2018    6.5263    3.8770 C.2       2 RES2    0.0000
     26 C20        7.3239    5.5813    3.4953 C.3       2 RES2    0.0000
     27 C21        7.6926    5.7537    2.0149 C.3       2 RES2    0.0000
     28 C22        6.4810    5.5515    1.1186 C.3       2 RES2    0.0000
     29 C23        5.3200    6.4432    1.5333 C.3       2 RES2    0.0000
     30 C24        4.9958    6.2694    3.0165 C.3       2 RES2    0.0000
     31 H1         5.9813    5.7194    9.3076 H         1 RES1    0.0000
     32 H2         6.6549    3.4722    7.5434 H         1 RES1    0.0000
     33 H3         6.6376    4.1796    6.1071 H         1 RES1    0.0000
     34 H4         6.5931    1.8939    5.6986 H         1 RES1    0.0000
     35 H5         5.4190    1.6650    6.7647 H         1 RES1    0.0000
     36 H6         3.1038    2.4121    6.2536 H         1 RES1    0.0000
     37 H7         2.7782    3.1053    4.8456 H         1 RES1    0.0000
     38 H8         3.8827    5.0641    5.4630 H         1 RES1    0.0000
     39 H9         2.8993    4.6994    6.6728 H         1 RES1    0.0000
     40 H10        6.8647    1.4805    3.8464 H         1 RES1    0.0000
     41 H11        6.6177    2.3079    2.4982 H         1 RES1    0.0000
     42 H12        6.8264    0.0262    1.9571 H         1 RES1    0.0000
     43 H13        5.6603   -0.3554    2.9887 H         1 RES1    0.0000
     44 H14        4.7611   -0.3295    0.8193 H         1 RES1    0.0000
     45 H15        5.2975    1.1619    0.5821 H         1 RES1    0.0000
     46 H16        3.2481    0.4245    2.4490 H         1 RES1    0.0000
     47 H17        3.0099    1.2647    1.1058 H         1 RES1    0.0000
     48 H18        4.2147    3.0844    1.9724 H         1 RES1    0.0000
     49 H19        3.0596    2.6985    3.0122 H         1 RES1    0.0000
     50 H20        7.2502   10.2829    9.4940 H         2 RES2    0.0000
     51 H21        7.0120    6.8384    7.4448 H         2 RES2    0.0000
     52 H22        8.0052    8.0789    7.6542 H         2 RES2    0.0000
     53 H23        7.8988    8.6499    5.3885 H         2 RES2    0.0000
     54 H24        8.2101    7.0810    5.4450 H         2 RES2    0.0000
     55 H25        4.3946    8.2479    4.5860 H         2 RES2    0.0000
     56 H26        5.4837    9.3834    4.8855 H         2 RES2    0.0000
     57 H27        4.1569    9.1273    6.8206 H         2 RES2    0.0000
     58 H28        4.4299    7.5468    6.8435 H         2 RES2    0.0000
     59 H29        7.0408    4.6470    3.6600 H         2 RES2    0.0000
     60 H30        8.1181    5.7660    4.0576 H         2 RES2    0.0000
     61 H31        8.0600    6.6614    1.8708 H         2 RES2    0.0000
     62 H32        8.3931    5.0976    1.7724 H         2 RES2    0.0000
     63 H33        6.1965    4.6043    1.1617 H         2 RES2    0.0000
     64 H34        6.7296    5.7529    0.1819 H         2 RES2    0.0000
     65 H35        4.5216    6.2173    0.9930 H         2 RES2    0.0000
     66 H36        5.5526    7.3895    1.3563 H         2 RES2    0.0000
     67 H37        4.2725    6.8956    3.2700 H         2 RES2    0.0000
     68 H38        4.6708    5.3471    3.1747 H         2 RES2    0.0000
@<TRIPOS>BOND
     1    1    3 1
     2    3    4 2
     3    4    5 1
     4    5    6 1
     5    6    7 1
     6    7    8 1
     7    8    9 1
     8    9    4 1
     9   10    7 2
    10   11   10 1
    11   12   11 1
    12   13   12 1
    13   14   13 1
    14   15   10 1
    15   16   18 1
    16   18   19 2
    17   19   20 1
    18   20   21 1
    19   21   22 1
    20   22   23 1
    21   23   24 1
    22   24   19 1
    23   25   22 2
    24   26   25 1
    25   27   26 1
    26   28   27 1
    27   29   28 1
    28   30   25 1
    29   31    1 1
    30   32    5 1
    31   33    5 1
    32   34    6 1
    33   35    6 1
    34   36    8 1
    35   37    8 1
    36   38    9 1
    37   39    9 1
    38   40   11 1
    39   41   11 1
    40   42   12 1
    41   43   12 1
    42   44   13 1
    43   45   13 1
    44   46   14 1
    45   47   14 1
    46   48   15 1
    47   49   15 1
    48   50   16 1
    49   51   20 1
    50   52   20 1
    51   53   21 1
    52   54   21 1
    53   55   23 1
    54   56   23 1
    55   57   24 1
    56   58   24 1
    57   59   26 1
    58   60   26 1
    59   61   27 1
    60   62   27 1
    61   63   28 1
    62   64   28 1
    63   65   29 1
    64   66   29 1
    65   67   30 1
    66   68   30 1
    67   14   15 1
    68   29   30 1
@<TRIPOS>SUBSTRUCTURE
     1 RES1 1
     2 RES2 16
     3 SUP3 2

@<TRIPOS>CRYSIN
   6.1699    9.6920   18.8634  81.1460  88.0070  73.0010   2 1

