# MOL2 file generated by ConQuest
# Please check atom types

@<TRIPOS>MOLECULE
ZUKTIK
    66    64     2
SMALL
NO_CHARGES
****
Generated from CSD

@<TRIPOS>ATOM
      1 C1         1.0260    3.2160   13.6112 C.ar      1 RES1    0.0000
      2 C2         1.7854    2.1244   13.9422 C.ar      1 RES1    0.0000
      3 H1         1.4496    1.4707   14.5129 H         1 RES1    0.0000
      4 C3         3.0365    2.0095   13.4244 C.ar      1 RES1    0.0000
      5 H2         3.5517    1.2707   13.6577 H         1 RES1    0.0000
      6 C4         3.5699    2.9468   12.5680 C.ar      1 RES1    0.0000
      7 C5         2.7789    4.0380   12.2515 C.ar      1 RES1    0.0000
      8 H3         3.1110    4.6865   11.6744 H         1 RES1    0.0000
      9 C6         1.5101    4.1886   12.7707 C.ar      1 RES1    0.0000
     10 H4         0.9939    4.9323   12.5568 H         1 RES1    0.0000
     11 C7         7.0731    2.7641   11.0637 C.ar      1 RES1    0.0000
     12 C8         7.8352    1.6291   11.3340 C.ar      1 RES1    0.0000
     13 H5         7.4729    0.9773   11.8891 H         1 RES1    0.0000
     14 C9         9.1018    1.4233   10.8196 C.ar      1 RES1    0.0000
     15 H6         9.5583    0.6363   11.0165 H         1 RES1    0.0000
     16 C10        9.7033    2.3926   10.0033 C.ar      1 RES1    0.0000
     17 C11        8.9223    3.5334    9.7215 C.ar      1 RES1    0.0000
     18 H7         9.2661    4.1950    9.1660 H         1 RES1    0.0000
     19 C12        7.6688    3.6869   10.2483 C.ar      1 RES1    0.0000
     20 H8         7.1962    4.4598   10.0410 H         1 RES1    0.0000
     21 C13       11.5477    3.2173    8.6047 C.3       1 RES1    0.0000
     22 H9        12.5095    3.0939    8.5864 H         1 RES1    0.0000
     23 H10       11.3739    4.1036    8.9587 H         1 RES1    0.0000
     24 C14       11.0333    3.1568    7.2002 C.3       1 RES1    0.0000
     25 H11       10.0746    3.2996    7.1938 H         1 RES1    0.0000
     26 H12       11.4491    3.8521    6.6663 H         1 RES1    0.0000
     27 C15       10.7746    1.6780    5.3807 C.3       1 RES1    0.0000
     28 H13       11.1675    2.2918    4.7412 H         1 RES1    0.0000
     29 H14        9.8182    1.8365    5.4077 H         1 RES1    0.0000
     30 C16       11.0440    0.2759    4.9668 C.3       1 RES1    0.0000
     31 H15       10.8398   -0.3277    5.6982 H         1 RES1    0.0000
     32 H16       10.4807    0.0419    4.2125 H         1 RES1    0.0000
     33 C17       12.8387   -1.1804    4.3886 C.3       1 RES1    0.0000
     34 H17       13.3726   -1.2097    3.5795 H         1 RES1    0.0000
     35 H18       12.0658   -1.7508    4.2559 H         1 RES1    0.0000
     36 C18       13.6454   -1.7066    5.5269 C.3       1 RES1    0.0000
     37 H19       14.0380   -2.5585    5.2836 H         1 RES1    0.0000
     38 H20       14.3639   -1.0897    5.7317 H         1 RES1    0.0000
     39 C19       13.5256   -2.3094    7.8141 C.3       1 RES1    0.0000
     40 H21       14.2826   -1.7241    7.9720 H         1 RES1    0.0000
     41 H22       13.8628   -3.2063    7.6642 H         1 RES1    0.0000
     42 C20       12.6289   -2.3033    9.0112 C.3       1 RES1    0.0000
     43 H23       11.7335   -2.5509    8.7316 H         1 RES1    0.0000
     44 H24       12.9383   -2.9777    9.6351 H         1 RES1    0.0000
     45 C21       11.7525   -0.0831    9.0566 C.3       1 RES1    0.0000
     46 H25       10.8367   -0.3982    8.9922 H         1 RES1    0.0000
     47 H26       12.0779    0.1105    8.1644 H         1 RES1    0.0000
     48 C22       11.8315    1.1453    9.9289 C.3       1 RES1    0.0000
     49 H27       11.5926    0.8973   10.8353 H         1 RES1    0.0000
     50 H28       12.7493    1.4574    9.9429 H         1 RES1    0.0000
     51 N1        -0.3023    3.3452   14.1755 N.pl3     1 RES1    0.0000
     52 N2        10.9742    2.2406    9.5051 N.3       1 RES1    0.0000
     53 O1        -0.7708    2.3932   14.7676 O.2       1 RES1    0.0000
     54 O2        -0.9187    4.3570   13.9569 O.2       1 RES1    0.0000
     55 O3        11.3327    1.8916    6.6572 O.3       1 RES1    0.0000
     56 O4        12.4014    0.1480    4.6068 O.3       1 RES1    0.0000
     57 O5        12.8148   -1.8700    6.6654 O.3       1 RES1    0.0000
     58 O6        12.5681   -1.0522    9.6837 O.3       1 RES1    0.0000
     59 C23        4.9513    2.4823   12.2167 C.2       1 RES1    0.0000
     60 H29        5.2929    1.6993   12.5854 H         1 RES1    0.0000
     61 C24        5.6709    3.1949   11.3827 C.2       1 RES1    0.0000
     62 H30        5.3156    3.9607   10.9942 H         1 RES1    0.0000
     63 C25        4.8291    3.2977   11.7116 Du        2 SUP2    0.0000
     64 H31        4.8661    4.0179   11.1258 Du        2 SUP2    0.0000
     65 C26        5.8504    2.4538   11.9102 Du        2 SUP2    0.0000
     66 H32        5.8147    1.7451   12.5109 Du        2 SUP2    0.0000
@<TRIPOS>BOND
     1    1    2 ar
     2    2    3 1
     3    4    2 ar
     4    5    4 1
     5    6    4 ar
     6    7    6 ar
     7    8    7 1
     8    9    1 ar
     9   10    9 1
    10   11   12 ar
    11   12   13 1
    12   14   12 ar
    13   15   14 1
    14   16   14 ar
    15   17   16 ar
    16   18   17 1
    17   19   11 ar
    18   20   19 1
    19   21   22 1
    20   23   21 1
    21   24   21 1
    22   25   24 1
    23   26   24 1
    24   27   28 1
    25   29   27 1
    26   30   27 1
    27   31   30 1
    28   32   30 1
    29   33   34 1
    30   35   33 1
    31   36   33 1
    32   37   36 1
    33   38   36 1
    34   39   40 1
    35   41   39 1
    36   42   39 1
    37   43   42 1
    38   44   42 1
    39   45   46 1
    40   47   45 1
    41   48   45 1
    42   49   48 1
    43   50   48 1
    44   51    1 1
    45   52   16 1
    46   53   51 2
    47   54   51 2
    48   55   24 1
    49   56   30 1
    50   57   36 1
    51   58   42 1
    52   59    6 1
    53   60   59 1
    54   61   11 1
    55   62   61 1
    56    7    9 ar
    57   17   19 ar
    58   21   52 1
    59   27   55 1
    60   33   56 1
    61   39   57 1
    62   45   58 1
    63   48   52 1
    64   59   61 2
@<TRIPOS>SUBSTRUCTURE
     1 RES1 1
     2 SUP2 63

@<TRIPOS>CRYSIN
   9.7559   19.0510   12.4270  90.0000  92.8520  90.0000 231 1

