# MOL2 file generated by ConQuest
# Please check atom types

@<TRIPOS>MOLECULE
ZUKYOT
    60    62     2
SMALL
NO_CHARGES
****
Generated from CSD

@<TRIPOS>ATOM
      1 O1        -0.0029   -3.2960   13.0369 O.2       1 RES1    0.0000
      2 O2        -1.0701   -1.7985   14.1061 O.2       1 RES1    0.0000
      3 O3         4.2342    3.7676    8.9932 O.2       1 RES1    0.0000
      4 O4         2.8634    2.3155    4.2142 O.3       1 RES1    0.0000
      5 N1        -0.3082   -2.1263   13.2730 N.pl3     1 RES1    0.0000
      6 N2         3.6008    2.8297    7.0088 N.am      1 RES1    0.0000
      7 C1         1.8624   -0.4423   10.7779 C.ar      1 RES1    0.0000
      8 C2         1.2772   -1.4255   11.5112 C.ar      1 RES1    0.0000
      9 C3         0.3460   -1.1138   12.4389 C.ar      1 RES1    0.0000
     10 C4        -0.0177    0.2212   12.6864 C.ar      1 RES1    0.0000
     11 C5         0.5829    1.1937   11.9262 C.ar      1 RES1    0.0000
     12 C6         1.5477    0.8793   10.9485 C.ar      1 RES1    0.0000
     13 C7         2.1909    2.0090   10.1903 C.3       1 RES1    0.0000
     14 C8         2.9592    1.6786    8.9350 C.3       1 RES1    0.0000
     15 C9         3.6572    2.8830    8.3588 C.2       1 RES1    0.0000
     16 C10        2.9423    1.6067    6.5169 C.3       1 RES1    0.0000
     17 C11        2.1494    1.1431    7.7535 C.3       1 RES1    0.0000
     18 C12        2.0519    1.8891    5.2917 C.3       1 RES1    0.0000
     19 C13        4.1550   10.0185    2.6251 C.ar      2 RES2    0.0000
     20 O5         5.7321   10.2956    0.9204 O.2       2 RES2    0.0000
     21 O6         5.3409   11.9396    2.2517 O.2       2 RES2    0.0000
     22 O7         0.1381    5.1078    5.7566 O.2       2 RES2    0.0000
     23 O8         1.5572    6.4721   10.5117 O.3       2 RES2    0.0000
     24 N3         5.1348   10.8019    1.8721 N.pl3     2 RES2    0.0000
     25 N4         1.1120    5.7367    7.7067 N.am      2 RES2    0.0000
     26 C14        2.9917    7.9802    2.8716 C.ar      2 RES2    0.0000
     27 C15        3.9164    8.7076    2.2007 C.ar      2 RES2    0.0000
     28 C16        3.5464   10.5434    3.6838 C.ar      2 RES2    0.0000
     29 C17        2.5829    9.7761    4.3567 C.ar      2 RES2    0.0000
     30 C18        2.2938    8.4891    3.9449 C.ar      2 RES2    0.0000
     31 C19        1.2682    7.6684    4.7041 C.3       2 RES2    0.0000
     32 C20        1.9322    6.7572    5.7753 C.3       2 RES2    0.0000
     33 C21        0.9637    5.7873    6.3734 C.2       2 RES2    0.0000
     34 C22        2.2162    6.6186    8.1789 C.3       2 RES2    0.0000
     35 C23        2.4476    7.5512    6.9964 C.3       2 RES2    0.0000
     36 C24        1.7985    7.3274    9.4467 C.3       2 RES2    0.0000
     37 H1         2.5062   -0.6608   10.0998 H         1 RES1    0.0000
     38 H2         1.5310   -2.3394   11.3739 H         1 RES1    0.0000
     39 H3        -0.6908    0.4343   13.3375 H         1 RES1    0.0000
     40 H4         0.3500    2.1156   12.0645 H         1 RES1    0.0000
     41 H5         2.7964    2.4620   10.7831 H         1 RES1    0.0000
     42 H6         1.5025    2.6352    9.9522 H         1 RES1    0.0000
     43 H7         3.6288    1.0285    9.1607 H         1 RES1    0.0000
     44 H8         3.5930    0.9432    6.2787 H         1 RES1    0.0000
     45 H9         1.2743    1.5374    7.7358 H         1 RES1    0.0000
     46 H10        2.0592    0.1865    7.7889 H         1 RES1    0.0000
     47 H11        1.5406    1.1111    5.0504 H         1 RES1    0.0000
     48 H12        1.4478    2.5979    5.5195 H         1 RES1    0.0000
     49 H13        2.8199    7.0769    2.6032 H         2 RES2    0.0000
     50 H14        4.3854    8.3425    1.4457 H         2 RES2    0.0000
     51 H15        3.7622   11.4334    3.9719 H         2 RES2    0.0000
     52 H16        2.1154   10.1411    5.1108 H         2 RES2    0.0000
     53 H17        0.7760    7.1275    4.0822 H         2 RES2    0.0000
     54 H18        0.6487    8.2493    5.1503 H         2 RES2    0.0000
     55 H19        2.6561    6.2722    5.3708 H         2 RES2    0.0000
     56 H20        3.0037    6.0990    8.3557 H         2 RES2    0.0000
     57 H21        1.9409    8.3585    7.0983 H         2 RES2    0.0000
     58 H22        3.3781    7.7697    6.9100 H         2 RES2    0.0000
     59 H23        2.4886    7.9429    9.7015 H         2 RES2    0.0000
     60 H24        1.0013    7.8283    9.2616 H         2 RES2    0.0000
@<TRIPOS>BOND
     1    1    5 2
     2    2    5 2
     3    3   15 2
     4    4   18 1
     5    5    9 1
     6    6   15 1
     7    7    8 ar
     8    8    9 ar
     9    9   10 ar
    10   10   11 ar
    11   11   12 ar
    12   12    7 ar
    13   13   12 1
    14   14   13 1
    15   15   14 1
    16   16    6 1
    17   17   14 1
    18   18   16 1
    19   19   24 1
    20   20   24 2
    21   21   24 2
    22   22   33 2
    23   23   36 1
    24   25   33 1
    25   26   27 ar
    26   27   19 ar
    27   28   19 ar
    28   29   28 ar
    29   30   26 ar
    30   31   30 1
    31   32   31 1
    32   33   32 1
    33   34   25 1
    34   35   32 1
    35   36   34 1
    36   37    7 1
    37   38    8 1
    38   39   10 1
    39   40   11 1
    40   41   13 1
    41   42   13 1
    42   43   14 1
    43   44   16 1
    44   45   17 1
    45   46   17 1
    46   47   18 1
    47   48   18 1
    48   49   26 1
    49   50   27 1
    50   51   28 1
    51   52   29 1
    52   53   31 1
    53   54   31 1
    54   55   32 1
    55   56   34 1
    56   57   35 1
    57   58   35 1
    58   59   36 1
    59   60   36 1
    60   16   17 1
    61   29   30 ar
    62   34   35 1
@<TRIPOS>SUBSTRUCTURE
     1 RES1 1
     2 RES2 19

@<TRIPOS>CRYSIN
   4.8520   26.6450   10.4010  90.0000  90.6100  90.0000   4 1

