# MOL2 file generated by ConQuest
# Please check atom types

@<TRIPOS>MOLECULE
ZUKYUZ
    52    55     1
SMALL
NO_CHARGES
****
Generated from CSD

@<TRIPOS>ATOM
      1 O1        -4.8565   -1.5082   -0.8494 O.2       1 RES1    0.0000
      2 N1        -5.0885   -1.3452    1.4346 N.am      1 RES1    0.0000
      3 O2        -2.7883    1.5826   -1.1731 O.2       1 RES1    0.0000
      4 O3        -4.7644    1.6295   -0.1411 O.3       1 RES1    0.0000
      5 O4        -6.9401   -0.5668    2.5303 O.3       1 RES1    0.0000
      6 C1        -0.6967   -4.4652    1.7002 C.ar      1 RES1    0.0000
      7 C2        -6.9010   -2.9163    2.1374 C.ar      1 RES1    0.0000
      8 C3        -4.4951   -1.0707    0.2366 C.2       1 RES1    0.0000
      9 C4        -3.5733    1.1088   -0.3887 C.2       1 RES1    0.0000
     10 C5        -8.2561   -3.2617    2.1637 C.ar      1 RES1    0.0000
     11 C6        -1.5921   -2.0643    0.6502 C.ar      1 RES1    0.0000
     12 C7        -4.6210   -0.4809    2.5248 C.3       1 RES1    0.0000
     13 C8        -6.5219   -1.5711    1.5826 C.3       1 RES1    0.0000
     14 C9        -0.0699   -3.2944    2.0807 C.ar      1 RES1    0.0000
     15 C10       -5.8796    0.3472    2.7696 C.3       1 RES1    0.0000
     16 O5         0.7546   -5.7165    2.9785 O.2       1 RES1    0.0000
     17 N2        -0.1790   -5.7440    2.2066 N.pl3     1 RES1    0.0000
     18 C11       -7.7300   -5.2897    3.3009 C.ar      1 RES1    0.0000
     19 O6        -0.6962   -6.7855    1.8109 O.2       1 RES1    0.0000
     20 C12       -2.1936   -3.2741    0.3002 C.ar      1 RES1    0.0000
     21 C13       -5.9815   -3.7824    2.6880 C.ar      1 RES1    0.0000
     22 C14       -1.7519   -4.4767    0.8190 C.ar      1 RES1    0.0000
     23 C15       -1.9905   -0.7749   -0.0208 C.3       1 RES1    0.0000
     24 C16       -0.5282   -2.0998    1.5439 C.ar      1 RES1    0.0000
     25 C17       -3.3138   -0.1373    0.4565 C.3       1 RES1    0.0000
     26 C18       -3.3640    0.1948    1.9755 C.3       1 RES1    0.0000
     27 C19       -6.4044   -4.9709    3.2843 C.ar      1 RES1    0.0000
     28 C20       -8.6583   -4.4546    2.7475 C.ar      1 RES1    0.0000
     29 C21       -5.1639    2.8003   -0.9214 C.3       1 RES1    0.0000
     30 C22       -6.5676    3.1085   -0.6059 C.3       1 RES1    0.0000
     31 H1        -8.8990   -2.6719    1.7639 H         1 RES1    0.0000
     32 H2        -4.4152   -1.0087    3.2995 H         1 RES1    0.0000
     33 H3        -6.9546   -1.4232    0.7388 H         1 RES1    0.0000
     34 H4         0.6734   -3.3139    2.6880 H         1 RES1    0.0000
     35 H5        -5.9137    1.0840    2.1568 H         1 RES1    0.0000
     36 H6        -5.9094    0.6837    3.6688 H         1 RES1    0.0000
     37 H7        -8.0113   -6.1177    3.6965 H         1 RES1    0.0000
     38 H8        -2.9354   -3.2661   -0.3113 H         1 RES1    0.0000
     39 H9        -5.0487   -3.5486    2.6672 H         1 RES1    0.0000
     40 H10       -2.1756   -5.3056    0.5852 H         1 RES1    0.0000
     41 H11       -1.2871   -0.1355    0.1024 H         1 RES1    0.0000
     42 H12       -2.0729   -0.9423   -0.9629 H         1 RES1    0.0000
     43 H13       -0.1080   -1.2726    1.7971 H         1 RES1    0.0000
     44 H14       -3.4214    1.1451    2.1028 H         1 RES1    0.0000
     45 H15       -2.5749   -0.1293    2.4141 H         1 RES1    0.0000
     46 H16       -5.7657   -5.5651    3.6868 H         1 RES1    0.0000
     47 H17       -9.5894   -4.6893    2.7821 H         1 RES1    0.0000
     48 H18       -4.6036    3.5477   -0.7055 H         1 RES1    0.0000
     49 H19       -5.0694    2.6081   -1.8566 H         1 RES1    0.0000
     50 H20       -6.8497    3.8727   -1.1150 H         1 RES1    0.0000
     51 H21       -6.6462    3.2997    0.3306 H         1 RES1    0.0000
     52 H22       -7.1190    2.3548   -0.8287 H         1 RES1    0.0000
@<TRIPOS>BOND
     1    1    8 2
     2    2    8 1
     3    3    9 2
     4    4    9 1
     5    5   13 1
     6    6   14 ar
     7    7   10 ar
     8    8   25 1
     9    9   25 1
    10   10   28 ar
    11   11   20 ar
    12   12    2 1
    13   13    2 1
    14   14   24 ar
    15   15    5 1
    16   16   17 2
    17   17    6 1
    18   18   27 ar
    19   19   17 2
    20   20   22 ar
    21   21    7 ar
    22   22    6 ar
    23   23   11 1
    24   24   11 ar
    25   25   23 1
    26   26   12 1
    27   27   21 ar
    28   28   18 ar
    29   29    4 1
    30   30   29 1
    31   31   10 1
    32   32   12 1
    33   33   13 1
    34   34   14 1
    35   35   15 1
    36   36   15 1
    37   37   18 1
    38   38   20 1
    39   39   21 1
    40   40   22 1
    41   41   23 1
    42   42   23 1
    43   43   24 1
    44   44   26 1
    45   45   26 1
    46   46   27 1
    47   47   28 1
    48   48   29 1
    49   49   29 1
    50   50   30 1
    51   51   30 1
    52   52   30 1
    53    7   13 1
    54   12   15 1
    55   25   26 1
@<TRIPOS>SUBSTRUCTURE
     1 RES1 1

@<TRIPOS>CRYSIN
  32.5900    8.8560   14.6500  90.0000 109.2100  90.0000  15 1

