# MOL2 file generated by ConQuest
# Please check atom types

@<TRIPOS>MOLECULE
ZULKEY
   112   116     2
SMALL
NO_CHARGES
****
Generated from CSD

@<TRIPOS>ATOM
      1 C1        -3.3495   11.7537    0.2883 C.ar      1 RES1    0.0000
      2 H1        -3.7197   11.2605    1.0103 H         1 RES1    0.0000
      3 C2        -3.5625   11.3565   -1.0148 C.ar      1 RES1    0.0000
      4 C3        -3.0361   12.0326   -2.1002 C.ar      1 RES1    0.0000
      5 H2        -3.1942   11.7468   -2.9917 H         1 RES1    0.0000
      6 C4        -2.2673   13.1494   -1.8206 C.ar      1 RES1    0.0000
      7 C5        -2.0292   13.5970   -0.5348 C.ar      1 RES1    0.0000
      8 H3        -1.4997   14.3715   -0.3799 H         1 RES1    0.0000
      9 C6        -2.5816   12.8897    0.5264 C.ar      1 RES1    0.0000
     10 C7        -2.3549   13.2784    1.9476 C.2       1 RES1    0.0000
     11 C8        -1.1909   14.7975    3.3435 C.3       1 RES1    0.0000
     12 H4        -1.8578   14.5303    4.0253 H         1 RES1    0.0000
     13 H5        -1.0768   15.7806    3.3917 H         1 RES1    0.0000
     14 C9         0.1274   14.1197    3.6315 C.3       1 RES1    0.0000
     15 H6        -0.0061   13.1336    3.7250 H         1 RES1    0.0000
     16 C10        0.8170   14.6766    4.8729 C.3       1 RES1    0.0000
     17 H7         0.6512   14.0986    5.6586 H         1 RES1    0.0000
     18 H8         0.4950   15.5921    5.0749 H         1 RES1    0.0000
     19 C11        2.3034   14.6898    4.5101 C.3       1 RES1    0.0000
     20 C12        2.2773   14.6838    2.9859 C.2       1 RES1    0.0000
     21 C13        3.0394   15.9253    5.0199 C.3       1 RES1    0.0000
     22 H9         2.5914   16.7308    4.6907 H         1 RES1    0.0000
     23 H10        3.9648   15.9096    4.6971 H         1 RES1    0.0000
     24 H11        3.0362   15.9270    6.0003 H         1 RES1    0.0000
     25 C14        3.0486   13.4457    4.9806 C.3       1 RES1    0.0000
     26 H12        3.9754   13.4586    4.6334 H         1 RES1    0.0000
     27 H13        3.0878   13.4313    5.9695 H         1 RES1    0.0000
     28 C15        3.1014   11.1124    4.8727 C.3       1 RES1    0.0000
     29 H14        3.1915   11.0695    5.8581 H         1 RES1    0.0000
     30 H15        4.0097   11.1489    4.4806 H         1 RES1    0.0000
     31 C16        2.3829    9.8814    4.3738 C.ar      1 RES1    0.0000
     32 C17        2.3014    9.6053    3.0066 C.ar      1 RES1    0.0000
     33 H16        2.6871   10.2111    2.3846 H         1 RES1    0.0000
     34 C18        1.6700    8.4681    2.5439 C.ar      1 RES1    0.0000
     35 H17        1.6179    8.2959    1.6110 H         1 RES1    0.0000
     36 C19        1.1070    7.5713    3.4581 C.ar      1 RES1    0.0000
     37 C20        1.1834    7.8211    4.8195 C.ar      1 RES1    0.0000
     38 H18        0.8076    7.2118    5.4431 H         1 RES1    0.0000
     39 C21        1.8203    8.9831    5.2611 C.ar      1 RES1    0.0000
     40 H19        1.8683    9.1593    6.1934 H         1 RES1    0.0000
     41 C22        0.0275    5.4752    3.8222 C.3       1 RES1    0.0000
     42 H20       -0.3882    4.7434    3.3217 H         1 RES1    0.0000
     43 H21       -0.6300    5.8672    4.4339 H         1 RES1    0.0000
     44 H22        0.7861    5.1304    4.3373 H         1 RES1    0.0000
     45 N1        -4.3923   10.1583   -1.2511 N.pl3     1 RES1    0.0000
     46 N2        -1.6909   13.9066   -2.9491 N.pl3     1 RES1    0.0000
     47 O1        -4.6654    9.4562   -0.2932 O.2       1 RES1    0.0000
     48 O2        -4.7437    9.9390   -2.4048 O.2       1 RES1    0.0000
     49 O3        -1.9205   13.5049   -4.0779 O.2       1 RES1    0.0000
     50 O4        -1.0127   14.8925   -2.6873 O.2       1 RES1    0.0000
     51 O5        -1.6663   14.4283    2.0306 O.3       1 RES1    0.0000
     52 O6        -2.7129   12.6250    2.8862 O.2       1 RES1    0.0000
     53 O7         1.0386   14.4015    2.5273 O.3       1 RES1    0.0000
     54 O8         3.1917   14.8880    2.2270 O.2       1 RES1    0.0000
     55 O9         2.3707   12.2834    4.5072 O.3       1 RES1    0.0000
     56 O10        0.4856    6.4738    2.9120 O.3       1 RES1    0.0000
     57 C23        5.8595    8.8003    5.5536 C.ar      2 RES2    0.0000
     58 H23        6.1764    9.3081    6.2911 H         2 RES2    0.0000
     59 C24        6.1855    9.1583    4.2591 C.ar      2 RES2    0.0000
     60 C25        5.7487    8.4589    3.1503 C.ar      2 RES2    0.0000
     61 H24        5.9845    8.7202    2.2679 H         2 RES2    0.0000
     62 C26        4.9466    7.3525    3.3957 C.ar      2 RES2    0.0000
     63 C27        4.5823    6.9488    4.6697 C.ar      2 RES2    0.0000
     64 H25        4.0219    6.1922    4.8000 H         2 RES2    0.0000
     65 C28        5.0588    7.6809    5.7537 C.ar      2 RES2    0.0000
     66 C29        4.7185    7.3113    7.1629 C.2       2 RES2    0.0000
     67 C30        3.4630    5.7734    8.4798 C.3       2 RES2    0.0000
     68 H26        4.1253    6.0160    9.1745 H         2 RES2    0.0000
     69 H27        3.3723    4.7880    8.4687 H         2 RES2    0.0000
     70 C31        2.1328    6.4003    8.8067 C.3       2 RES2    0.0000
     71 H28        2.2320    7.3904    8.8964 H         2 RES2    0.0000
     72 C32        1.4910    5.8203   10.0645 C.3       2 RES2    0.0000
     73 H29        1.6872    6.3857   10.8544 H         2 RES2    0.0000
     74 H30        1.8171    4.9021   10.2368 H         2 RES2    0.0000
     75 C33       -0.0100    5.8186    9.7518 C.3       2 RES2    0.0000
     76 C34       -0.0298    5.8203    8.2284 C.2       2 RES2    0.0000
     77 C35       -0.7469    4.5960   10.2910 C.3       2 RES2    0.0000
     78 H31       -0.3440    3.7833    9.9216 H         2 RES2    0.0000
     79 H32       -1.6900    4.6417   10.0298 H         2 RES2    0.0000
     80 H33       -0.6788    4.5796   11.2683 H         2 RES2    0.0000
     81 C36       -0.7373    7.0654   10.2555 C.3       2 RES2    0.0000
     82 H34       -1.6692    7.0679    9.9205 H         2 RES2    0.0000
     83 H35       -0.7642    7.0605   11.2450 H         2 RES2    0.0000
     84 C37       -0.7677    9.4011   10.2067 C.3       2 RES2    0.0000
     85 H36       -0.8276    9.4297   11.1940 H         2 RES2    0.0000
     86 H37       -1.6876    9.3801    9.8409 H         2 RES2    0.0000
     87 C38       -0.0467   10.6237    9.7051 C.ar      2 RES2    0.0000
     88 C39        0.1115   10.8418    8.3399 C.ar      2 RES2    0.0000
     89 H38       -0.2495   10.2161    7.7227 H         2 RES2    0.0000
     90 C40        0.7835   11.9534    7.8635 C.ar      2 RES2    0.0000
     91 H39        0.8823   12.0867    6.9278 H         2 RES2    0.0000
     92 C41        1.3151   12.8731    8.7623 C.ar      2 RES2    0.0000
     93 C42        1.1461   12.6917   10.1325 C.ar      2 RES2    0.0000
     94 H40        1.4875   13.3296   10.7483 H         2 RES2    0.0000
     95 C43        0.4698   11.5612   10.5864 C.ar      2 RES2    0.0000
     96 H41        0.3604   11.4292   11.5209 H         2 RES2    0.0000
     97 C44        2.5276   14.9034    9.0940 C.3       2 RES2    0.0000
     98 H42        2.9925   15.5946    8.5791 H         2 RES2    0.0000
     99 H43        3.1548   14.4831    9.7189 H         2 RES2    0.0000
    100 H44        1.7902   15.3093    9.5958 H         2 RES2    0.0000
    101 N3         7.0338   10.3493    4.0533 N.pl3     2 RES2    0.0000
    102 N4         4.4706    6.5616    2.2444 N.pl3     2 RES2    0.0000
    103 O11        7.2690   11.0511    5.0291 O.2       2 RES2    0.0000
    104 O12        7.4394   10.5664    2.9217 O.2       2 RES2    0.0000
    105 O13        4.7563    6.9593    1.1259 O.2       2 RES2    0.0000
    106 O14        3.8109    5.5516    2.4786 O.2       2 RES2    0.0000
    107 O15        3.9224    6.2334    7.1889 O.3       2 RES2    0.0000
    108 O16        5.1037    7.9171    8.1251 O.2       2 RES2    0.0000
    109 O17        1.1967    6.0825    7.7286 O.3       2 RES2    0.0000
    110 O18       -0.9622    5.5953    7.4953 O.2       2 RES2    0.0000
    111 O19       -0.0596    8.2299    9.7989 O.3       2 RES2    0.0000
    112 O20        2.0107   13.9170    8.2057 O.3       2 RES2    0.0000
@<TRIPOS>BOND
     1    1    2 1
     2    3    1 ar
     3    4    3 ar
     4    5    4 1
     5    6    4 ar
     6    7    6 ar
     7    8    7 1
     8    9    1 ar
     9   10    9 1
    10   11   12 1
    11   13   11 1
    12   14   11 1
    13   15   14 1
    14   16   14 1
    15   17   16 1
    16   18   16 1
    17   19   16 1
    18   20   19 1
    19   21   19 1
    20   22   21 1
    21   23   21 1
    22   24   21 1
    23   25   19 1
    24   26   25 1
    25   27   25 1
    26   28   29 1
    27   30   28 1
    28   31   28 1
    29   32   31 ar
    30   33   32 1
    31   34   32 ar
    32   35   34 1
    33   36   34 ar
    34   37   36 ar
    35   38   37 1
    36   39   31 ar
    37   40   39 1
    38   41   42 1
    39   43   41 1
    40   44   41 1
    41   45    3 1
    42   46    6 1
    43   47   45 2
    44   48   45 2
    45   49   46 2
    46   50   46 2
    47   51   10 1
    48   52   10 2
    49   53   14 1
    50   54   20 2
    51   55   25 1
    52   56   36 1
    53   57   58 1
    54   59   57 ar
    55   60   59 ar
    56   61   60 1
    57   62   60 ar
    58   63   62 ar
    59   64   63 1
    60   65   57 ar
    61   66   65 1
    62   67   68 1
    63   69   67 1
    64   70   67 1
    65   71   70 1
    66   72   70 1
    67   73   72 1
    68   74   72 1
    69   75   72 1
    70   76   75 1
    71   77   75 1
    72   78   77 1
    73   79   77 1
    74   80   77 1
    75   81   75 1
    76   82   81 1
    77   83   81 1
    78   84   85 1
    79   86   84 1
    80   87   84 1
    81   88   87 ar
    82   89   88 1
    83   90   88 ar
    84   91   90 1
    85   92   90 ar
    86   93   92 ar
    87   94   93 1
    88   95   87 ar
    89   96   95 1
    90   97   98 1
    91   99   97 1
    92  100   97 1
    93  101   59 1
    94  102   62 1
    95  103  101 2
    96  104  101 2
    97  105  102 2
    98  106  102 2
    99  107   66 1
   100  108   66 2
   101  109   70 1
   102  110   76 2
   103  111   81 1
   104  112   92 1
   105    7    9 ar
   106   11   51 1
   107   20   53 1
   108   28   55 1
   109   37   39 ar
   110   41   56 1
   111   63   65 ar
   112   67  107 1
   113   76  109 1
   114   84  111 1
   115   93   95 ar
   116   97  112 1
@<TRIPOS>SUBSTRUCTURE
     1 RES1 1
     2 RES2 57

@<TRIPOS>CRYSIN
   8.1952   24.8084   10.6160  90.0000  91.4800  90.0000   4 1

