# MOL2 file generated by ConQuest
# Please check atom types

@<TRIPOS>MOLECULE
ZULNUP
    48    49     1
SMALL
NO_CHARGES
****
Generated from CSD

@<TRIPOS>ATOM
      1 O1         1.5117   17.4691    4.6041 O.3       1 RES1    0.0000
      2 O2         6.9466   20.0278    6.1704 O.2       1 RES1    0.0000
      3 O3         7.1032   18.1859    7.2279 O.2       1 RES1    0.0000
      4 O4         1.1579   10.8784    5.3484 O.2       1 RES1    0.0000
      5 O5         1.4906   11.0841    7.5180 O.3       1 RES1    0.0000
      6 O6         4.7015    9.8330    7.1363 O.2       1 RES1    0.0000
      7 O7         4.6370   11.1107    5.3438 O.3       1 RES1    0.0000
      8 N1         6.4885   18.9426    6.5090 N.pl3     1 RES1    0.0000
      9 N2         1.8553   15.1395    5.4946 N.ar      1 RES1    0.0000
     10 C1         2.7285   17.7678    5.0936 C.ar      1 RES1    0.0000
     11 C2         3.5186   16.8286    5.7563 C.ar      1 RES1    0.0000
     12 C3         4.7588   17.2534    6.2119 C.ar      1 RES1    0.0000
     13 C4         5.1923   18.5344    5.9995 C.ar      1 RES1    0.0000
     14 C5         4.4084   19.4536    5.3284 C.ar      1 RES1    0.0000
     15 C6         3.1844   19.0853    4.8866 C.ar      1 RES1    0.0000
     16 C7         3.0791   15.4381    5.9564 C.ar      1 RES1    0.0000
     17 C8         1.3607   13.8950    5.6001 C.ar      1 RES1    0.0000
     18 C9         2.1071   12.8762    6.1942 C.ar      1 RES1    0.0000
     19 C10        3.3838   13.1616    6.6999 C.ar      1 RES1    0.0000
     20 C11        3.8593   14.4591    6.5621 C.ar      1 RES1    0.0000
     21 C12       -0.0068   13.6925    5.0528 C.3       1 RES1    0.0000
     22 C13        1.5382   11.5056    6.2820 C.2       1 RES1    0.0000
     23 C14        4.2378   12.1394    7.4049 C.3       1 RES1    0.0000
     24 C15        4.5329   10.8983    6.6345 C.2       1 RES1    0.0000
     25 C16        0.9873    9.7600    7.7574 C.3       1 RES1    0.0000
     26 C17        0.7955    9.4912    8.9835 C.3       1 RES1    0.0000
     27 C18        4.9511    9.9691    4.5079 C.3       1 RES1    0.0000
     28 C19        4.9792   10.3009    3.2333 C.3       1 RES1    0.0000
     29 H1         1.3066   16.5996    5.0205 H         1 RES1    0.0000
     30 H2         5.3171   16.6428    6.7007 H         1 RES1    0.0000
     31 H3         4.7457   20.3397    5.1783 H         1 RES1    0.0000
     32 H4         2.6265   19.7158    4.4225 H         1 RES1    0.0000
     33 H5         4.7367   14.6815    6.8838 H         1 RES1    0.0000
     34 H6        -0.3663   14.1273    4.2755 H         1 RES1    0.0000
     35 H7        -0.6093   13.8983    5.7717 H         1 RES1    0.0000
     36 H8        -0.0910   12.7501    4.8912 H         1 RES1    0.0000
     37 H9         3.7962   11.8872    8.2184 H         1 RES1    0.0000
     38 H10        5.0685   12.5576    7.6420 H         1 RES1    0.0000
     39 H11        1.6197    9.1195    7.4211 H         1 RES1    0.0000
     40 H12        0.1556    9.6372    7.2941 H         1 RES1    0.0000
     41 H13        1.6177    9.6571    9.4491 H         1 RES1    0.0000
     42 H14        0.5196    8.5919    9.1659 H         1 RES1    0.0000
     43 H15        0.1225   10.1018    9.2967 H         1 RES1    0.0000
     44 H16        4.3106    9.2722    4.6611 H         1 RES1    0.0000
     45 H17        5.8261    9.6339    4.7165 H         1 RES1    0.0000
     46 H18        4.0474   10.2877    3.0032 H         1 RES1    0.0000
     47 H19        5.3839    9.5908    2.7284 H         1 RES1    0.0000
     48 H20        5.3943   11.1538    3.0902 H         1 RES1    0.0000
@<TRIPOS>BOND
     1    1   10 1
     2    2    8 2
     3    3    8 2
     4    4   22 2
     5    5   22 1
     6    6   24 2
     7    7   24 1
     8    8   13 1
     9    9   16 ar
    10   10   11 ar
    11   11   12 ar
    12   12   13 ar
    13   13   14 ar
    14   14   15 ar
    15   15   10 ar
    16   16   11 1
    17   17    9 ar
    18   18   17 ar
    19   19   18 ar
    20   20   16 ar
    21   21   17 1
    22   22   18 1
    23   23   19 1
    24   24   23 1
    25   25    5 1
    26   26   25 1
    27   27    7 1
    28   28   27 1
    29   29    1 1
    30   30   12 1
    31   31   14 1
    32   32   15 1
    33   33   20 1
    34   34   21 1
    35   35   21 1
    36   36   21 1
    37   37   23 1
    38   38   23 1
    39   39   25 1
    40   40   25 1
    41   41   26 1
    42   42   26 1
    43   43   26 1
    44   44   27 1
    45   45   27 1
    46   46   28 1
    47   47   28 1
    48   48   28 1
    49   19   20 ar
@<TRIPOS>SUBSTRUCTURE
     1 RES1 1

@<TRIPOS>CRYSIN
   7.3010   33.1860    7.7040  90.0000  92.5100  90.0000  14 1

