# MOL2 file generated by ConQuest
# Please check atom types

@<TRIPOS>MOLECULE
ZULYEK
    31    33     1
SMALL
NO_CHARGES
****
Generated from CSD

@<TRIPOS>ATOM
      1 N1         1.4007    6.1315    7.3543 N.pl3     1 RES1    0.0000
      2 H1         1.8274    5.4548    7.1881 H         1 RES1    0.0000
      3 C1         0.9856    6.5084    8.6035 C.2       1 RES1    0.0000
      4 C2         1.2922    5.6336    9.7747 C.3       1 RES1    0.0000
      5 H2         0.4435    5.0431   10.0240 H         1 RES1    0.0000
      6 H3         2.1332    5.1331    9.6966 H         1 RES1    0.0000
      7 H4         1.3381    6.1752   10.6512 H         1 RES1    0.0000
      8 C3         0.3448    7.7267    8.5103 C.2       1 RES1    0.0000
      9 C4         0.3747    8.1037    7.1201 C.ar      1 RES1    0.0000
     10 C5        -0.1514    9.1779    6.3670 C.ar      1 RES1    0.0000
     11 H5        -0.6805    9.9061    6.8229 H         1 RES1    0.0000
     12 C6         0.0428    9.1946    5.0070 C.ar      1 RES1    0.0000
     13 H6        -0.3364    9.9189    4.4604 H         1 RES1    0.0000
     14 C7         0.7493    8.1783    4.3496 C.ar      1 RES1    0.0000
     15 H7         0.8640    8.2336    3.3195 H         1 RES1    0.0000
     16 C8         1.2532    7.1041    5.0573 C.ar      1 RES1    0.0000
     17 H8         1.7051    6.3424    4.5738 H         1 RES1    0.0000
     18 C9         1.0444    7.0835    6.4249 C.ar      1 RES1    0.0000
     19 C10       -0.1980    8.4973    9.6286 C.ar      1 RES1    0.0000
     20 C11       -0.0902    9.8970    9.6513 C.ar      1 RES1    0.0000
     21 H9         0.2982   10.3692    8.8529 H         1 RES1    0.0000
     22 C12       -0.5444   10.6188   10.7318 C.ar      1 RES1    0.0000
     23 H10       -0.4588   11.5013   10.7595 H         1 RES1    0.0000
     24 C13       -1.1201    9.9562   11.7896 C.ar      1 RES1    0.0000
     25 C14       -1.2723    8.5887   11.7896 C.ar      1 RES1    0.0000
     26 H11       -1.7127    8.1693   12.5099 H         1 RES1    0.0000
     27 C15       -0.8105    7.8708   10.7116 C.ar      1 RES1    0.0000
     28 H12       -0.9634    6.9728   10.6990 H         1 RES1    0.0000
     29 N2        -1.5995   10.7178   12.9355 N.pl3     1 RES1    0.0000
     30 O1        -2.2235   10.1376   13.8196 O.2       1 RES1    0.0000
     31 O2        -1.3549   11.9104   12.9758 O.2       1 RES1    0.0000
@<TRIPOS>BOND
     1    1    2 1
     2    3    1 1
     3    4    3 1
     4    5    4 1
     5    6    4 1
     6    7    4 1
     7    8    3 2
     8    9    8 1
     9   10    9 ar
    10   11   10 1
    11   12   10 ar
    12   13   12 1
    13   14   12 ar
    14   15   14 1
    15   16   14 ar
    16   17   16 1
    17   18    1 1
    18   19    8 1
    19   20   19 ar
    20   21   20 1
    21   22   20 ar
    22   23   22 1
    23   24   22 ar
    24   25   24 ar
    25   26   25 1
    26   27   19 ar
    27   28   27 1
    28   29   24 1
    29   30   29 2
    30   31   29 2
    31    9   18 ar
    32   16   18 ar
    33   25   27 ar
@<TRIPOS>SUBSTRUCTURE
     1 RES1 1

@<TRIPOS>CRYSIN
   7.6460   12.8650   25.1860  90.0000  90.0000  90.0000  61 3

