# MOL2 file generated by ConQuest
# Please check atom types

@<TRIPOS>MOLECULE
ZUMBIU
   186   196     2
SMALL
NO_CHARGES
****
Generated from CSD

@<TRIPOS>ATOM
      1 O1         8.3477    8.7258    7.3983 O.3       1 RES1    0.0000
      2 O2         6.6929    6.7657    9.2341 O.3       1 RES1    0.0000
      3 O3         8.5362    6.5253    5.5032 O.3       1 RES1    0.0000
      4 O4         8.4144   11.5386    5.7513 O.3       1 RES1    0.0000
      5 O5         8.2964    7.8699   11.4230 O.3       1 RES1    0.0000
      6 O6         5.3538    8.4457    6.1167 O.2       1 RES1    0.0000
      7 O7         5.0507   10.6449    8.8614 O.3       1 RES1    0.0000
      8 N1         6.4484   10.4779    6.1217 N.am      1 RES1    0.0000
      9 O8         9.8405   10.5979    9.8404 O.2       1 RES1    0.0000
     10 N2         8.6175   10.6706    9.9102 N.pl3     1 RES1    0.0000
     11 C1         8.1054    7.0040    9.1757 C.3       1 RES1    0.0000
     12 H1         8.5754    6.1968    9.4737 H         1 RES1    0.0000
     13 O9         6.2775    9.2953    4.2649 O.3       1 RES1    0.0000
     14 C2         8.5344    7.3241    7.7503 C.3       1 RES1    0.0000
     15 H2         9.4939    7.1387    7.6917 H         1 RES1    0.0000
     16 O10        8.0154   11.7076   10.1247 O.2       1 RES1    0.0000
     17 C3         7.3353    9.3527    8.1693 C.3       1 RES1    0.0000
     18 H3         6.5398    8.7817    8.1282 H         1 RES1    0.0000
     19 O11        5.7442   12.6555    8.1818 O.2       1 RES1    0.0000
     20 C4         8.5243    8.1635   10.0524 C.3       1 RES1    0.0000
     21 H4         9.4838    8.3203    9.9239 H         1 RES1    0.0000
     22 C5         7.8466    6.4253    6.7427 C.3       1 RES1    0.0000
     23 H5         7.8585    5.5082    7.0557 H         1 RES1    0.0000
     24 H6         6.9230    6.6987    6.6305 H         1 RES1    0.0000
     25 C6         7.7651    9.4342    9.6383 C.3       1 RES1    0.0000
     26 H7         6.9561    9.4966   10.1883 H         1 RES1    0.0000
     27 C7         6.6271    4.4127    9.9676 C.ar      1 RES1    0.0000
     28 O12        6.8643   10.9942    2.7959 O.3       1 RES1    0.0000
     29 C8         8.5875    5.9785    3.1650 C.ar      1 RES1    0.0000
     30 C9         6.9767   10.6976    7.4785 C.3       1 RES1    0.0000
     31 C10        7.7711    6.0112    4.4158 C.3       1 RES1    0.0000
     32 H8         6.9897    6.5676    4.2773 H         1 RES1    0.0000
     33 H9         7.4688    5.1149    4.6290 H         1 RES1    0.0000
     34 C11        5.9782    9.3216    5.5767 C.2       1 RES1    0.0000
     35 C12        5.8851   11.4692    8.2354 C.2       1 RES1    0.0000
     36 C13        9.1132    8.0097   13.6675 C.ar      1 RES1    0.0000
     37 C14        7.7076    3.7882   10.5749 C.ar      1 RES1    0.0000
     38 H10        8.2534    4.2694   11.1522 H         1 RES1    0.0000
     39 C15        7.1685   11.3052    5.1353 C.3       1 RES1    0.0000
     40 C16        6.2810    5.8478   10.2681 C.3       1 RES1    0.0000
     41 H11        5.3206    5.9199   10.3891 H         1 RES1    0.0000
     42 H12        6.7034    6.1035   11.1024 H         1 RES1    0.0000
     43 C17        8.1997   11.6062    7.1505 C.3       1 RES1    0.0000
     44 H13        8.0194   12.5211    7.4174 H         1 RES1    0.0000
     45 H14        8.9858   11.2956    7.6256 H         1 RES1    0.0000
     46 C18        9.9435    5.7054    3.1924 C.ar      1 RES1    0.0000
     47 H15       10.3674    5.5635    4.0080 H         1 RES1    0.0000
     48 C19        3.8843   11.2541    9.4650 C.3       1 RES1    0.0000
     49 H16        4.1629   11.9425   10.0748 H         1 RES1    0.0000
     50 H17        3.3850   10.5875    9.9426 H         1 RES1    0.0000
     51 H18        3.3325   11.6383    8.7804 H         1 RES1    0.0000
     52 C20        7.9827    2.4417   10.3255 C.ar      1 RES1    0.0000
     53 H19        8.7133    2.0341   10.7320 H         1 RES1    0.0000
     54 C21        5.8571    3.6767    9.1034 C.ar      1 RES1    0.0000
     55 H20        5.1408    4.0812    8.6682 H         1 RES1    0.0000
     56 C22        7.1838    1.7280    9.4887 C.ar      1 RES1    0.0000
     57 H21        7.3545    0.8262    9.3403 H         1 RES1    0.0000
     58 C23        8.6168    9.6301    3.8434 C.3       1 RES1    0.0000
     59 H22        8.5485    8.9079    3.2149 H         1 RES1    0.0000
     60 H23        8.8634    9.2838    4.7038 H         1 RES1    0.0000
     61 H24        9.2854   10.2510    3.5453 H         1 RES1    0.0000
     62 C24        8.9548    8.7332   12.3531 C.3       1 RES1    0.0000
     63 H25        8.4332    9.5402   12.4816 H         1 RES1    0.0000
     64 H26        9.8259    8.9854   12.0090 H         1 RES1    0.0000
     65 C25        7.9660    6.1868    1.9404 C.ar      1 RES1    0.0000
     66 H27        7.0551    6.3742    1.9092 H         1 RES1    0.0000
     67 C26       10.0462    5.8436    0.8093 C.ar      1 RES1    0.0000
     68 H28       10.5408    5.7923    0.0237 H         1 RES1    0.0000
     69 C27        9.6260    6.7654   13.7648 C.ar      1 RES1    0.0000
     70 H29        9.8454    6.3249   12.9754 H         1 RES1    0.0000
     71 C28        8.7560    8.6898   14.8223 C.ar      1 RES1    0.0000
     72 H30        8.3865    9.5424   14.7736 H         1 RES1    0.0000
     73 C29        7.2983   10.3294    3.9469 C.3       1 RES1    0.0000
     74 C30        6.1327    2.3315    8.8677 C.ar      1 RES1    0.0000
     75 H31        5.5963    1.8440    8.2853 H         1 RES1    0.0000
     76 C31        6.4464   12.6036    4.8485 C.3       1 RES1    0.0000
     77 H32        6.2865   13.0693    5.6715 H         1 RES1    0.0000
     78 H33        5.6085   12.4157    4.4183 H         1 RES1    0.0000
     79 H34        6.9862   13.1492    4.2711 H         1 RES1    0.0000
     80 C32        8.7016    6.1169    0.7520 C.ar      1 RES1    0.0000
     81 H35        8.2849    6.2525   -0.0686 H         1 RES1    0.0000
     82 C33        9.5757    6.7742   16.0431 C.ar      1 RES1    0.0000
     83 H36        9.8051    6.3548   16.8412 H         1 RES1    0.0000
     84 C34        9.8335    6.1432   14.8759 C.ar      1 RES1    0.0000
     85 H37       10.1570    5.2716   14.8734 H         1 RES1    0.0000
     86 C35       10.6682    5.6436    2.0264 C.ar      1 RES1    0.0000
     87 H38       11.5810    5.4680    2.0576 H         1 RES1    0.0000
     88 C36        8.9658    8.0558   16.0930 C.ar      1 RES1    0.0000
     89 H39        8.7185    8.4575   16.8949 H         1 RES1    0.0000
     90 C37        7.0496   10.2846    1.5463 C.3       1 RES1    0.0000
     91 H40        7.9864   10.2284    1.3456 H         1 RES1    0.0000
     92 H41        6.5989   10.7551    0.8417 H         1 RES1    0.0000
     93 H42        6.6849    9.3998    1.6236 H         1 RES1    0.0000
     94 O13        1.1688    7.0892    6.6135 O.3       2 RES2    0.0000
     95 O14        2.6433    5.1769    8.6334 O.3       2 RES2    0.0000
     96 O15        2.8196    5.5940    4.5997 O.3       2 RES2    0.0000
     97 O16        2.8992    7.4650   10.3939 O.3       2 RES2    0.0000
     98 O17       -0.1436    5.7001   10.1035 O.2       2 RES2    0.0000
     99 O18        2.6676    2.3488   10.3205 O.3       2 RES2    0.0000
    100 O19        0.9415    4.8874   11.8818 O.3       2 RES2    0.0000
    101 O20       -0.3039    1.4239    8.2828 O.2       2 RES2    0.0000
    102 O21        1.7330    2.1014    5.9870 O.2       2 RES2    0.0000
    103 O22        3.7269    2.9174    5.9471 O.2       2 RES2    0.0000
    104 O23       -0.7159    3.3668    7.2515 O.3       2 RES2    0.0000
    105 N3         2.5214    3.0428    6.0918 N.pl3     2 RES2    0.0000
    106 N4         0.7815    3.5857   10.0948 N.am      2 RES2    0.0000
    107 C38        2.9049    6.5483    8.2080 C.3       2 RES2    0.0000
    108 H43        3.8729    6.6849    8.2853 H         2 RES2    0.0000
    109 C39        2.5506    6.7696    6.7490 C.3       2 RES2    0.0000
    110 H44        3.0899    7.5062    6.3936 H         2 RES2    0.0000
    111 C40        2.8967    5.4854    6.0020 C.3       2 RES2    0.0000
    112 H45        3.8055    5.2112    6.2477 H         2 RES2    0.0000
    113 C41        2.2568    7.5486    9.1308 C.3       2 RES2    0.0000
    114 H46        2.3482    8.4431    8.7679 H         2 RES2    0.0000
    115 H47        1.3118    7.3515    9.2243 H         2 RES2    0.0000
    116 C42        1.5612    4.5749    7.9324 C.3       2 RES2    0.0000
    117 H48        0.8026    5.1935    7.9798 H         2 RES2    0.0000
    118 C43        1.3217    9.3787    5.7738 C.ar      2 RES2    0.0000
    119 O24        1.6078    3.2545   13.3707 O.3       2 RES2    0.0000
    120 C44        3.9391    6.2396    2.5664 C.ar      2 RES2    0.0000
    121 C45        1.1644    3.2954    8.7056 C.3       2 RES2    0.0000
    122 C46        0.8578    7.9767    5.5181 C.3       2 RES2    0.0000
    123 H49       -0.1011    7.9813    5.3735 H         2 RES2    0.0000
    124 H50        1.2794    7.6456    4.7101 H         2 RES2    0.0000
    125 C47        2.9712    7.9757   12.7198 C.ar      2 RES2    0.0000
    126 C48        0.4826    4.8181   10.6173 C.2       2 RES2    0.0000
    127 C49        1.5316    2.7604   11.0413 C.3       2 RES2    0.0000
    128 C50       -0.0272    2.5638    8.0546 C.2       2 RES2    0.0000
    129 C51        2.2024    8.1326   11.4316 C.3       2 RES2    0.0000
    130 H51        1.3145    7.7536   11.5289 H         2 RES2    0.0000
    131 H52        2.1082    9.0731   11.2146 H         2 RES2    0.0000
    132 C52        1.9231    4.3977    6.4335 C.3       2 RES2    0.0000
    133 H53        1.1018    4.5046    5.9110 H         2 RES2    0.0000
    134 C53        4.3418    7.8070   12.7185 C.ar      2 RES2    0.0000
    135 H54        4.8124    7.8281   11.9167 H         2 RES2    0.0000
    136 C54        2.4342    9.9055    5.1378 C.ar      2 RES2    0.0000
    137 H55        2.9150    9.3800    4.5392 H         2 RES2    0.0000
    138 C55        3.6152    5.2307    1.6835 C.ar      2 RES2    0.0000
    139 H56        3.4398    4.3756    2.0052 H         2 RES2    0.0000
    140 C56        2.1651   11.9999    6.2738 C.ar      2 RES2    0.0000
    141 H57        2.4366   12.8766    6.4272 H         2 RES2    0.0000
    142 C57        2.8376   11.2112    5.3872 C.ar      2 RES2    0.0000
    143 H58        3.5787   11.5539    4.9408 H         2 RES2    0.0000
    144 C58        2.3538    2.3077    8.9500 C.3       2 RES2    0.0000
    145 H59        2.1003    1.4081    8.6906 H         2 RES2    0.0000
    146 H60        3.1234    2.5737    8.4225 H         2 RES2    0.0000
    147 C59        2.2912    8.0037   13.9306 C.ar      2 RES2    0.0000
    148 H61        1.3716    8.1407   13.9481 H         2 RES2    0.0000
    149 C60        4.2186    7.4900    2.0576 C.ar      2 RES2    0.0000
    150 H62        4.4313    8.1893    2.6325 H         2 RES2    0.0000
    151 C61        0.6674   10.1896    6.7016 C.ar      2 RES2    0.0000
    152 H63       -0.0615    9.8499    7.1680 H         2 RES2    0.0000
    153 C62        4.0802    6.0054    4.0454 C.3       2 RES2    0.0000
    154 H64        4.7461    5.3186    4.2050 H         2 RES2    0.0000
    155 H65        4.3762    6.8208    4.4781 H         2 RES2    0.0000
    156 C63        3.5491    5.4740    0.3367 C.ar      2 RES2    0.0000
    157 H66        3.2961    4.7928   -0.2444 H         2 RES2    0.0000
    158 C64        1.9085    3.7937   12.1324 C.3       2 RES2    0.0000
    159 C65       -1.7692    2.7397    6.4808 C.3       2 RES2    0.0000
    160 H67       -1.4246    1.9580    6.0444 H         2 RES2    0.0000
    161 H68       -2.0941    3.3582    5.8224 H         2 RES2    0.0000
    162 H69       -2.4870    2.4898    7.0670 H         2 RES2    0.0000
    163 C66        0.7474    1.5737   11.5488 C.3       2 RES2    0.0000
    164 H70        0.4725    1.0312   10.8068 H         2 RES2    0.0000
    165 H71       -0.0266    1.8834   12.0252 H         2 RES2    0.0000
    166 H72        1.2988    1.0552   12.1387 H         2 RES2    0.0000
    167 C67        4.1813    7.7082    0.6746 C.ar      2 RES2    0.0000
    168 H73        4.3850    8.5486    0.3305 H         2 RES2    0.0000
    169 C68        2.9942    7.8274   15.1203 C.ar      2 RES2    0.0000
    170 H74        2.5389    7.8499   15.9309 H         2 RES2    0.0000
    171 C69        5.0175    7.6053   13.9157 C.ar      2 RES2    0.0000
    172 H75        5.9353    7.4588   13.9057 H         2 RES2    0.0000
    173 C70        4.3478    7.6200   15.1066 C.ar      2 RES2    0.0000
    174 H76        4.8092    7.4915   15.9035 H         2 RES2    0.0000
    175 C71        3.8517    6.7085   -0.1559 C.ar      2 RES2    0.0000
    176 H77        3.8301    6.8582   -1.0737 H         2 RES2    0.0000
    177 C72        3.2788    4.3669   11.9990 C.3       2 RES2    0.0000
    178 H78        3.3820    5.0963   12.6150 H         2 RES2    0.0000
    179 H79        3.4066    4.6842   11.1024 H         2 RES2    0.0000
    180 H80        3.9297    3.6881   12.1948 H         2 RES2    0.0000
    181 C73        1.0750   11.4774    6.9435 C.ar      2 RES2    0.0000
    182 H81        0.6151   12.0006    7.5595 H         2 RES2    0.0000
    183 C74        1.9792    4.0440   14.5180 C.3       2 RES2    0.0000
    184 H82        2.9236    3.9636   14.6689 H         2 RES2    0.0000
    185 H83        1.5036    3.7290   15.2899 H         2 RES2    0.0000
    186 H84        1.7573    4.9645   14.3584 H         2 RES2    0.0000
@<TRIPOS>BOND
     1    1   14 1
     2    2   11 1
     3    3   22 1
     4    4   39 1
     5    5   20 1
     6    6   34 2
     7    7   35 1
     8    8   30 1
     9    9   10 2
    10   10   16 2
    11   11   12 1
    12   13   34 1
    13   14   11 1
    14   15   14 1
    15   17    1 1
    16   18   17 1
    17   19   35 2
    18   20   11 1
    19   21   20 1
    20   22   14 1
    21   23   22 1
    22   24   22 1
    23   25   10 1
    24   26   25 1
    25   27   37 ar
    26   28   73 1
    27   29   31 1
    28   30   17 1
    29   31    3 1
    30   32   31 1
    31   33   31 1
    32   34    8 1
    33   35   30 1
    34   36   62 1
    35   37   38 1
    36   39    8 1
    37   40    2 1
    38   41   40 1
    39   42   40 1
    40   43    4 1
    41   44   43 1
    42   45   43 1
    43   46   29 ar
    44   47   46 1
    45   48    7 1
    46   49   48 1
    47   50   48 1
    48   51   48 1
    49   52   37 ar
    50   53   52 1
    51   54   27 ar
    52   55   54 1
    53   56   52 ar
    54   57   56 1
    55   58   59 1
    56   60   58 1
    57   61   58 1
    58   62    5 1
    59   63   62 1
    60   64   62 1
    61   65   29 ar
    62   66   65 1
    63   67   68 1
    64   69   36 ar
    65   70   69 1
    66   71   36 ar
    67   72   71 1
    68   73   13 1
    69   74   54 ar
    70   75   74 1
    71   76   39 1
    72   77   76 1
    73   78   76 1
    74   79   76 1
    75   80   65 ar
    76   81   80 1
    77   82   83 1
    78   84   69 ar
    79   85   84 1
    80   86   46 ar
    81   87   86 1
    82   88   71 ar
    83   89   88 1
    84   90   28 1
    85   91   90 1
    86   92   90 1
    87   93   90 1
    88   94  109 1
    89   95  107 1
    90   96  111 1
    91   97  113 1
    92   98  126 2
    93   99  127 1
    94  100  126 1
    95  101  128 2
    96  102  105 2
    97  103  105 2
    98  104  128 1
    99  105  132 1
   100  106  121 1
   101  107  108 1
   102  109  107 1
   103  110  109 1
   104  111  109 1
   105  112  111 1
   106  113  107 1
   107  114  113 1
   108  115  113 1
   109  116   95 1
   110  117  116 1
   111  118  122 1
   112  119  158 1
   113  120  138 ar
   114  121  116 1
   115  122   94 1
   116  123  122 1
   117  124  122 1
   118  125  129 1
   119  126  106 1
   120  127  106 1
   121  128  121 1
   122  129   97 1
   123  130  129 1
   124  131  129 1
   125  132  111 1
   126  133  132 1
   127  134  125 ar
   128  135  134 1
   129  136  118 ar
   130  137  136 1
   131  138  139 1
   132  140  141 1
   133  142  136 ar
   134  143  142 1
   135  144   99 1
   136  145  144 1
   137  146  144 1
   138  147  125 ar
   139  148  147 1
   140  149  120 ar
   141  150  149 1
   142  151  118 ar
   143  152  151 1
   144  153   96 1
   145  154  153 1
   146  155  153 1
   147  156  138 ar
   148  157  156 1
   149  158  100 1
   150  159  104 1
   151  160  159 1
   152  161  159 1
   153  162  159 1
   154  163  127 1
   155  164  163 1
   156  165  163 1
   157  166  163 1
   158  167  149 ar
   159  168  167 1
   160  169  147 ar
   161  170  169 1
   162  171  134 ar
   163  172  171 1
   164  173  169 ar
   165  174  173 1
   166  175  156 ar
   167  176  175 1
   168  177  158 1
   169  178  177 1
   170  179  177 1
   171  180  177 1
   172  181  140 ar
   173  182  181 1
   174  183  119 1
   175  184  183 1
   176  185  183 1
   177  186  183 1
   178   17   25 1
   179   20   25 1
   180   27   40 1
   181   30   43 1
   182   39   73 1
   183   56   74 ar
   184   58   73 1
   185   67   80 ar
   186   67   86 ar
   187   82   84 ar
   188   82   88 ar
   189  116  132 1
   190  120  153 1
   191  121  144 1
   192  127  158 1
   193  140  142 ar
   194  151  181 ar
   195  167  175 ar
   196  171  173 ar
@<TRIPOS>SUBSTRUCTURE
     1 RES1 1
     2 RES2 94

@<TRIPOS>CRYSIN
  10.9237   13.2890   13.9727  63.6820  81.3380  81.1200   1 1

