# MOL2 file generated by ConQuest
# Please check atom types

@<TRIPOS>MOLECULE
ZUMHOG
    96    84     3
SMALL
NO_CHARGES
****
Generated from CSD

@<TRIPOS>ATOM
      1 O1        25.7451   -1.7749    1.0218 O.2       1 RES1    0.0000
      2 O2        23.7352   -1.7300   -0.7030 O.3       1 RES1    0.0000
      3 O3        25.1477    0.1866   -3.4157 O.2       1 RES1    0.0000
      4 N1        23.7116   -0.9691    0.4884 N.am      1 RES1    0.0000
      5 N2        26.1137   -0.9888   -1.7340 N.am      1 RES1    0.0000
      6 C1        23.7329   -0.8856   -1.8438 C.3       1 RES1    0.0000
      7 C2        22.6521   -1.2338   -2.8262 C.3       1 RES1    0.0000
      8 H1        22.8539   -1.1530   -3.7708 H         1 RES1    0.0000
      9 H2        22.0473   -1.9588   -2.5972 H         1 RES1    0.0000
     10 C3        22.5694    0.0054   -2.0312 C.3       1 RES1    0.0000
     11 H3        21.9079    0.0413   -1.3194 H         1 RES1    0.0000
     12 H4        22.7130    0.8462   -2.4912 H         1 RES1    0.0000
     13 C4        25.0597   -0.5052   -2.4003 C.2       1 RES1    0.0000
     14 C5        24.7271   -1.1808    1.3554 C.2       1 RES1    0.0000
     15 C6        24.5174   -0.6111    2.7297 C.3       1 RES1    0.0000
     16 C7        23.6588   -1.6223    3.5134 C.3       1 RES1    0.0000
     17 H5        23.5047   -1.2930    4.4012 H         1 RES1    0.0000
     18 H6        24.1147   -2.4658    3.5569 H         1 RES1    0.0000
     19 H7        22.8137   -1.7381    3.0666 H         1 RES1    0.0000
     20 C8        25.8596   -0.4163    3.3903 C.3       1 RES1    0.0000
     21 H8        25.7328   -0.0458    4.2668 H         1 RES1    0.0000
     22 H9        26.3915    0.1830    2.8622 H         1 RES1    0.0000
     23 H10       26.3049   -1.2634    3.4622 H         1 RES1    0.0000
     24 C9        23.7462    0.7026    2.7126 C.3       1 RES1    0.0000
     25 H11       23.6468    1.0283    3.6118 H         1 RES1    0.0000
     26 H12       22.8778    0.5572    2.3302 H         1 RES1    0.0000
     27 H13       24.2229    1.3486    2.1883 H         1 RES1    0.0000
     28 C10       27.4756   -0.7914   -2.1902 C.3       1 RES1    0.0000
     29 H14       27.4689   -0.6837   -3.1556 H         1 RES1    0.0000
     30 H15       27.9911   -1.5855   -1.9857 H         1 RES1    0.0000
     31 C11       28.1482    0.3966   -1.5768 C.3       1 RES1    0.0000
     32 H16       27.5869    1.1853   -1.7264 H         1 RES1    0.0000
     33 C12       28.3807    0.2503   -0.1022 C.3       1 RES1    0.0000
     34 H17       28.7828    1.0543    0.2404 H         1 RES1    0.0000
     35 H18       28.9684   -0.4917    0.0568 H         1 RES1    0.0000
     36 H19       27.5429    0.0960    0.3426 H         1 RES1    0.0000
     37 C13       29.5156    0.6182   -2.2886 C.3       1 RES1    0.0000
     38 H20       29.3720    0.7259   -3.2313 H         1 RES1    0.0000
     39 H21       30.0815   -0.1409   -2.1353 H         1 RES1    0.0000
     40 H22       29.9328    1.4079   -1.9365 H         1 RES1    0.0000
     41 H23       25.9054   -1.4895   -0.9313 H         1 RES1    0.0000
     42 H24       22.7760   -0.8704    0.7193 H         1 RES1    0.0000
     43 O4        17.7938   -3.9759    2.7815 O.2       2 RES2    0.0000
     44 O5        17.8861   -1.3289    2.7196 O.3       2 RES2    0.0000
     45 O6        21.0005   -0.7430    0.9862 O.2       2 RES2    0.0000
     46 N3        18.1890   -2.0683    3.8901 N.am      2 RES2    0.0000
     47 N4        19.7090   -2.6156    1.1187 N.am      2 RES2    0.0000
     48 C14       19.0201   -0.6164    2.2583 C.3       2 RES2    0.0000
     49 C15       18.7026    0.7941    1.8740 C.3       2 RES2    0.0000
     50 H25       19.1680    1.1701    1.1093 H         2 RES2    0.0000
     51 H26       17.7900    1.0992    1.9857 H         2 RES2    0.0000
     52 C16       19.4942    0.5133    3.0988 C.3       2 RES2    0.0000
     53 H27       19.0615    0.6514    3.9563 H         2 RES2    0.0000
     54 H28       20.4431    0.7214    3.0799 H         2 RES2    0.0000
     55 C17       19.9940   -1.3504    1.4046 C.2       2 RES2    0.0000
     56 C18       17.9746   -3.3954    3.8371 C.2       2 RES2    0.0000
     57 C19       18.0265   -4.1105    5.1697 C.3       2 RES2    0.0000
     58 C20       16.6115   -3.8494    5.7925 C.3       2 RES2    0.0000
     59 H29       16.5522   -4.2882    6.6443 H         2 RES2    0.0000
     60 H30       15.9336   -4.1985    5.2057 H         2 RES2    0.0000
     61 H31       16.4796   -2.9064    5.9061 H         2 RES2    0.0000
     62 C21       19.0466   -3.5354    6.1919 C.3       2 RES2    0.0000
     63 H32       19.0118   -4.0513    7.0021 H         2 RES2    0.0000
     64 H33       18.8276   -2.6219    6.3850 H         2 RES2    0.0000
     65 H34       19.9310   -3.5829    5.8228 H         2 RES2    0.0000
     66 C22       18.4598   -5.5274    4.9407 C.3       2 RES2    0.0000
     67 H35       18.4891   -5.9958    5.7792 H         2 RES2    0.0000
     68 H36       19.3315   -5.5381    4.5393 H         2 RES2    0.0000
     69 H37       17.8327   -5.9653    4.3557 H         2 RES2    0.0000
     70 C23       20.5506   -3.4537    0.2783 C.3       2 RES2    0.0000
     71 H38       21.3589   -2.9647    0.0492 H         2 RES2    0.0000
     72 H39       20.0795   -3.6511   -0.5471 H         2 RES2    0.0000
     73 C24       20.9295   -4.7440    0.9503 C.3       2 RES2    0.0000
     74 H40       20.0886   -5.2124    1.1263 H         2 RES2    0.0000
     75 C25       21.5980   -4.6489    2.2167 C.3       2 RES2    0.0000
     76 H41       21.0758   -4.1123    2.8148 H         2 RES2    0.0000
     77 H42       22.4617   -4.2442    2.0936 H         2 RES2    0.0000
     78 H43       21.7109   -5.5283    2.5858 H         2 RES2    0.0000
     79 C26       21.7025   -5.6270   -0.0530 C.3       2 RES2    0.0000
     80 H44       21.2039   -5.6996   -0.8689 H         2 RES2    0.0000
     81 H45       21.8334   -6.5009    0.3218 H         2 RES2    0.0000
     82 H46       22.5566   -5.2295   -0.2366 H         2 RES2    0.0000
     83 H47       18.0049   -1.4716    4.6378 H         2 RES2    0.0000
     84 H48       18.8889   -2.9073    1.5901 H         2 RES2    0.0000
     85 C27       17.2683   -3.6700    6.2657 Du        3 SUP3    0.0000
     86 H49       17.3649   -4.3043    6.9775 Du        3 SUP3    0.0000
     87 H50       16.3616   -3.5919    6.0064 Du        3 SUP3    0.0000
     88 H51       17.6137   -2.8175    6.5459 Du        3 SUP3    0.0000
     89 C28       19.4350   -4.0289    5.6221 Du        3 SUP3    0.0000
     90 H52       19.9895   -4.5655    5.0353 Du        3 SUP3    0.0000
     91 H53       19.5155   -4.3546    6.5156 Du        3 SUP3    0.0000
     92 H54       19.7373   -3.1172    5.5786 Du        3 SUP3    0.0000
     93 C29       17.4809   -5.4915    4.9217 Du        3 SUP3    0.0000
     94 H55       17.7473   -5.7885    4.0434 Du        3 SUP3    0.0000
     95 H56       16.5238   -5.4798    4.9766 Du        3 SUP3    0.0000
     96 H57       17.8340   -6.1007    5.5767 Du        3 SUP3    0.0000
@<TRIPOS>BOND
     1    1   14 2
     2    2    4 1
     3    3   13 2
     4    4   14 1
     5    5   13 1
     6    6    2 1
     7    7    6 1
     8    8    7 1
     9    9    7 1
    10   10    6 1
    11   11   10 1
    12   12   10 1
    13   13    6 1
    14   14   15 1
    15   15   16 1
    16   16   17 1
    17   18   16 1
    18   19   16 1
    19   20   15 1
    20   21   20 1
    21   22   20 1
    22   23   20 1
    23   24   15 1
    24   25   24 1
    25   26   24 1
    26   27   24 1
    27   28    5 1
    28   29   28 1
    29   30   28 1
    30   31   28 1
    31   32   31 1
    32   33   31 1
    33   34   33 1
    34   35   33 1
    35   36   33 1
    36   37   31 1
    37   38   37 1
    38   39   37 1
    39   40   37 1
    40   41    5 1
    41   42    4 1
    42   43   56 2
    43   44   46 1
    44   45   55 2
    45   46   56 1
    46   47   55 1
    47   48   44 1
    48   49   48 1
    49   50   49 1
    50   51   49 1
    51   52   48 1
    52   53   52 1
    53   54   52 1
    54   55   48 1
    55   56   57 1
    56   57   58 1
    57   58   59 1
    58   60   58 1
    59   61   58 1
    60   62   57 1
    61   63   62 1
    62   64   62 1
    63   65   62 1
    64   66   57 1
    65   67   66 1
    66   68   66 1
    67   69   66 1
    68   70   47 1
    69   71   70 1
    70   72   70 1
    71   73   70 1
    72   74   73 1
    73   75   73 1
    74   76   75 1
    75   77   75 1
    76   78   75 1
    77   79   73 1
    78   80   79 1
    79   81   79 1
    80   82   79 1
    81   83   46 1
    82   84   47 1
    83    7   10 1
    84   49   52 1
@<TRIPOS>SUBSTRUCTURE
     1 RES1 1
     2 RES2 43
     3 SUP3 85

@<TRIPOS>CRYSIN
  37.3480    8.9730   23.8540  90.0000 127.4800  90.0000  15 1

