# MOL2 file generated by ConQuest
# Please check atom types

@<TRIPOS>MOLECULE
ZUMJAU
    73    73     1
SMALL
NO_CHARGES
****
Generated from CSD

@<TRIPOS>ATOM
      1 C1         8.2892   11.3454    0.8436 C.3       1 RES1    0.0000
      2 H1         9.2350   11.1090    0.7441 H         1 RES1    0.0000
      3 C2         7.5017   10.4227    0.0257 C.3       1 RES1    0.0000
      4 H2         7.7298    9.5183    0.2502 H         1 RES1    0.0000
      5 H3         7.6903   10.5782   -0.9045 H         1 RES1    0.0000
      6 H4         6.5670   10.5671    0.1925 H         1 RES1    0.0000
      7 C3         8.1116   12.7825    0.3932 C.3       1 RES1    0.0000
      8 H5         8.2487   12.8395   -0.5581 H         1 RES1    0.0000
      9 H6         8.7510   13.3400    0.8404 H         1 RES1    0.0000
     10 H7         7.2238   13.0778    0.6094 H         1 RES1    0.0000
     11 C4         7.9230   11.2691    2.3543 C.3       1 RES1    0.0000
     12 H8         8.4769   11.8910    2.8483 H         1 RES1    0.0000
     13 H9         6.9966   11.5285    2.4762 H         1 RES1    0.0000
     14 N1         8.1227    9.9056    2.8855 N.am      1 RES1    0.0000
     15 H10        8.8449    9.6140    2.5083 H         1 RES1    0.0000
     16 C5         7.1613    9.2736    3.4295 C.2       1 RES1    0.0000
     17 O1         5.9828    9.5818    3.6251 O.2       1 RES1    0.0000
     18 C6         7.4888    7.8338    3.8670 C.3       1 RES1    0.0000
     19 H11        7.4308    7.8016    4.8433 H         1 RES1    0.0000
     20 C7         6.5476    6.7583    3.3101 C.3       1 RES1    0.0000
     21 H12        5.6460    6.9653    3.6309 H         1 RES1    0.0000
     22 C8         6.4989    6.7850    1.8039 C.3       1 RES1    0.0000
     23 H13        7.3922    6.7473    1.4562 H         1 RES1    0.0000
     24 H14        6.0748    7.5955    1.5139 H         1 RES1    0.0000
     25 H15        5.9984    6.0297    1.4883 H         1 RES1    0.0000
     26 C9         6.8972    5.3995    3.8131 C.3       1 RES1    0.0000
     27 H16        6.1401    4.8171    3.7143 H         1 RES1    0.0000
     28 H17        7.1420    5.4547    4.7407 H         1 RES1    0.0000
     29 H18        7.6351    5.0508    3.3101 H         1 RES1    0.0000
     30 O2         8.8467    7.4833    3.4975 O.3       1 RES1    0.0000
     31 N2         9.6315    7.1272    4.5572 N.am      1 RES1    0.0000
     32 H19        9.6784    6.2762    4.6894 H         1 RES1    0.0000
     33 C10       10.7171    7.9470    4.9165 C.2       1 RES1    0.0000
     34 O3        10.7539    9.0850    4.4315 O.2       1 RES1    0.0000
     35 C11       11.5175    7.4060    5.9743 C.3       1 RES1    0.0000
     36 C12       11.9885    8.3444    7.0546 C.3       1 RES1    0.0000
     37 H20       11.6371    9.2478    7.0437 H         1 RES1    0.0000
     38 H21       12.1247    7.9736    7.9418 H         1 RES1    0.0000
     39 C13       12.9499    7.9911    6.0288 C.3       1 RES1    0.0000
     40 H22       13.6730    7.3931    6.2739 H         1 RES1    0.0000
     41 H23       13.1854    8.6710    5.3758 H         1 RES1    0.0000
     42 O4        11.3510    6.0646    6.3630 O.3       1 RES1    0.0000
     43 N3        12.0005    5.1658    5.4906 N.am      1 RES1    0.0000
     44 H24       12.8616    5.2072    5.4335 H         1 RES1    0.0000
     45 C14       11.2728    4.2191    4.8703 C.2       1 RES1    0.0000
     46 O5        10.0482    4.3617    4.7766 O.2       1 RES1    0.0000
     47 C15       12.0336    3.1455    4.1601 C.3       1 RES1    0.0000
     48 H25       11.8091    2.2715    4.5418 H         1 RES1    0.0000
     49 C16       11.7024    3.1519    2.6321 C.3       1 RES1    0.0000
     50 H26       10.7309    3.0618    2.5403 H         1 RES1    0.0000
     51 C17       12.0998    4.4344    1.9457 C.3       1 RES1    0.0000
     52 H27       13.0557    4.4703    1.8668 H         1 RES1    0.0000
     53 H28       11.7944    5.1824    2.4634 H         1 RES1    0.0000
     54 H29       11.7024    4.4657    1.0713 H         1 RES1    0.0000
     55 C18       12.3436    1.8722    2.0336 C.3       1 RES1    0.0000
     56 H30       11.9287    1.6698    1.1932 H         1 RES1    0.0000
     57 H31       12.2158    1.1380    2.6366 H         1 RES1    0.0000
     58 H32       13.2830    2.0176    1.8988 H         1 RES1    0.0000
     59 O6        13.4486    3.3782    4.2782 O.3       1 RES1    0.0000
     60 N4        14.0723    2.4656    5.1378 N.am      1 RES1    0.0000
     61 H33       14.1772    1.7186    4.7150 H         1 RES1    0.0000
     62 C19       14.5995    2.9265    6.2456 C.2       1 RES1    0.0000
     63 O7        14.3548    4.0554    6.6908 O.2       1 RES1    0.0000
     64 C20       15.5324    1.9734    6.9737 C.3       1 RES1    0.0000
     65 H34       15.3686    1.0709    6.6267 H         1 RES1    0.0000
     66 C21       15.2462    1.9633    8.4030 C.3       1 RES1    0.0000
     67 H35       15.2656    2.8630    8.7372 H         1 RES1    0.0000
     68 H36       15.9077    1.4380    8.8591 H         1 RES1    0.0000
     69 H37       14.3778    1.5842    8.5512 H         1 RES1    0.0000
     70 C22       16.9722    2.3423    6.6498 C.3       1 RES1    0.0000
     71 H38       17.2252    3.1188    7.1527 H         1 RES1    0.0000
     72 H39       17.0513    2.5309    5.7094 H         1 RES1    0.0000
     73 H40       17.5499    1.6100    6.8769 H         1 RES1    0.0000
@<TRIPOS>BOND
     1    1    2 1
     2    3    1 1
     3    4    3 1
     4    5    3 1
     5    6    3 1
     6    7    1 1
     7    8    7 1
     8    9    7 1
     9   10    7 1
    10   11    1 1
    11   12   11 1
    12   13   11 1
    13   14   11 1
    14   15   14 1
    15   16   14 1
    16   17   16 2
    17   18   16 1
    18   19   18 1
    19   20   18 1
    20   21   20 1
    21   22   20 1
    22   23   22 1
    23   24   22 1
    24   25   22 1
    25   26   20 1
    26   27   26 1
    27   28   26 1
    28   29   26 1
    29   30   18 1
    30   31   30 1
    31   32   31 1
    32   33   31 1
    33   34   33 2
    34   35   33 1
    35   36   35 1
    36   37   36 1
    37   38   36 1
    38   39   35 1
    39   40   39 1
    40   41   39 1
    41   42   35 1
    42   43   42 1
    43   44   43 1
    44   45   43 1
    45   46   45 2
    46   47   45 1
    47   48   47 1
    48   49   47 1
    49   50   49 1
    50   51   49 1
    51   52   51 1
    52   53   51 1
    53   54   51 1
    54   55   49 1
    55   56   55 1
    56   57   55 1
    57   58   55 1
    58   59   47 1
    59   60   59 1
    60   61   60 1
    61   62   60 1
    62   63   62 2
    63   64   62 1
    64   65   64 1
    65   66   64 1
    66   67   66 1
    67   68   66 1
    68   69   66 1
    69   70   64 1
    70   71   70 1
    71   72   70 1
    72   73   70 1
    73   36   39 1
@<TRIPOS>SUBSTRUCTURE
     1 RES1 1

@<TRIPOS>CRYSIN
   9.2000    9.2000   64.1500  90.0000  90.0000  90.0000  92 1

