# MOL2 file generated by ConQuest
# Please check atom types

@<TRIPOS>MOLECULE
ZUNPOP
    29    31     1
SMALL
NO_CHARGES
****
Generated from CSD

@<TRIPOS>ATOM
      1 O1         4.7914    1.9360    2.9267 O.3       1 RES1    0.0000
      2 C1         2.9441    1.1293    1.6408 C.ar      1 RES1    0.0000
      3 O2         4.1869   -0.4717    4.5518 O.2       1 RES1    0.0000
      4 C2         1.9095   -0.7473    0.3587 C.ar      1 RES1    0.0000
      5 C3         2.5687   -0.2280    1.4869 C.ar      1 RES1    0.0000
      6 C4         2.9153   -1.0054    2.5817 C.ar      1 RES1    0.0000
      7 O3         0.3609   -1.2566   -1.9201 O.2       1 RES1    0.0000
      8 C5         1.6747    0.2066   -0.6479 C.ar      1 RES1    0.0000
      9 C6         3.6281   -0.1423    3.5305 C.2       1 RES1    0.0000
     10 C7         2.0797    1.5106   -0.5322 C.ar      1 RES1    0.0000
     11 H1         1.9315    2.0918   -1.2428 H         1 RES1    0.0000
     12 C8         3.5193    1.3161    3.0169 C.3       1 RES1    0.0000
     13 N1         0.9411   -0.1785   -1.8672 N.pl3     1 RES1    0.0000
     14 C9         2.7154    2.0032    0.6292 C.ar      1 RES1    0.0000
     15 H2         2.9676    2.8953    0.6969 H         1 RES1    0.0000
     16 C10        2.5678    2.0403    3.9686 C.3       1 RES1    0.0000
     17 H3         1.7051    1.5994    3.9274 H         1 RES1    0.0000
     18 H4         2.9050    1.9332    4.8723 H         1 RES1    0.0000
     19 C11        1.5992   -2.1430    0.4440 C.ar      1 RES1    0.0000
     20 H5         1.1587   -2.5534   -0.2646 H         1 RES1    0.0000
     21 C12        2.5909   -2.3413    2.6268 C.ar      1 RES1    0.0000
     22 H6         2.8074   -2.8625    3.3658 H         1 RES1    0.0000
     23 C13        1.9336   -2.8834    1.5378 C.ar      1 RES1    0.0000
     24 H7         1.7107   -3.7866    1.5525 H         1 RES1    0.0000
     25 C14        2.3601    3.4920    3.7206 C.2       1 RES1    0.0000
     26 H8         3.1163    4.0266    3.6324 H         1 RES1    0.0000
     27 O4         0.9283    0.6213   -2.7650 O.2       1 RES1    0.0000
     28 C15        1.2208    4.0597    3.6197 C.2       1 RES1    0.0000
     29 H9         5.0360    2.1926    3.6657 H         1 RES1    0.0000
@<TRIPOS>BOND
     1    1   12 1
     2    2    5 ar
     3    3    9 2
     4    4    5 ar
     5    5    6 ar
     6    6    9 1
     7    7   13 2
     8    8    4 ar
     9    9   12 1
    10   10    8 ar
    11   11   10 1
    12   12    2 1
    13   13    8 1
    14   14    2 ar
    15   15   14 1
    16   16   12 1
    17   17   16 1
    18   18   16 1
    19   19    4 ar
    20   20   19 1
    21   21    6 ar
    22   22   21 1
    23   23   19 ar
    24   24   23 1
    25   25   16 1
    26   26   25 1
    27   27   13 2
    28   28   25 2
    29   29    1 1
    30   10   14 ar
    31   21   23 ar
@<TRIPOS>SUBSTRUCTURE
     1 RES1 1

@<TRIPOS>CRYSIN
   8.0055    8.6417   10.3601  71.7240  78.5710  66.8200   2 1

