# MOL2 file generated by ConQuest
# Please check atom types

@<TRIPOS>MOLECULE
ZURLUV
    76    78     2
SMALL
USER_CHARGES
****
Generated from CSD

@<TRIPOS>ATOM
      1 N1         7.6167    4.6927    2.6495 N.pl3     1 RES1    0.0000
      2 C1         7.4538    2.2579    2.8812 C.3       1 RES1    0.0000
      3 H1         7.7985    1.4238    2.5247 H         1 RES1    0.0000
      4 H2         6.4926    2.2897    2.7578 H         1 RES1    0.0000
      5 H3         7.6606    2.3143    3.8281 H         1 RES1    0.0000
      6 C2         8.0858    3.4026    2.1657 C.3       1 RES1    0.0000
      7 H4         9.0583    3.3528    2.2787 H         1 RES1    0.0000
      8 H5         7.8903    3.3292    1.2084 H         1 RES1    0.0000
      9 C3         7.4499    6.3345    3.9684 C.2       1 RES1    0.0000
     10 H6         7.5806    6.9139    4.6978 H         1 RES1    0.0000
     11 N2         8.1062    5.1946    3.8074 N.2       1 RES1    0.0000
     12 N3         4.7777    7.9203    1.9264 N.pl3     1 RES1    1.0000
     13 O1         4.5169    7.1390    0.9169 O.2       1 RES1   -1.0000
     14 C4         6.6782    5.4833    2.0992 C.2       1 RES1    0.0000
     15 H7         6.2080    5.3210    1.3012 H         1 RES1    0.0000
     16 C5         6.5378    6.5805    2.9311 C.2       1 RES1    0.0000
     17 C6         5.6762    7.7302    2.8467 C.2       1 RES1    0.0000
     18 C7         5.7179    8.9064    3.7781 C.3       1 RES1    0.0000
     19 H8         6.4624    9.5777    3.4785 H         1 RES1    0.0000
     20 H9         5.9010    8.6961    4.6697 H         1 RES1    0.0000
     21 C8         4.3570    9.5906    3.5510 C.3       1 RES1    0.0000
     22 C9         3.3286    8.9310    4.4848 C.3       1 RES1    0.0000
     23 H10        3.5303    9.1632    5.4055 H         1 RES1    0.0000
     24 H11        3.3671    7.9680    4.3784 H         1 RES1    0.0000
     25 H12        2.4388    9.2461    4.2597 H         1 RES1    0.0000
     26 C10        4.3763   11.0864    3.8551 C.3       1 RES1    0.0000
     27 H13        4.5573   11.2222    4.7992 H         1 RES1    0.0000
     28 H14        3.5151   11.4731    3.6318 H         1 RES1    0.0000
     29 H15        5.0695   11.5145    3.3275 H         1 RES1    0.0000
     30 C11        4.0658    9.2524    2.0578 C.3       1 RES1    0.0000
     31 C12        4.7692   10.1817    1.0768 C.3       1 RES1    0.0000
     32 H16        4.5540    9.9160    0.1683 H         1 RES1    0.0000
     33 H17        5.7284   10.1266    1.2106 H         1 RES1    0.0000
     34 H18        4.4732   11.0933    1.2257 H         1 RES1    0.0000
     35 C13        2.6020    9.0943    1.6862 C.3       1 RES1    0.0000
     36 H19        2.5292    8.8821    0.7423 H         1 RES1    0.0000
     37 H20        2.1303    9.9227    1.8687 H         1 RES1    0.0000
     38 H21        2.2110    8.3780    2.2097 H         1 RES1    0.0000
     39 N4        -1.0176   -0.7379    3.4255 N.pl3     2 RES2    0.0000
     40 C14       -0.7000   -3.0812    4.0789 C.3       2 RES2    0.0000
     41 H22       -0.9610   -3.7448    4.7366 H         2 RES2    0.0000
     42 H23        0.2629   -2.9629    4.1043 H         2 RES2    0.0000
     43 H24       -0.9664   -3.3796    3.1959 H         2 RES2    0.0000
     44 C15       -1.3671   -1.7868    4.3881 C.3       2 RES2    0.0000
     45 H25       -2.3379   -1.9167    4.3827 H         2 RES2    0.0000
     46 H26       -1.1066   -1.4977    5.2869 H         2 RES2    0.0000
     47 N5        -1.5311   -0.7524    2.1715 N.2       2 RES2    0.0000
     48 N6         1.4130    2.7957    2.9686 N.pl3     2 RES2    1.0000
     49 O2         1.5569    2.5150    4.2222 O.2       2 RES2   -1.0000
     50 C16       -0.9575    0.2777    1.5729 C.2       2 RES2    0.0000
     51 H27       -1.1223    0.5187    0.6797 H         2 RES2    0.0000
     52 C17       -0.1472    0.2676    3.6151 C.2       2 RES2    0.0000
     53 H28        0.3228    0.4582    4.4064 H         2 RES2    0.0000
     54 C18       -0.0733    0.9738    2.4188 C.2       2 RES2    0.0000
     55 C19        0.6919    2.1476    2.0942 C.2       2 RES2    0.0000
     56 C20        0.7481    2.8394    0.7674 C.3       2 RES2    0.0000
     57 H29       -0.0851    3.3998    0.6474 H         2 RES2    0.0000
     58 H30        0.8324    2.2382    0.0173 H         2 RES2    0.0000
     59 C21        2.0078    3.7372    0.8886 C.3       2 RES2    0.0000
     60 C22        3.2329    2.9123    0.4724 C.3       2 RES2    0.0000
     61 H31        4.0302    3.4592    0.5459 H         2 RES2    0.0000
     62 H32        3.1271    2.6168   -0.4445 H         2 RES2    0.0000
     63 H33        3.3158    2.1396    1.0531 H         2 RES2    0.0000
     64 C23        1.9319    4.9796    0.0101 C.3       2 RES2    0.0000
     65 H34        2.7399    5.5047    0.1230 H         2 RES2    0.0000
     66 H35        1.1618    5.5114    0.2676 H         2 RES2    0.0000
     67 H36        1.8456    4.7138   -0.9193 H         2 RES2    0.0000
     68 C24        2.0205    4.0643    2.4074 C.3       2 RES2    0.0000
     69 C25        1.0535    5.1868    2.7962 C.3       2 RES2    0.0000
     70 H37        1.1059    5.3422    3.7526 H         2 RES2    0.0000
     71 H38        0.1488    4.9300    2.5593 H         2 RES2    0.0000
     72 H39        1.2936    5.9987    2.3241 H         2 RES2    0.0000
     73 C26        3.3824    4.3086    3.0206 C.3       2 RES2    0.0000
     74 H40        3.9835    3.5902    2.7686 H         2 RES2    0.0000
     75 H41        3.3015    4.3385    3.9878 H         2 RES2    0.0000
     76 H42        3.7347    5.1529    2.6995 H         2 RES2    0.0000
@<TRIPOS>BOND
     1    1    6 1
     2    2    3 1
     3    4    2 1
     4    5    2 1
     5    6    2 1
     6    7    6 1
     7    8    6 1
     8    9   10 1
     9   11    1 1
    10   12   13 1
    11   14    1 1
    12   15   14 1
    13   16    9 1
    14   17   12 2
    15   18   17 1
    16   19   18 1
    17   20   18 1
    18   21   18 1
    19   22   21 1
    20   23   22 1
    21   24   22 1
    22   25   22 1
    23   26   21 1
    24   27   26 1
    25   28   26 1
    26   29   26 1
    27   30   12 1
    28   31   30 1
    29   32   31 1
    30   33   31 1
    31   34   31 1
    32   35   30 1
    33   36   35 1
    34   37   35 1
    35   38   35 1
    36   39   44 1
    37   40   41 1
    38   42   40 1
    39   43   40 1
    40   44   40 1
    41   45   44 1
    42   46   44 1
    43   47   39 1
    44   48   49 1
    45   50   47 2
    46   51   50 1
    47   52   39 1
    48   53   52 1
    49   54   50 1
    50   55   48 2
    51   56   55 1
    52   57   56 1
    53   58   56 1
    54   59   56 1
    55   60   59 1
    56   61   60 1
    57   62   60 1
    58   63   60 1
    59   64   59 1
    60   65   64 1
    61   66   64 1
    62   67   64 1
    63   68   48 1
    64   69   68 1
    65   70   69 1
    66   71   69 1
    67   72   69 1
    68   73   68 1
    69   74   73 1
    70   75   73 1
    71   76   73 1
    72    9   11 2
    73   14   16 2
    74   16   17 1
    75   21   30 1
    76   52   54 2
    77   54   55 1
    78   59   68 1
@<TRIPOS>SUBSTRUCTURE
     1 RES1 1
     2 RES2 39

@<TRIPOS>CRYSIN
  11.2930   11.2020   21.9680  90.0000 100.7980  90.0000  14 1

