# MOL2 file generated by ConQuest
# Please check atom types

@<TRIPOS>MOLECULE
ZURMEG
    34    35     1
SMALL
USER_CHARGES
****
Generated from CSD

@<TRIPOS>ATOM
      1 O1         2.1899    3.4661    4.7780 O.2       1 RES1    0.0000
      2 C1         2.0438    4.4423    4.0279 C.2       1 RES1    0.0000
      3 C2         1.8114    4.3516    2.5216 C.3       1 RES1    0.0000
      4 C3         0.3483    3.8714    2.3895 C.3       1 RES1    0.0000
      5 H1         0.2485    3.0150    2.8311 H         1 RES1    0.0000
      6 H2         0.1219    3.7792    1.4513 H         1 RES1    0.0000
      7 H3        -0.2432    4.5196    2.8029 H         1 RES1    0.0000
      8 C4         2.7432    3.3109    1.9046 C.3       1 RES1    0.0000
      9 H4         2.5288    2.4337    2.2587 H         1 RES1    0.0000
     10 H5         3.6630    3.5309    2.1207 H         1 RES1    0.0000
     11 H6         2.6300    3.3064    0.9403 H         1 RES1    0.0000
     12 C5         2.0204    5.7981    2.0576 C.3       1 RES1    0.0000
     13 C6         3.4392    6.0821    1.5241 C.3       1 RES1    0.0000
     14 H7         3.5551    7.0366    1.4053 H         1 RES1    0.0000
     15 H8         3.5598    5.6331    0.6720 H         1 RES1    0.0000
     16 H9         4.0950    5.7520    2.1591 H         1 RES1    0.0000
     17 C7         1.0001    6.3556    1.0806 C.3       1 RES1    0.0000
     18 H10        0.1105    6.2664    1.4564 H         1 RES1    0.0000
     19 H11        1.0490    5.8635    0.2453 H         1 RES1    0.0000
     20 H12        1.1891    7.2923    0.9147 H         1 RES1    0.0000
     21 N1         1.9226    6.5560    3.3589 N.pl3     1 RES1    1.0000
     22 O2         1.8730    7.8355    3.3487 O.2       1 RES1   -1.0000
     23 C8         1.9889    5.7862    4.4500 C.2       1 RES1    0.0000
     24 C9         1.9822    6.2768    5.8108 C.2       1 RES1    0.0000
     25 C10        2.0291    5.5157    6.9897 C.2       1 RES1    0.0000
     26 H13        2.0840    4.5775    7.0061 H         1 RES1    0.0000
     27 N2         1.9876    6.2813    8.0900 N.2       1 RES1    0.0000
     28 N3         1.9119    7.5391    7.5938 N.pl3     1 RES1    0.0000
     29 C11        1.8409    8.6794    8.4990 C.3       1 RES1    0.0000
     30 H14        1.7879    9.4985    7.9821 H         1 RES1    0.0000
     31 H15        2.6340    8.6987    9.0578 H         1 RES1    0.0000
     32 H16        1.0531    8.5976    9.0578 H         1 RES1    0.0000
     33 C12        1.9005    7.5866    6.2528 C.2       1 RES1    0.0000
     34 H17        1.8469    8.3582    5.7183 H         1 RES1    0.0000
@<TRIPOS>BOND
     1    1    2 2
     2    2    3 1
     3    3    4 1
     4    4    5 1
     5    6    4 1
     6    7    4 1
     7    8    3 1
     8    9    8 1
     9   10    8 1
    10   11    8 1
    11   12    3 1
    12   13   12 1
    13   14   13 1
    14   15   13 1
    15   16   13 1
    16   17   12 1
    17   18   17 1
    18   19   17 1
    19   20   17 1
    20   21   12 1
    21   22   21 1
    22   23    2 1
    23   24   23 1
    24   25   24 1
    25   26   25 1
    26   27   25 2
    27   28   27 1
    28   29   28 1
    29   30   29 1
    30   31   29 1
    31   32   29 1
    32   33   24 2
    33   34   33 1
    34   21   23 2
    35   28   33 1
@<TRIPOS>SUBSTRUCTURE
     1 RES1 1

@<TRIPOS>CRYSIN
   6.6989   14.8670   25.5510  90.0000  90.0000  90.0000  61 1

