# MOL2 file generated by ConQuest
# Please check atom types

@<TRIPOS>MOLECULE
ZURYOC
   144   154     2
SMALL
NO_CHARGES
****
Generated from CSD

@<TRIPOS>ATOM
      1 C1         4.7477    1.3406    2.5614 C.2       1 RES1    0.0000
      2 C2         5.0031    2.6321    3.3312 C.3       1 RES1    0.0000
      3 H1         5.7768    3.1083    2.9167 H         1 RES1    0.0000
      4 C3         3.7254    3.4660    3.1170 C.3       1 RES1    0.0000
      5 H2         3.9776    4.3489    2.7208 H         1 RES1    0.0000
      6 C4         2.9090    2.6902    2.1049 C.2       1 RES1    0.0000
      7 C5         2.9231    3.7164    4.4467 C.3       1 RES1    0.0000
      8 H3         3.4109    4.4216    4.9645 H         1 RES1    0.0000
      9 C6         1.5472    4.2317    4.1807 C.2       1 RES1    0.0000
     10 C7         0.4115    3.5828    4.3422 C.2       1 RES1    0.0000
     11 C8         0.4288    2.2040    4.9839 C.3       1 RES1    0.0000
     12 H4         0.4864    1.5133    4.2765 H         1 RES1    0.0000
     13 H5        -0.4140    2.0631    5.4824 H         1 RES1    0.0000
     14 C9         1.6132    2.0545    5.9357 C.3       1 RES1    0.0000
     15 H6         1.4583    2.6130    6.7378 H         1 RES1    0.0000
     16 H7         1.6776    1.1134    6.2296 H         1 RES1    0.0000
     17 C10        2.9028    2.4608    5.2940 C.2       1 RES1    0.0000
     18 C11        4.0643    1.8341    5.4652 C.2       1 RES1    0.0000
     19 H8         4.1076    1.0452    5.9917 H         1 RES1    0.0000
     20 C12        5.3074    2.3794    4.8224 C.3       1 RES1    0.0000
     21 H9         5.4655    3.2765    5.2326 H         1 RES1    0.0000
     22 C13        2.9737    0.4349    1.0519 C.ar      1 RES1    0.0000
     23 C14        1.7230   -0.0827    1.3555 C.ar      1 RES1    0.0000
     24 H10        1.2551    0.2090    2.1275 H         1 RES1    0.0000
     25 C15        1.1705   -1.0302    0.5190 C.ar      1 RES1    0.0000
     26 H11        0.3117   -1.3906    0.7138 H         1 RES1    0.0000
     27 C16        1.8591   -1.4633   -0.6019 C.ar      1 RES1    0.0000
     28 H12        1.4694   -2.1086   -1.1790 H         1 RES1    0.0000
     29 C17        3.1028   -0.9566   -0.8796 C.ar      1 RES1    0.0000
     30 H13        3.5745   -1.2679   -1.6430 H         1 RES1    0.0000
     31 C18        3.6849    0.0036   -0.0635 C.ar      1 RES1    0.0000
     32 H14        4.5447    0.3545   -0.2606 H         1 RES1    0.0000
     33 C19        1.5665    6.5970    4.3573 C.2       1 RES1    0.0000
     34 C20        1.1576    7.8417    3.6359 C.ar      1 RES1    0.0000
     35 C21        0.6962    7.8231    2.3256 C.ar      1 RES1    0.0000
     36 H15        0.7165    7.0119    1.8303 H         1 RES1    0.0000
     37 C22        0.2063    8.9742    1.7356 C.ar      1 RES1    0.0000
     38 H16       -0.1009    8.9705    0.8366 H         1 RES1    0.0000
     39 C23        0.1803   10.1189    2.4925 C.ar      1 RES1    0.0000
     40 C24        0.6586   10.1925    3.7802 C.ar      1 RES1    0.0000
     41 H17        0.6480   11.0109    4.2604 H         1 RES1    0.0000
     42 C25        1.1571    9.0346    4.3551 C.ar      1 RES1    0.0000
     43 H18        1.4966    9.0523    5.2423 H         1 RES1    0.0000
     44 C26       -0.9036    4.0954    3.8631 C.ar      1 RES1    0.0000
     45 C27       -1.0541    4.5248    2.5453 C.ar      1 RES1    0.0000
     46 H19       -0.3063    4.5171    1.9606 H         1 RES1    0.0000
     47 C28       -2.2808    4.9597    2.0844 C.ar      1 RES1    0.0000
     48 H20       -2.3731    5.2487    1.1843 H         1 RES1    0.0000
     49 C29       -3.3737    4.9761    2.9264 C.ar      1 RES1    0.0000
     50 H21       -4.2151    5.2805    2.6088 H         1 RES1    0.0000
     51 C30       -3.2401    4.5480    4.2249 C.ar      1 RES1    0.0000
     52 H22       -3.9945    4.5580    4.8020 H         1 RES1    0.0000
     53 C31       -2.0241    4.1004    4.7029 C.ar      1 RES1    0.0000
     54 H23       -1.9486    3.7945    5.5998 H         1 RES1    0.0000
     55 C32        6.5509    1.5478    5.1196 C.3       1 RES1    0.0000
     56 H24        6.3642    0.5953    4.9247 H         1 RES1    0.0000
     57 H25        7.2905    1.8405    4.5306 H         1 RES1    0.0000
     58 C33        6.9762    1.6900    6.5677 C.3       1 RES1    0.0000
     59 H26        6.2019    1.4769    7.1480 H         1 RES1    0.0000
     60 H27        7.2250    2.6357    6.7346 H         1 RES1    0.0000
     61 C34        8.1405    0.8016    6.9671 C.3       1 RES1    0.0000
     62 H28        7.9000   -0.1363    6.8207 H         1 RES1    0.0000
     63 H29        8.3492    0.9407    7.9146 H         1 RES1    0.0000
     64 H30        8.9242    1.0270    6.4234 H         1 RES1    0.0000
     65 N1         3.5210    1.4524    1.9036 N.am      1 RES1    0.0000
     66 N2        -0.4244   11.3277    1.8982 N.pl3     1 RES1    0.0000
     67 O1         5.4634    0.3745    2.4982 O.2       1 RES1    0.0000
     68 O2         1.8910    3.0424    1.5535 O.2       1 RES1    0.0000
     69 O3         1.5069    5.5100    3.5433 O.3       1 RES1    0.0000
     70 O4         1.8749    6.5438    5.5163 O.2       1 RES1    0.0000
     71 O5        -0.6442   12.2920    2.6228 O.2       1 RES1    0.0000
     72 O6        -0.6961   11.3031    0.7095 O.2       1 RES1    0.0000
     73 C35        3.6178    7.9740    9.4586 C.2       2 RES2    0.0000
     74 C36        3.2214    7.0769    8.3087 C.3       2 RES2    0.0000
     75 H31        3.0322    7.6527    7.5141 H         2 RES2    0.0000
     76 C37        1.9038    6.4025    8.7383 C.3       2 RES2    0.0000
     77 H32        1.1810    6.6984    8.1138 H         2 RES2    0.0000
     78 C38        1.6119    6.9715   10.1046 C.2       2 RES2    0.0000
     79 C39        1.9792    4.8488    8.6995 C.3       2 RES2    0.0000
     80 H33        2.0443    4.5989    7.7337 H         2 RES2    0.0000
     81 C40        3.2736    4.4071    9.3294 C.2       2 RES2    0.0000
     82 H34        3.2710    3.7264    9.9926 H         2 RES2    0.0000
     83 C41        4.4169    4.9656    8.9579 C.2       2 RES2    0.0000
     84 C42        5.7858    4.5921    9.4489 C.3       2 RES2    0.0000
     85 H35        6.2041    3.9672    8.8072 H         2 RES2    0.0000
     86 H36        5.7051    4.1308   10.3210 H         2 RES2    0.0000
     87 C43        6.6746    5.8163    9.6104 C.3       2 RES2    0.0000
     88 H37        6.3177    6.3893   10.3339 H         2 RES2    0.0000
     89 H38        7.5865    5.5305    9.8688 H         2 RES2    0.0000
     90 C44        6.7484    6.6175    8.3281 C.2       2 RES2    0.0000
     91 C45        5.6366    6.6861    7.6024 C.2       2 RES2    0.0000
     92 C46        4.3225    6.0458    7.9114 C.3       2 RES2    0.0000
     93 H39        4.0123    5.6032    7.0694 H         2 RES2    0.0000
     94 C47        2.5023    8.8069   11.5301 C.ar      2 RES2    0.0000
     95 C48        1.8909   10.0366   11.3223 C.ar      2 RES2    0.0000
     96 H40        1.5532   10.2657   10.4642 H         2 RES2    0.0000
     97 C49        1.7756   10.9205   12.3688 C.ar      2 RES2    0.0000
     98 H41        1.3623   11.7653   12.2310 H         2 RES2    0.0000
     99 C50        2.2573   10.5856   13.6242 C.ar      2 RES2    0.0000
    100 H42        2.1686   11.1973   14.3456 H         2 RES2    0.0000
    101 C51        2.8666    9.3682   13.8245 C.ar      2 RES2    0.0000
    102 H43        3.2027    9.1432   14.6837 H         2 RES2    0.0000
    103 C52        2.9886    8.4684   12.7693 C.ar      2 RES2    0.0000
    104 H44        3.4058    7.6254   12.9061 H         2 RES2    0.0000
    105 C53        5.3228    7.0719    5.2778 C.2       2 RES2    0.0000
    106 C54        4.9120    8.1066    4.3078 C.ar      2 RES2    0.0000
    107 C55        4.6580    9.4159    4.7008 C.ar      2 RES2    0.0000
    108 H45        4.7940    9.6704    5.6052 H         2 RES2    0.0000
    109 C56        4.2062   10.3502    3.7834 C.ar      2 RES2    0.0000
    110 H46        4.0359   11.2472    4.0397 H         2 RES2    0.0000
    111 C57        4.0127    9.9262    2.4807 C.ar      2 RES2    0.0000
    112 C58        4.2884    8.6506    2.0532 C.ar      2 RES2    0.0000
    113 H47        4.1739    8.4070    1.1423 H         2 RES2    0.0000
    114 C59        4.7331    7.7395    2.9802 C.ar      2 RES2    0.0000
    115 H48        4.9207    6.8483    2.7100 H         2 RES2    0.0000
    116 C60        8.0272    7.2646    7.9792 C.ar      2 RES2    0.0000
    117 C61        8.7667    7.9394    8.9568 C.ar      2 RES2    0.0000
    118 H49        8.4158    8.0253    9.8354 H         2 RES2    0.0000
    119 C62       10.0040    8.4829    8.6597 C.ar      2 RES2    0.0000
    120 H50       10.4935    8.9433    9.3315 H         2 RES2    0.0000
    121 C63       10.5265    8.3575    7.3903 C.ar      2 RES2    0.0000
    122 H51       11.3776    8.7251    7.1900 H         2 RES2    0.0000
    123 C64        9.8128    7.6977    6.4116 C.ar      2 RES2    0.0000
    124 H52       10.1754    7.6118    5.5373 H         2 RES2    0.0000
    125 C65        8.5747    7.1646    6.7012 C.ar      2 RES2    0.0000
    126 H53        8.0864    6.7211    6.0175 H         2 RES2    0.0000
    127 C66        0.7567    4.1204    9.2378 C.3       2 RES2    0.0000
    128 H54        0.6611    4.3308   10.2004 H         2 RES2    0.0000
    129 H55        0.9078    3.1447    9.1549 H         2 RES2    0.0000
    130 C67       -0.5424    4.4748    8.5294 C.3       2 RES2    0.0000
    131 H56       -0.7863    5.4078    8.7490 H         2 RES2    0.0000
    132 H57       -0.4044    4.4171    7.5507 H         2 RES2    0.0000
    133 C68       -1.6804    3.5650    8.9202 C.3       2 RES2    0.0000
    134 H58       -1.4422    2.6357    8.7146 H         2 RES2    0.0000
    135 H59       -2.4845    3.8127    8.4185 H         2 RES2    0.0000
    136 H60       -1.8540    3.6536    9.8806 H         2 RES2    0.0000
    137 N3         2.5992    7.8994   10.4190 N.am      2 RES2    0.0000
    138 N4         3.5111   10.9001    1.5020 N.pl3     2 RES2    0.0000
    139 O7         4.5956    8.6574    9.5815 O.2       2 RES2    0.0000
    140 O8         0.6758    6.7188   10.8356 O.2       2 RES2    0.0000
    141 O9         5.5610    7.5931    6.5054 O.3       2 RES2    0.0000
    142 O10        5.4268    5.8908    5.0169 O.2       2 RES2    0.0000
    143 O11        3.3398   12.0393    1.8713 O.2       2 RES2    0.0000
    144 O12        3.2586   10.5292    0.3833 O.2       2 RES2    0.0000
@<TRIPOS>BOND
     1    1    2 1
     2    2    3 1
     3    4    2 1
     4    5    4 1
     5    6    4 1
     6    7    4 1
     7    8    7 1
     8    9    7 1
     9   10    9 2
    10   11   10 1
    11   12   11 1
    12   13   11 1
    13   14   11 1
    14   15   14 1
    15   16   14 1
    16   17    7 1
    17   18   17 2
    18   19   18 1
    19   20    2 1
    20   21   20 1
    21   22   23 ar
    22   23   24 1
    23   25   23 ar
    24   26   25 1
    25   27   25 ar
    26   28   27 1
    27   29   27 ar
    28   30   29 1
    29   31   22 ar
    30   32   31 1
    31   33   34 1
    32   34   35 ar
    33   35   36 1
    34   37   35 ar
    35   38   37 1
    36   39   37 ar
    37   40   39 ar
    38   41   40 1
    39   42   34 ar
    40   43   42 1
    41   44   10 1
    42   45   44 ar
    43   46   45 1
    44   47   45 ar
    45   48   47 1
    46   49   47 ar
    47   50   49 1
    48   51   49 ar
    49   52   51 1
    50   53   44 ar
    51   54   53 1
    52   55   20 1
    53   56   55 1
    54   57   55 1
    55   58   55 1
    56   59   58 1
    57   60   58 1
    58   61   58 1
    59   62   61 1
    60   63   61 1
    61   64   61 1
    62   65    1 1
    63   66   39 1
    64   67    1 2
    65   68    6 2
    66   69    9 1
    67   70   33 2
    68   71   66 2
    69   72   66 2
    70   73   74 1
    71   74   75 1
    72   76   74 1
    73   77   76 1
    74   78   76 1
    75   79   76 1
    76   80   79 1
    77   81   79 1
    78   82   81 1
    79   83   81 2
    80   84   83 1
    81   85   84 1
    82   86   84 1
    83   87   84 1
    84   88   87 1
    85   89   87 1
    86   90   87 1
    87   91   90 2
    88   92   74 1
    89   93   92 1
    90   94   95 ar
    91   95   96 1
    92   97   95 ar
    93   98   97 1
    94   99   97 ar
    95  100   99 1
    96  101   99 ar
    97  102  101 1
    98  103   94 ar
    99  104  103 1
   100  105  106 1
   101  106  107 ar
   102  107  108 1
   103  109  107 ar
   104  110  109 1
   105  111  109 ar
   106  112  111 ar
   107  113  112 1
   108  114  106 ar
   109  115  114 1
   110  116   90 1
   111  117  116 ar
   112  118  117 1
   113  119  117 ar
   114  120  119 1
   115  121  119 ar
   116  122  121 1
   117  123  121 ar
   118  124  123 1
   119  125  116 ar
   120  126  125 1
   121  127   79 1
   122  128  127 1
   123  129  127 1
   124  130  127 1
   125  131  130 1
   126  132  130 1
   127  133  130 1
   128  134  133 1
   129  135  133 1
   130  136  133 1
   131  137   73 1
   132  138  111 1
   133  139   73 2
   134  140   78 2
   135  141   91 1
   136  142  105 2
   137  143  138 2
   138  144  138 2
   139    6   65 1
   140   14   17 1
   141   18   20 1
   142   22   65 1
   143   29   31 ar
   144   33   69 1
   145   40   42 ar
   146   51   53 ar
   147   78  137 1
   148   83   92 1
   149   91   92 1
   150   94  137 1
   151  101  103 ar
   152  105  141 1
   153  112  114 ar
   154  123  125 ar
@<TRIPOS>SUBSTRUCTURE
     1 RES1 1
     2 RES2 73

@<TRIPOS>CRYSIN
  11.4637   45.4434   12.0124  90.0000 116.3240  90.0000 231 1

