# MOL2 file generated by ConQuest
# Please check atom types

@<TRIPOS>MOLECULE
ZUTFEB
    55    56     1
SMALL
NO_CHARGES
****
Generated from CSD

@<TRIPOS>ATOM
      1 C1         1.6247    5.2052    3.0147 C.3       1 RES1    0.0000
      2 H1         1.3070    4.3348    3.3344 H         1 RES1    0.0000
      3 C2         2.6768    5.7162    3.9754 C.3       1 RES1    0.0000
      4 H2         3.0157    6.5609    3.6395 H         1 RES1    0.0000
      5 H3         3.4159    5.0888    3.9841 H         1 RES1    0.0000
      6 C3         2.1992    5.9220    5.4122 C.3       1 RES1    0.0000
      7 C4        -0.1679    6.3981    4.4074 C.3       1 RES1    0.0000
      8 C5         0.4664    6.1751    3.0301 C.3       1 RES1    0.0000
      9 H4        -0.2169    5.8498    2.4240 H         1 RES1    0.0000
     10 H5         0.7752    7.0302    2.6907 H         1 RES1    0.0000
     11 C6         3.1261    4.0790    1.3858 C.3       1 RES1    0.0000
     12 H6         3.0520    3.3809    2.0693 H         1 RES1    0.0000
     13 C7         2.9766    3.4083   -0.0022 C.3       1 RES1    0.0000
     14 C8         5.3989    3.5456    0.6150 C.3       1 RES1    0.0000
     15 C9         4.5809    4.5913    1.3823 C.3       1 RES1    0.0000
     16 H7         4.6354    5.4548    0.9437 H         1 RES1    0.0000
     17 H8         4.9110    4.6822    2.2896 H         1 RES1    0.0000
     18 C10        2.0138    4.5799    6.1352 C.3       1 RES1    0.0000
     19 H9         1.7200    4.7403    7.0355 H         1 RES1    0.0000
     20 H10        2.8482    4.1071    6.1504 H         1 RES1    0.0000
     21 H11        1.3565    4.0559    5.6725 H         1 RES1    0.0000
     22 C11        3.1999    6.7619    6.1908 C.3       1 RES1    0.0000
     23 H12        2.8840    6.8862    7.0891 H         1 RES1    0.0000
     24 H13        3.2999    7.6170    5.7654 H         1 RES1    0.0000
     25 H14        4.0485    6.3134    6.2100 H         1 RES1    0.0000
     26 C12       -1.0679    7.6239    4.3620 C.3       1 RES1    0.0000
     27 H15       -1.4632    7.7633    5.2249 H         1 RES1    0.0000
     28 H16       -1.7597    7.4892    3.7102 H         1 RES1    0.0000
     29 H17       -0.5477    8.3942    4.1205 H         1 RES1    0.0000
     30 C13       -1.0037    5.1969    4.8586 C.3       1 RES1    0.0000
     31 H18       -1.3780    5.3746    5.7240 H         1 RES1    0.0000
     32 H19       -0.4441    4.4184    4.9056 H         1 RES1    0.0000
     33 H20       -1.7118    5.0447    4.2286 H         1 RES1    0.0000
     34 C14        2.0243    2.2350    0.0424 C.3       1 RES1    0.0000
     35 H21        1.9478    1.8508   -0.8336 H         1 RES1    0.0000
     36 H22        1.1607    2.5351    0.3365 H         1 RES1    0.0000
     37 H23        2.3588    1.5743    0.6537 H         1 RES1    0.0000
     38 C15        2.6123    4.3829   -1.1078 C.3       1 RES1    0.0000
     39 H24        2.5307    3.9084   -1.9380 H         1 RES1    0.0000
     40 H25        3.2990    5.0493   -1.1862 H         1 RES1    0.0000
     41 H26        1.7773    4.8077   -0.8983 H         1 RES1    0.0000
     42 C16        6.0047    2.4793    1.5105 C.3       1 RES1    0.0000
     43 H27        6.5033    1.8578    0.9751 H         1 RES1    0.0000
     44 H28        5.3047    2.0135    1.9733 H         1 RES1    0.0000
     45 H29        6.5903    2.8930    2.1492 H         1 RES1    0.0000
     46 C17        6.4687    4.1676   -0.2698 C.3       1 RES1    0.0000
     47 H30        6.9504    3.4739   -0.7245 H         1 RES1    0.0000
     48 H31        7.0759    4.6764    0.2718 H         1 RES1    0.0000
     49 H32        6.0540    4.7449   -0.9144 H         1 RES1    0.0000
     50 N1         2.0756    5.0566    1.6271 N.3       1 RES1    0.0000
     51 H33        2.3331    5.8579    1.3307 H         1 RES1    0.0000
     52 N2         0.9101    6.6402    5.4112 N.3       1 RES1    0.0000
     53 N3         4.3554    2.9299   -0.2329 N.3       1 RES1    0.0000
     54 O1         0.5374    7.1382    6.5265 O.2       1 RES1    0.0000
     55 O2         4.6412    2.1172   -1.1660 O.2       1 RES1    0.0000
@<TRIPOS>BOND
     1    1    2 1
     2    3    1 1
     3    4    3 1
     4    5    3 1
     5    6    3 1
     6    7    8 1
     7    8    1 1
     8    9    8 1
     9   10    8 1
    10   11   12 1
    11   13   11 1
    12   14   15 1
    13   15   11 1
    14   16   15 1
    15   17   15 1
    16   18    6 1
    17   19   18 1
    18   20   18 1
    19   21   18 1
    20   22    6 1
    21   23   22 1
    22   24   22 1
    23   25   22 1
    24   26    7 1
    25   27   26 1
    26   28   26 1
    27   29   26 1
    28   30    7 1
    29   31   30 1
    30   32   30 1
    31   33   30 1
    32   34   13 1
    33   35   34 1
    34   36   34 1
    35   37   34 1
    36   38   13 1
    37   39   38 1
    38   40   38 1
    39   41   38 1
    40   42   14 1
    41   43   42 1
    42   44   42 1
    43   45   42 1
    44   46   14 1
    45   47   46 1
    46   48   46 1
    47   49   46 1
    48   50    1 1
    49   51   50 1
    50   52    6 1
    51   53   13 1
    52   54   52 1
    53   55   53 1
    54    7   52 1
    55   11   50 1
    56   14   53 1
@<TRIPOS>SUBSTRUCTURE
     1 RES1 1

@<TRIPOS>CRYSIN
   7.8821   11.6183   10.8273  90.0000 111.0590  90.0000   4 1

