# MOL2 file generated by ConQuest
# Please check atom types

@<TRIPOS>MOLECULE
ZUXKEK
    60    64     2
SMALL
NO_CHARGES
****
Generated from CSD

@<TRIPOS>ATOM
      1 O1         4.2812    6.9649    9.3616 O.3       1 RES1    0.0000
      2 O2         0.5392    6.5857   15.0317 O.2       1 RES1    0.0000
      3 O3        -0.9052    5.3009   14.0772 O.2       1 RES1    0.0000
      4 N1         0.1158    5.9685   14.0612 N.pl3     1 RES1    0.0000
      5 C1         3.1639    6.1688    9.2364 C.2       1 RES1    0.0000
      6 C2         2.8833    5.5509    8.0790 C.2       1 RES1    0.0000
      7 H1         2.1330    4.9708    8.0296 H         1 RES1    0.0000
      8 C3         3.7078    5.7556    6.9007 C.ar      1 RES1    0.0000
      9 C4         3.3097    5.4315    5.6037 C.ar      1 RES1    0.0000
     10 H2         2.4525    5.0509    5.4550 H         1 RES1    0.0000
     11 C5         4.1491    5.6585    4.5339 C.ar      1 RES1    0.0000
     12 H3         3.8887    5.3892    3.6619 H         1 RES1    0.0000
     13 C6         5.3772    6.2816    4.7294 C.ar      1 RES1    0.0000
     14 H4         5.9446    6.4566    3.9887 H         1 RES1    0.0000
     15 C7         5.7736    6.6495    6.0112 C.ar      1 RES1    0.0000
     16 H5         6.6032    7.0938    6.1424 H         1 RES1    0.0000
     17 C8         4.9595    6.3661    7.0933 C.ar      1 RES1    0.0000
     18 C9         5.3856    6.5850    8.5113 C.3       1 RES1    0.0000
     19 H6         5.7925    5.7534    8.8608 H         1 RES1    0.0000
     20 H7         6.0747    7.2956    8.5367 H         1 RES1    0.0000
     21 C10        2.3447    6.1517   10.4638 C.ar      1 RES1    0.0000
     22 C11        2.7955    6.8008   11.6150 C.ar      1 RES1    0.0000
     23 H8         3.6126    7.2845   11.5922 H         1 RES1    0.0000
     24 C12        2.0620    6.7467   12.7912 C.ar      1 RES1    0.0000
     25 H9         2.3729    7.1843   13.5761 H         1 RES1    0.0000
     26 C13        0.8753    6.0479   12.8040 C.ar      1 RES1    0.0000
     27 C14        0.3885    5.4196   11.6782 C.ar      1 RES1    0.0000
     28 H10       -0.4401    4.9545   11.7046 H         1 RES1    0.0000
     29 C15        1.1232    5.4760   10.5080 C.ar      1 RES1    0.0000
     30 H11        0.7933    5.0502    9.7260 H         1 RES1    0.0000
     31 N2         3.0232    2.5978   14.5239 N.pl3     2 RES2    0.0000
     32 O4         7.2924    1.6545    9.9497 O.3       2 RES2    0.0000
     33 O5         3.4077    1.9509   15.4737 O.2       2 RES2    0.0000
     34 O6         2.0226    3.2988   14.5474 O.2       2 RES2    0.0000
     35 C16        6.1433    2.3856    9.7720 C.2       2 RES2    0.0000
     36 C17        5.8230    2.9093    8.5814 C.2       2 RES2    0.0000
     37 H12        5.0493    3.4546    8.5027 H         2 RES2    0.0000
     38 C18        6.6430    2.6564    7.4107 C.ar      2 RES2    0.0000
     39 C19        6.2194    2.9309    6.1090 C.ar      2 RES2    0.0000
     40 H13        5.3716    3.3322    5.9569 H         2 RES2    0.0000
     41 C20        7.0449    2.6141    5.0355 C.ar      2 RES2    0.0000
     42 H14        6.7718    2.8285    4.1507 H         2 RES2    0.0000
     43 C21        8.2654    1.9880    5.2480 C.ar      2 RES2    0.0000
     44 H15        8.8097    1.7425    4.5088 H         2 RES2    0.0000
     45 C22        8.6887    1.7210    6.5374 C.ar      2 RES2    0.0000
     46 H16        9.5272    1.2974    6.6809 H         2 RES2    0.0000
     47 C23        7.9005    2.0667    7.6135 C.ar      2 RES2    0.0000
     48 C24        8.3676    1.9383    9.0370 C.3       2 RES2    0.0000
     49 H17        9.0393    1.2128    9.0934 H         2 RES2    0.0000
     50 H18        8.8091    2.7818    9.3104 H         2 RES2    0.0000
     51 C25        5.3213    2.4324   10.9931 C.ar      2 RES2    0.0000
     52 C26        5.8086    1.8871   12.1835 C.ar      2 RES2    0.0000
     53 H19        6.6679    1.4836   12.1960 H         2 RES2    0.0000
     54 C27        5.0566    1.9279   13.3401 C.ar      2 RES2    0.0000
     55 H20        5.3856    1.5496   14.1459 H         2 RES2    0.0000
     56 C28        3.8185    2.5281   13.2990 C.ar      2 RES2    0.0000
     57 C29        3.2954    3.0733   12.1422 C.ar      2 RES2    0.0000
     58 H21        2.4361    3.4783   12.1411 H         2 RES2    0.0000
     59 C30        4.0534    3.0147   10.9882 C.ar      2 RES2    0.0000
     60 H22        3.7066    3.3752   10.1808 H         2 RES2    0.0000
@<TRIPOS>BOND
     1    1    5 1
     2    2    4 2
     3    3    4 2
     4    4   26 1
     5    5    6 2
     6    6    7 1
     7    8    6 1
     8    9    8 ar
     9   10    9 1
    10   11    9 ar
    11   12   11 1
    12   13   11 ar
    13   14   13 1
    14   15   13 ar
    15   16   15 1
    16   17    8 ar
    17   18    1 1
    18   19   18 1
    19   20   18 1
    20   21    5 1
    21   22   21 ar
    22   23   22 1
    23   24   22 ar
    24   25   24 1
    25   26   24 ar
    26   27   26 ar
    27   28   27 1
    28   29   21 ar
    29   30   29 1
    30   31   33 2
    31   32   35 1
    32   34   31 2
    33   35   36 2
    34   36   37 1
    35   38   36 1
    36   39   38 ar
    37   40   39 1
    38   41   39 ar
    39   42   41 1
    40   43   41 ar
    41   44   43 1
    42   45   43 ar
    43   46   45 1
    44   47   38 ar
    45   48   32 1
    46   49   48 1
    47   50   48 1
    48   51   35 1
    49   52   51 ar
    50   53   52 1
    51   54   52 ar
    52   55   54 1
    53   56   31 1
    54   57   56 ar
    55   58   57 1
    56   59   51 ar
    57   60   59 1
    58   15   17 ar
    59   17   18 1
    60   27   29 ar
    61   45   47 ar
    62   47   48 1
    63   54   56 ar
    64   57   59 ar
@<TRIPOS>SUBSTRUCTURE
     1 RES1 1
     2 RES2 31

@<TRIPOS>CRYSIN
  12.1340    7.4180   26.1516  90.0000  91.8450  90.0000 231 1

