# MOL2 file generated by ConQuest
# Please check atom types

@<TRIPOS>MOLECULE
ZUXRAN
    32    34     1
SMALL
NO_CHARGES
****
Generated from CSD

@<TRIPOS>ATOM
      1 O1         8.8712   10.2179    8.5983 O.2       1 RES1    0.0000
      2 O2         7.9198    8.4175    9.1389 O.2       1 RES1    0.0000
      3 N1         8.3077    6.3075    7.0765 N.pl3     1 RES1    0.0000
      4 N2         7.3195    5.3648    7.0231 N.2       1 RES1    0.0000
      5 N3         9.4253    4.1727   10.9739 N.1       1 RES1    0.0000
      6 N4         8.8964    9.0522    8.8644 N.pl3     1 RES1    0.0000
      7 C1         7.5165    4.6126    8.0937 C.2       1 RES1    0.0000
      8 H1         6.9904    3.8799    8.3217 H         1 RES1    0.0000
      9 C2         8.6161    5.0559    8.8401 C.2       1 RES1    0.0000
     10 C3         9.1004    6.1632    8.1602 C.2       1 RES1    0.0000
     11 C4         9.1475    4.4826   10.1482 C.1       1 RES1    0.0000
     12 C5        10.2579    7.0128    8.4885 C.ar      1 RES1    0.0000
     13 C6        10.1917    8.3711    8.7852 C.ar      1 RES1    0.0000
     14 C7        11.3086    9.1356    9.0407 C.ar      1 RES1    0.0000
     15 H2        11.2262   10.0432    9.2265 H         1 RES1    0.0000
     16 C8        12.5525    8.5345    9.0154 C.ar      1 RES1    0.0000
     17 H3        13.3181    9.0385    9.1769 H         1 RES1    0.0000
     18 C9        12.6534    7.1985    8.7525 C.ar      1 RES1    0.0000
     19 H4        13.4912    6.7932    8.7525 H         1 RES1    0.0000
     20 C10       11.5251    6.4362    8.4864 C.ar      1 RES1    0.0000
     21 H5        11.6163    5.5289    8.3038 H         1 RES1    0.0000
     22 C11        8.3012    7.3524    6.0940 C.ar      1 RES1    0.0000
     23 C12        7.0760    7.8297    5.6590 C.ar      1 RES1    0.0000
     24 H6         6.2845    7.4617    5.9800 H         1 RES1    0.0000
     25 C13        7.0481    8.8544    4.7426 C.ar      1 RES1    0.0000
     26 H7         6.2313    9.1865    4.4480 H         1 RES1    0.0000
     27 C14        8.2131    9.3949    4.2612 C.ar      1 RES1    0.0000
     28 H8         8.1835   10.0973    3.6520 H         1 RES1    0.0000
     29 C15        9.4377    8.8925    4.6835 C.ar      1 RES1    0.0000
     30 H9        10.2266    9.2539    4.3488 H         1 RES1    0.0000
     31 C16        9.4881    7.8576    5.5978 C.ar      1 RES1    0.0000
     32 H10       10.3039    7.5085    5.8734 H         1 RES1    0.0000
@<TRIPOS>BOND
     1    1    6 2
     2    2    6 2
     3    3    4 1
     4    4    7 2
     5    5   11 3
     6    6   13 1
     7    7    8 1
     8    9    7 1
     9   10    3 1
    10   11    9 1
    11   12   10 1
    12   13   12 ar
    13   14   13 ar
    14   15   14 1
    15   16   14 ar
    16   17   16 1
    17   18   16 ar
    18   19   18 1
    19   20   12 ar
    20   21   20 1
    21   22    3 1
    22   23   22 ar
    23   24   23 1
    24   25   23 ar
    25   26   25 1
    26   27   25 ar
    27   28   27 1
    28   29   27 ar
    29   30   29 1
    30   31   22 ar
    31   32   31 1
    32    9   10 2
    33   18   20 ar
    34   29   31 ar
@<TRIPOS>SUBSTRUCTURE
     1 RES1 1

@<TRIPOS>CRYSIN
   7.9251    8.5930   11.6468  69.9620  74.2210  85.6530   2 1

