# MOL2 file generated by ConQuest
# Please check atom types

@<TRIPOS>MOLECULE
ZUXSOC
    51    54     1
SMALL
NO_CHARGES
****
Generated from CSD

@<TRIPOS>ATOM
      1 C1         7.3542    5.1364    3.5008 C.3       1 RES1    0.0000
      2 H1         6.7061    4.6031    4.0086 H         1 RES1    0.0000
      3 C2         7.7373    6.3048    4.3793 C.3       1 RES1    0.0000
      4 H2         6.9175    6.6965    4.7444 H         1 RES1    0.0000
      5 C3         8.5710    7.4250    3.7612 C.3       1 RES1    0.0000
      6 H3         8.1901    7.6171    2.8908 H         1 RES1    0.0000
      7 H4         8.4347    8.2158    4.3064 H         1 RES1    0.0000
      8 C4        10.0302    7.2716    3.5737 C.2       1 RES1    0.0000
      9 H5        10.4219    7.9540    3.0765 H         1 RES1    0.0000
     10 C5        10.8650    6.3617    3.9735 C.2       1 RES1    0.0000
     11 H6        11.7427    6.5173    3.7072 H         1 RES1    0.0000
     12 C6        10.6933    5.1192    4.7735 C.3       1 RES1    0.0000
     13 H7        11.0066    5.2866    5.6765 H         1 RES1    0.0000
     14 H8        11.2556    4.4260    4.3940 H         1 RES1    0.0000
     15 C7         9.2469    4.5966    4.8432 C.3       1 RES1    0.0000
     16 H9         9.2051    3.7855    5.3927 H         1 RES1    0.0000
     17 C8         8.6396    4.3338    3.4595 C.3       1 RES1    0.0000
     18 H10        9.2244    4.7769    2.8102 H         1 RES1    0.0000
     19 C9         8.3810    2.9518    2.9297 C.2       1 RES1    0.0000
     20 C10        7.3832    2.7908    2.0835 C.2       1 RES1    0.0000
     21 H11        7.2684    1.9399    1.7275 H         1 RES1    0.0000
     22 C11        6.4057    3.8584    1.6343 C.3       1 RES1    0.0000
     23 H12        5.5248    3.6428    1.9798 H         1 RES1    0.0000
     24 H13        6.3531    3.8488    0.6658 H         1 RES1    0.0000
     25 C12        6.7930    5.2876    2.1017 C.3       1 RES1    0.0000
     26 H14        7.4958    5.6342    1.5137 H         1 RES1    0.0000
     27 C13        9.3178    1.8337    3.3176 C.3       1 RES1    0.0000
     28 H15        9.9691    2.1631    3.9420 H         1 RES1    0.0000
     29 H16        8.8156    1.1234    3.7248 H         1 RES1    0.0000
     30 H17        9.7630    1.5032    2.5334 H         1 RES1    0.0000
     31 C14        5.6213    6.2008    2.0411 C.2       1 RES1    0.0000
     32 H18        4.8348    5.9647    2.4773 H         1 RES1    0.0000
     33 C15        4.4282    9.1901    0.7064 C.ar      1 RES1    0.0000
     34 C16        3.2179    9.8821    0.4772 C.ar      1 RES1    0.0000
     35 C17        3.1792   11.0646   -0.2306 C.ar      1 RES1    0.0000
     36 H19        2.3681   11.4916   -0.3854 H         1 RES1    0.0000
     37 C18        4.3456   11.6032   -0.7001 C.ar      1 RES1    0.0000
     38 C19        5.5677   10.9841   -0.4860 C.ar      1 RES1    0.0000
     39 H20        6.3510   11.3661   -0.8094 H         1 RES1    0.0000
     40 C20        5.6074    9.7942    0.2116 C.ar      1 RES1    0.0000
     41 H21        6.4272    9.3800    0.3574 H         1 RES1    0.0000
     42 N1         5.6782    7.3027    1.3988 N.2       1 RES1    0.0000
     43 N2         4.4915    8.0270    1.3806 N.pl3     1 RES1    0.0000
     44 N3         1.9485    9.3886    0.9766 N.pl3     1 RES1    0.0000
     45 N4         4.2887   12.8500   -1.4486 N.pl3     1 RES1    0.0000
     46 O1         8.4379    5.6546    5.4417 O.3       1 RES1    0.0000
     47 O2         1.8981    8.2737    1.5064 O.2       1 RES1    0.0000
     48 O3         0.9635   10.1064    0.8778 O.2       1 RES1    0.0000
     49 O4         3.1996   13.3532   -1.6658 O.2       1 RES1    0.0000
     50 O5         5.3456   13.3178   -1.8498 O.2       1 RES1    0.0000
     51 H22        3.7232    7.6825    1.6784 H         1 RES1    0.0000
@<TRIPOS>BOND
     1    1    2 1
     2    3    1 1
     3    4    3 1
     4    5    3 1
     5    6    5 1
     6    7    5 1
     7    8    5 1
     8    9    8 1
     9   10    8 2
    10   11   10 1
    11   12   10 1
    12   13   12 1
    13   14   12 1
    14   15   12 1
    15   16   15 1
    16   17    1 1
    17   18   17 1
    18   19   17 1
    19   20   19 2
    20   21   20 1
    21   22   20 1
    22   23   22 1
    23   24   22 1
    24   25    1 1
    25   26   25 1
    26   27   19 1
    27   28   27 1
    28   29   27 1
    29   30   27 1
    30   31   25 1
    31   32   31 1
    32   33   34 ar
    33   34   35 ar
    34   35   36 1
    35   37   35 ar
    36   38   37 ar
    37   39   38 1
    38   40   33 ar
    39   41   40 1
    40   42   31 2
    41   43   33 1
    42   44   34 1
    43   45   37 1
    44   46    3 1
    45   47   44 2
    46   48   44 2
    47   49   45 2
    48   50   45 2
    49   51   43 1
    50   15   17 1
    51   15   46 1
    52   22   25 1
    53   38   40 ar
    54   42   43 1
@<TRIPOS>SUBSTRUCTURE
     1 RES1 1

@<TRIPOS>CRYSIN
  10.7298   10.7298   35.0400  90.0000  90.0000  90.0000  96 1

