# MOL2 file generated by ConQuest
# Please check atom types

@<TRIPOS>MOLECULE
ZUXYIC
    35    37     1
SMALL
NO_CHARGES
****
Generated from CSD

@<TRIPOS>ATOM
      1 O1         3.9627    6.1144    3.6722 O.3       1 RES1    0.0000
      2 N1         5.3500    6.1864    3.7849 N.am      1 RES1    0.0000
      3 C1         3.5598    6.4636    2.3349 C.3       1 RES1    0.0000
      4 H1         3.8720    7.3689    2.1250 H         1 RES1    0.0000
      5 H2         2.5823    6.4328    2.2693 H         1 RES1    0.0000
      6 H3         3.9499    5.8275    1.6994 H         1 RES1    0.0000
      7 O2         5.9519    8.4936    3.9207 O.3       1 RES1    0.0000
      8 C2         5.9601    7.2636    4.5876 C.3       1 RES1    0.0000
      9 O3         5.7184    3.9781    3.2238 O.2       1 RES1    0.0000
     10 C3         7.3793    6.7402    4.6499 C.ar      1 RES1    0.0000
     11 C4         7.4463    5.4509    4.1476 C.ar      1 RES1    0.0000
     12 C5         6.0986    5.0562    3.6709 C.2       1 RES1    0.0000
     13 C6         8.6365    4.7488    4.0979 C.ar      1 RES1    0.0000
     14 H4         8.6663    3.8552    3.7759 H         1 RES1    0.0000
     15 C7         9.7859    5.3924    4.5331 C.ar      1 RES1    0.0000
     16 H5        10.6204    4.9403    4.4971 H         1 RES1    0.0000
     17 C8         9.7271    6.6956    5.0229 C.ar      1 RES1    0.0000
     18 H6        10.5263    7.1232    5.3068 H         1 RES1    0.0000
     19 C9         8.5188    7.3838    5.1036 C.ar      1 RES1    0.0000
     20 H7         8.4772    8.2647    5.4582 H         1 RES1    0.0000
     21 C10        5.2813    7.3668    5.9746 C.3       1 RES1    0.0000
     22 H8         5.7908    8.0072    6.5321 H         1 RES1    0.0000
     23 H9         4.3680    7.7306    5.8581 H         1 RES1    0.0000
     24 C11        5.1917    6.0477    6.7032 C.ar      1 RES1    0.0000
     25 C12        4.0232    5.2924    6.6502 C.ar      1 RES1    0.0000
     26 H10        3.2656    5.6360    6.1922 H         1 RES1    0.0000
     27 C13        3.9462    4.0520    7.2515 C.ar      1 RES1    0.0000
     28 H11        3.1389    3.5531    7.2076 H         1 RES1    0.0000
     29 C14        5.0477    3.5329    7.9192 C.ar      1 RES1    0.0000
     30 H12        5.0007    2.6755    8.3244 H         1 RES1    0.0000
     31 C15        6.2153    4.2754    7.9902 C.ar      1 RES1    0.0000
     32 H13        6.9720    3.9254    8.4472 H         1 RES1    0.0000
     33 C16        6.2841    5.5275    7.3966 C.ar      1 RES1    0.0000
     34 H14        7.0833    6.0360    7.4633 H         1 RES1    0.0000
     35 H15        5.1591    8.7657    3.9701 H         1 RES1    0.0000
@<TRIPOS>BOND
     1    1    2 1
     2    2    8 1
     3    3    1 1
     4    4    3 1
     5    5    3 1
     6    6    3 1
     7    7    8 1
     8    8   10 1
     9    9   12 2
    10   10   11 ar
    11   11   12 1
    12   12    2 1
    13   13   11 ar
    14   14   13 1
    15   15   13 ar
    16   16   15 1
    17   17   15 ar
    18   18   17 1
    19   19   10 ar
    20   20   19 1
    21   21    8 1
    22   22   21 1
    23   23   21 1
    24   24   21 1
    25   25   24 ar
    26   26   25 1
    27   27   25 ar
    28   28   27 1
    29   29   27 ar
    30   30   29 1
    31   31   29 ar
    32   32   31 1
    33   33   24 ar
    34   34   33 1
    35   35    7 1
    36   17   19 ar
    37   31   33 ar
@<TRIPOS>SUBSTRUCTURE
     1 RES1 1

@<TRIPOS>CRYSIN
   9.0510   10.6380   14.2810  90.0000  90.0000  90.0000  19 1

