# MOL2 file generated by ConQuest
# Please check atom types

@<TRIPOS>MOLECULE
ZUYVUM
    82    86     2
SMALL
NO_CHARGES
****
Generated from CSD

@<TRIPOS>ATOM
      1 O1         6.2637    2.7739   14.2279 O.3       1 RES1    0.0000
      2 O2         7.0397   -1.5101   16.1035 O.2       1 RES1    0.0000
      3 O3         8.9298   -1.3001   17.2894 O.3       1 RES1    0.0000
      4 O4         8.3037    2.2427   18.5541 O.2       1 RES1    0.0000
      5 O5         7.2117    0.3270   19.0203 O.3       1 RES1    0.0000
      6 N1         6.9867    2.5348   15.4500 N.3       1 RES1    0.0000
      7 C1        10.2873    1.1448   15.9673 C.ar      1 RES1    0.0000
      8 H1        10.6678    0.4638   16.5091 H         1 RES1    0.0000
      9 C2        11.0911    1.9532   15.1654 C.ar      1 RES1    0.0000
     10 H2        12.0323    1.8183   15.1565 H         1 RES1    0.0000
     11 C3        10.5310    2.9548   14.3787 C.ar      1 RES1    0.0000
     12 H3        11.0928    3.4861   13.8276 H         1 RES1    0.0000
     13 C4         9.1632    3.1917   14.3879 C.ar      1 RES1    0.0000
     14 H4         8.7822    3.8825   13.8586 H         1 RES1    0.0000
     15 C5         8.3684    2.3825   15.1967 C.ar      1 RES1    0.0000
     16 C6         8.9154    1.3602   15.9551 C.ar      1 RES1    0.0000
     17 C7         7.8053    0.6966   16.7575 C.3       1 RES1    0.0000
     18 C8         6.5200    1.2607   16.0376 C.3       1 RES1    0.0000
     19 H5         6.2921    0.6415   15.2858 H         1 RES1    0.0000
     20 C9         5.2839    1.4203   16.9021 C.ar      1 RES1    0.0000
     21 C10        5.1205    2.5354   17.7187 C.ar      1 RES1    0.0000
     22 H6         5.7555    3.2410   17.6868 H         1 RES1    0.0000
     23 C11        4.0337    2.6234   18.5816 C.ar      1 RES1    0.0000
     24 H7         3.9388    3.3825   19.1450 H         1 RES1    0.0000
     25 C12        3.0897    1.6102   18.6236 C.ar      1 RES1    0.0000
     26 H8         2.3546    1.6670   19.2232 H         1 RES1    0.0000
     27 C13        3.2217    0.5123   17.7846 C.ar      1 RES1    0.0000
     28 H9         2.5646   -0.1735   17.7942 H         1 RES1    0.0000
     29 C14        4.3174    0.4145   16.9257 C.ar      1 RES1    0.0000
     30 H10        4.4044   -0.3396   16.3543 H         1 RES1    0.0000
     31 C15        7.8367    1.1892   18.2109 C.2       1 RES1    0.0000
     32 C16        7.0000    0.7878   20.3825 C.3       1 RES1    0.0000
     33 H11        6.5335    0.0938   20.8944 H         1 RES1    0.0000
     34 H12        6.4587    1.6045   20.3701 H         1 RES1    0.0000
     35 H13        7.8663    0.9770   20.8015 H         1 RES1    0.0000
     36 C17        7.8540   -0.8290   16.6789 C.2       1 RES1    0.0000
     37 C18        9.1437   -2.7377   17.2254 C.3       1 RES1    0.0000
     38 H14        8.2859   -3.2007   17.3282 H         1 RES1    0.0000
     39 H15        9.7495   -3.0108   17.9453 H         1 RES1    0.0000
     40 H16        9.5382   -2.9713   16.3598 H         1 RES1    0.0000
     41 H17        5.7348    3.4869   14.4684 H         1 RES1    0.0000
     42 O6         4.9601    4.9952   15.1902 O.3       2 RES2    0.0000
     43 O7         2.1928    8.2111   11.7660 O.2       2 RES2    0.0000
     44 O8         2.5087    8.5306   13.9705 O.3       2 RES2    0.0000
     45 O9         1.6834    4.5914   11.5867 O.2       2 RES2    0.0000
     46 O10        0.1513    6.1731   12.0262 O.3       2 RES2    0.0000
     47 N2         3.9285    5.9006   14.7750 N.3       2 RES2    0.0000
     48 C19        2.5531    5.3019   16.7925 C.ar      2 RES2    0.0000
     49 H18        3.3010    5.1029   17.3428 H         2 RES2    0.0000
     50 C20        1.2554    5.2271   17.2854 C.ar      2 RES2    0.0000
     51 H19        1.1106    4.9590   18.1856 H         2 RES2    0.0000
     52 C21        0.1638    5.5413   16.4774 C.ar      2 RES2    0.0000
     53 H20       -0.7158    5.4936   16.8349 H         2 RES2    0.0000
     54 C22        0.3491    5.9220   15.1514 C.ar      2 RES2    0.0000
     55 H21       -0.3958    6.1400   14.6031 H         2 RES2    0.0000
     56 C23        1.6327    5.9788   14.6441 C.ar      2 RES2    0.0000
     57 C24        2.7143    5.6761   15.4689 C.ar      2 RES2    0.0000
     58 C25        2.1556    6.2995   13.2446 C.3       2 RES2    0.0000
     59 C26        3.6209    5.7156   13.3414 C.3       2 RES2    0.0000
     60 H22        3.5880    4.7361   13.1450 H         2 RES2    0.0000
     61 C27        4.6653    6.3513   12.4545 C.ar      2 RES2    0.0000
     62 C28        4.8259    5.9303   11.1371 C.ar      2 RES2    0.0000
     63 H23        4.2688    5.2452   10.7876 H         2 RES2    0.0000
     64 C29        5.8000    6.5125   10.3319 C.ar      2 RES2    0.0000
     65 H24        5.8979    6.2304    9.4296 H         2 RES2    0.0000
     66 C30        6.6313    7.5027   10.8378 C.ar      2 RES2    0.0000
     67 H25        7.3096    7.8818   10.2924 H         2 RES2    0.0000
     68 C31        6.4643    7.9344   12.1416 C.ar      2 RES2    0.0000
     69 H26        7.0202    8.6219   12.4896 H         2 RES2    0.0000
     70 C32        5.4830    7.3629   12.9436 C.ar      2 RES2    0.0000
     71 H27        5.3700    7.6671   13.8367 H         2 RES2    0.0000
     72 C33        2.2499    7.7864   12.8930 C.2       2 RES2    0.0000
     73 C34        2.8593    9.9164   13.7119 C.3       2 RES2    0.0000
     74 H28        3.0327   10.3728   14.5612 H         2 RES2    0.0000
     75 H29        2.1185   10.3588   13.2469 H         2 RES2    0.0000
     76 H30        3.6625    9.9509   13.1523 H         2 RES2    0.0000
     77 C35        1.3344    5.5766   12.1764 C.2       2 RES2    0.0000
     78 C36       -0.7429    5.5898   11.0401 C.3       2 RES2    0.0000
     79 H31       -1.5800    6.1005   11.0151 H         2 RES2    0.0000
     80 H32       -0.9348    4.6597   11.2827 H         2 RES2    0.0000
     81 H33       -0.3171    5.6161   10.1577 H         2 RES2    0.0000
     82 H34        5.5478    5.4853   15.4969 H         2 RES2    0.0000
@<TRIPOS>BOND
     1    1    6 1
     2    2   36 2
     3    3   36 1
     4    4   31 2
     5    5   31 1
     6    6   15 1
     7    7    8 1
     8    9    7 ar
     9   10    9 1
    10   11    9 ar
    11   12   11 1
    12   13   11 ar
    13   14   13 1
    14   15   13 ar
    15   16    7 ar
    16   17   16 1
    17   18    6 1
    18   19   18 1
    19   20   18 1
    20   21   20 ar
    21   22   21 1
    22   23   21 ar
    23   24   23 1
    24   25   23 ar
    25   26   25 1
    26   27   25 ar
    27   28   27 1
    28   29   20 ar
    29   30   29 1
    30   31   17 1
    31   32    5 1
    32   33   32 1
    33   34   32 1
    34   35   32 1
    35   36   17 1
    36   37    3 1
    37   38   37 1
    38   39   37 1
    39   40   37 1
    40   41    1 1
    41   42   47 1
    42   43   72 2
    43   44   72 1
    44   45   77 2
    45   46   77 1
    46   47   57 1
    47   48   49 1
    48   50   48 ar
    49   51   50 1
    50   52   50 ar
    51   53   52 1
    52   54   52 ar
    53   55   54 1
    54   56   54 ar
    55   57   48 ar
    56   58   56 1
    57   59   47 1
    58   60   59 1
    59   61   59 1
    60   62   61 ar
    61   63   62 1
    62   64   62 ar
    63   65   64 1
    64   66   64 ar
    65   67   66 1
    66   68   66 ar
    67   69   68 1
    68   70   61 ar
    69   71   70 1
    70   72   58 1
    71   73   44 1
    72   74   73 1
    73   75   73 1
    74   76   73 1
    75   77   58 1
    76   78   46 1
    77   79   78 1
    78   80   78 1
    79   81   78 1
    80   82   42 1
    81   15   16 ar
    82   17   18 1
    83   27   29 ar
    84   56   57 ar
    85   58   59 1
    86   68   70 ar
@<TRIPOS>SUBSTRUCTURE
     1 RES1 1
     2 RES2 42

@<TRIPOS>CRYSIN
  21.3292    8.2239   18.2075  90.0000  91.1510  90.0000  14 1

