# MOL2 file generated by ConQuest
# Please check atom types

@<TRIPOS>MOLECULE
ZUZFEH
    60    62     2
SMALL
NO_CHARGES
****
Generated from CSD

@<TRIPOS>ATOM
      1 O1         4.8065    2.5264    9.3387 O.3       1 RES1    0.0000
      2 N1         1.4853    1.7922   10.2912 N.pl3     1 RES1    0.0000
      3 O2         1.2308    1.3501   11.3909 O.2       1 RES1    0.0000
      4 O3         1.4065    1.1350    9.2767 O.2       1 RES1    0.0000
      5 O4        -0.8731    6.3483   10.9776 O.2       1 RES1    0.0000
      6 C1         4.2785    2.4003   10.5973 C.2       1 RES1    0.0000
      7 C2         3.2325    3.3933   10.9774 C.3       1 RES1    0.0000
      8 H1         3.0217    3.2662   11.9267 H         1 RES1    0.0000
      9 C3         1.9396    3.2229   10.1739 C.3       1 RES1    0.0000
     10 H2         2.1157    3.4291    9.2328 H         1 RES1    0.0000
     11 C4         3.7202    4.8309   10.7861 C.3       1 RES1    0.0000
     12 H3         4.3735    5.0277   11.4754 H         1 RES1    0.0000
     13 H4         4.1738    4.8891    9.9307 H         1 RES1    0.0000
     14 C5         4.8242    1.3634   11.2284 C.2       1 RES1    0.0000
     15 H5         4.6357    1.0726   12.0906 H         1 RES1    0.0000
     16 C6         5.7084    1.5065    9.2157 C.2       1 RES1    0.0000
     17 H6         6.2192    1.3437    8.4553 H         1 RES1    0.0000
     18 C7         1.3436    5.5654   10.7935 C.2       1 RES1    0.0000
     19 C8         0.3135    6.5951   10.8909 C.2       1 RES1    0.0000
     20 H7         0.5794    7.4861   10.8856 H         1 RES1    0.0000
     21 C9         0.8468    4.1448   10.6911 C.3       1 RES1    0.0000
     22 H8         0.0857    4.1108   10.0913 H         1 RES1    0.0000
     23 H9         0.5549    3.8406   11.5650 H         1 RES1    0.0000
     24 C10        2.6558    5.8839   10.8297 C.2       1 RES1    0.0000
     25 C11        5.7591    0.7846   10.3130 C.2       1 RES1    0.0000
     26 H10        6.2987    0.0429   10.4648 H         1 RES1    0.0000
     27 C12        3.2134    7.2696   10.8895 C.3       1 RES1    0.0000
     28 H11        3.6836    7.3895   11.7171 H         1 RES1    0.0000
     29 H12        2.4960    7.9057   10.8332 H         1 RES1    0.0000
     30 H13        3.8179    7.4029   10.1555 H         1 RES1    0.0000
     31 O5        -2.0070    4.8694   16.0972 O.3       2 RES2    0.0000
     32 N2         1.2770    4.1425   15.1537 N.pl3     2 RES2    0.0000
     33 O6         1.5618    3.6662   14.0788 O.2       2 RES2    0.0000
     34 O7         1.3258    3.5162   16.1892 O.2       2 RES2    0.0000
     35 O8         3.6315    8.6617   14.2370 O.2       2 RES2    0.0000
     36 C13       -1.5173    4.7352   14.8314 C.2       2 RES2    0.0000
     37 C14        0.8234    5.5739   15.2100 C.3       2 RES2    0.0000
     38 H14        0.6507    5.8230   16.1417 H         2 RES2    0.0000
     39 C15       -0.4734    5.7032   14.4023 C.3       2 RES2    0.0000
     40 H15       -0.2626    5.5251   13.4613 H         2 RES2    0.0000
     41 C16        1.4150    7.8807   14.4347 C.2       2 RES2    0.0000
     42 C17        0.0979    8.2009   14.3921 C.2       2 RES2    0.0000
     43 C18       -0.9596    7.1498   14.5110 C.3       2 RES2    0.0000
     44 H16       -1.6206    7.3018   13.8179 H         2 RES2    0.0000
     45 H17       -1.4039    7.2589   15.3659 H         2 RES2    0.0000
     46 C19        2.4414    8.9041   14.2657 C.2       2 RES2    0.0000
     47 H18        2.1703    9.7889   14.1745 H         2 RES2    0.0000
     48 C20        1.9124    6.4743   14.6406 C.3       2 RES2    0.0000
     49 H19        2.6683    6.4869   15.2476 H         2 RES2    0.0000
     50 H20        2.2163    6.1138   13.7925 H         2 RES2    0.0000
     51 C21       -2.9256    3.8585   16.2407 C.2       2 RES2    0.0000
     52 H21       -3.4105    3.6974   17.0188 H         2 RES2    0.0000
     53 C22       -2.1105    3.7127   14.2105 C.2       2 RES2    0.0000
     54 H22       -1.9563    3.4228   13.3413 H         2 RES2    0.0000
     55 C23       -0.4492    9.5867   14.2586 C.3       2 RES2    0.0000
     56 H23        0.2608   10.2237   14.3688 H         2 RES2    0.0000
     57 H24       -1.1182    9.7325   14.9316 H         2 RES2    0.0000
     58 H25       -0.8424    9.6932   13.3886 H         2 RES2    0.0000
     59 C24       -3.0326    3.1535   15.1508 C.2       2 RES2    0.0000
     60 H26       -3.5985    2.4289   15.0110 H         2 RES2    0.0000
@<TRIPOS>BOND
     1    1    6 1
     2    2    3 2
     3    4    2 2
     4    5   19 2
     5    6    7 1
     6    7    8 1
     7    9    2 1
     8   10    9 1
     9   11    7 1
    10   12   11 1
    11   13   11 1
    12   14    6 2
    13   15   14 1
    14   16    1 1
    15   17   16 1
    16   18   19 1
    17   19   20 1
    18   21    9 1
    19   22   21 1
    20   23   21 1
    21   24   11 1
    22   25   14 1
    23   26   25 1
    24   27   24 1
    25   28   27 1
    26   29   27 1
    27   30   27 1
    28   31   36 1
    29   32   33 2
    30   34   32 2
    31   35   46 2
    32   36   39 1
    33   37   32 1
    34   38   37 1
    35   39   37 1
    36   40   39 1
    37   41   42 2
    38   42   43 1
    39   43   39 1
    40   44   43 1
    41   45   43 1
    42   46   41 1
    43   47   46 1
    44   48   37 1
    45   49   48 1
    46   50   48 1
    47   51   31 1
    48   52   51 1
    49   53   36 2
    50   54   53 1
    51   55   42 1
    52   56   55 1
    53   57   55 1
    54   58   55 1
    55   59   51 2
    56   60   59 1
    57    7    9 1
    58   16   25 2
    59   18   21 1
    60   18   24 2
    61   41   48 1
    62   53   59 1
@<TRIPOS>SUBSTRUCTURE
     1 RES1 1
     2 RES2 31

@<TRIPOS>CRYSIN
   7.7242    8.9462   17.2197  90.0000 101.0489  90.0000   4 1

