# MOL2 file generated by ConQuest
# Please check atom types

@<TRIPOS>MOLECULE
ZZZBPY01
    32    32     1
SMALL
NO_CHARGES
****
Generated from CSD

@<TRIPOS>ATOM
      1 O1        10.6520    0.8423    4.5287 O.3       1 RES1    0.0000
      2 O2        12.4625   -0.8122    3.1688 O.3       1 RES1    0.0000
      3 O3        11.4862   -1.8366    0.7111 O.3       1 RES1    0.0000
      4 O4         8.7529   -2.7907    0.9407 O.3       1 RES1    0.0000
      5 O5         8.9093    0.0000    3.3347 O.3       1 RES1    0.0000
      6 O6         6.0364   -0.8186    3.3791 O.3       1 RES1    0.0000
      7 O7         9.7385    0.8627    8.3611 O.2       1 RES1    0.0000
      8 N1        10.9313   -0.0131    6.6723 N.2       1 RES1    0.0000
      9 N2        10.5994    0.0738    7.9019 N.pl3     1 RES1    0.0000
     10 C1        10.2092   -0.2767    3.8310 C.3       1 RES1    0.0000
     11 C2        11.1593   -0.5370    2.6858 C.3       1 RES1    0.0000
     12 C3        10.6597   -1.7041    1.8725 C.3       1 RES1    0.0000
     13 C4         9.1908   -1.5487    1.5111 C.3       1 RES1    0.0000
     14 C5         8.3496   -1.1550    2.6962 C.3       1 RES1    0.0000
     15 C6         6.9263   -0.8088    2.2769 C.3       1 RES1    0.0000
     16 C7        10.1938    0.9263    5.8605 C.3       1 RES1    0.0000
     17 C8        11.2756   -0.8487    8.8234 C.3       1 RES1    0.0000
     18 H1        10.2185   -1.0050    4.3850 H         1 RES1    0.0000
     19 H2        11.1496    0.3156    2.1925 H         1 RES1    0.0000
     20 H3        10.7806   -2.4275    2.4888 H         1 RES1    0.0000
     21 H4        12.7318   -0.1942    3.2295 H         1 RES1    0.0000
     22 H5        11.3251   -2.7188    0.3852 H         1 RES1    0.0000
     23 H6         9.0937   -0.8982    0.8889 H         1 RES1    0.0000
     24 H7         8.3222   -1.9274    3.4073 H         1 RES1    0.0000
     25 H8         5.5606   -0.0485    3.2888 H         1 RES1    0.0000
     26 H9         6.9535    0.1020    1.8221 H         1 RES1    0.0000
     27 H10        6.6238   -1.5050    1.5407 H         1 RES1    0.0000
     28 H11        9.2866    0.7040    5.9405 H         1 RES1    0.0000
     29 H12       10.4189    1.8449    6.1331 H         1 RES1    0.0000
     30 H13       10.9032   -0.8253    9.5255 H         1 RES1    0.0000
     31 H14       12.0319   -0.4855    8.9182 H         1 RES1    0.0000
     32 H15       11.5164   -1.7478    8.3404 H         1 RES1    0.0000
@<TRIPOS>BOND
     1    1   10 1
     2    2   11 1
     3    3   12 1
     4    4   13 1
     5    5   10 1
     6    6   15 1
     7    7    9 1
     8    8    9 2
     9    9   17 1
    10   10   11 1
    11   11   12 1
    12   12   13 1
    13   13   14 1
    14   14    5 1
    15   15   14 1
    16   16    1 1
    17   17   30 1
    18   18   10 1
    19   19   11 1
    20   20   12 1
    21   21    2 1
    22   22    3 1
    23   23   13 1
    24   24   14 1
    25   25    6 1
    26   26   15 1
    27   27   15 1
    28   28   16 1
    29   29   16 1
    30   31   17 1
    31   32   17 1
    32    8   16 1
@<TRIPOS>SUBSTRUCTURE
     1 RES1 1

@<TRIPOS>CRYSIN
  15.4090    4.8550   15.7520  90.0000 109.8700  90.0000   5 1

