# MOL2 file generated by ConQuest
# Please check atom types

@<TRIPOS>MOLECULE
ZZZBPY10
    33    33     1
SMALL
USER_CHARGES
****
Generated from CSD

@<TRIPOS>ATOM
      1 C1         2.5220    0.0194    3.8561 C.3       1 RES1    0.0000
      2 C2         3.4640    0.2976    2.6809 C.3       1 RES1    0.0000
      3 C3         2.9661    1.4824    1.8762 C.3       1 RES1    0.0000
      4 C4         1.4898    1.3683    1.4968 C.3       1 RES1    0.0000
      5 C5         0.6486    0.9373    2.7091 C.3       1 RES1    0.0000
      6 C6        -0.7802    0.5927    2.2748 C.3       1 RES1    0.0000
      7 C7         2.4934   -1.2111    5.8598 C.3       1 RES1    0.0000
      8 C8         3.5751    0.6364    8.8474 C.3       1 RES1    0.0000
      9 N1         3.2280   -0.2519    6.6837 N.2       1 RES1    0.0000
     10 N2         2.8993   -0.3563    7.8990 N.pl3     1 RES1    1.0000
     11 O1         2.9573   -1.1130    4.5349 O.3       1 RES1    0.0000
     12 O2         4.7656    0.5597    3.1685 O.3       1 RES1    0.0000
     13 O3         3.7794    1.5999    0.7158 O.3       1 RES1    0.0000
     14 O4         1.0707    2.5435    0.9440 O.3       1 RES1    0.0000
     15 O5         1.2053   -0.2451    3.3419 O.3       1 RES1    0.0000
     16 O6        -1.6566    0.5703    3.3878 O.3       1 RES1    0.0000
     17 O7         2.0333   -1.0985    8.3717 O.2       1 RES1   -1.0000
     18 H1         2.4877    0.8931    4.5201 H         1 RES1    0.0000
     19 H2         3.5089   -0.5825    2.0303 H         1 RES1    0.0000
     20 H3         3.1125    2.3785    2.4453 H         1 RES1    0.0000
     21 H4         1.3521    0.6456    0.7410 H         1 RES1    0.0000
     22 H5         0.6209    1.7474    3.4530 H         1 RES1    0.0000
     23 H6         5.5287   -0.0146    3.1863 H         1 RES1    0.0000
     24 H7         4.0839    1.3203   -0.1630 H         1 RES1    0.0000
     25 H8         0.7656    3.2570    0.4001 H         1 RES1    0.0000
     26 H9        -2.6468    0.5485    3.3196 H         1 RES1    0.0000
     27 H10       -0.8009   -0.3932    1.7932 H         1 RES1    0.0000
     28 H11       -1.1217    1.3640    1.5709 H         1 RES1    0.0000
     29 H12        2.6851   -2.2183    6.2392 H         1 RES1    0.0000
     30 H13        1.4355   -1.0096    5.8983 H         1 RES1    0.0000
     31 H14        3.2009    0.4757    9.8552 H         1 RES1    0.0000
     32 H15        3.3011    1.6843    8.5510 H         1 RES1    0.0000
     33 H16        4.6237    0.5679    8.8178 H         1 RES1    0.0000
@<TRIPOS>BOND
     1    1    2 1
     2    2    3 1
     3    3    4 1
     4    4    5 1
     5    5    6 1
     6    6   16 1
     7    7    9 1
     8    8   10 1
     9    9   10 2
    10   10   17 1
    11   11    1 1
    12   12    2 1
    13   13    3 1
    14   14    4 1
    15   15    1 1
    16   16   26 1
    17   18    1 1
    18   19    2 1
    19   20    3 1
    20   21    4 1
    21   22    5 1
    22   23   12 1
    23   24   13 1
    24   25   14 1
    25   27    6 1
    26   28    6 1
    27   29    7 1
    28   30    7 1
    29   31    8 1
    30   32    8 1
    31   33    8 1
    32    5   15 1
    33    7   11 1
@<TRIPOS>SUBSTRUCTURE
     1 RES1 1

@<TRIPOS>CRYSIN
  15.4220    4.8540   15.7540  90.0000 109.8300  90.0000   5 1

