# MOL2 file generated by ConQuest
# Please check atom types

@<TRIPOS>MOLECULE
ZZZFYW02
    12    12     1
SMALL
NO_CHARGES
****
Generated from CSD

@<TRIPOS>ATOM
      1 O1         6.5749    2.7183   -1.1330 O.2       1 RES1    0.0000
      2 O2         5.0079    1.2685   -0.7000 O.2       1 RES1    0.0000
      3 O3         6.3065    0.0444    1.3777 O.2       1 RES1    0.0000
      4 O4         4.5345   -0.0931    2.6363 O.2       1 RES1    0.0000
      5 N1         5.7397    2.2033   -0.3949 N.pl3     1 RES1    0.0000
      6 N2         5.3742    0.5402    2.0004 N.pl3     1 RES1    0.0000
      7 C1         5.5694    2.7924    0.9359 C.ar      1 RES1    0.0000
      8 C2         5.2812    2.0025    2.0477 C.ar      1 RES1    0.0000
      9 C3         4.9808    2.5859    3.2690 C.ar      1 RES1    0.0000
     10 C4         4.9773    3.9766    3.3736 C.ar      1 RES1    0.0000
     11 C5         5.2798    4.7672    2.2680 C.ar      1 RES1    0.0000
     12 C6         5.5755    4.1771    1.0371 C.ar      1 RES1    0.0000
@<TRIPOS>BOND
     1    1    5 2
     2    2    5 2
     3    3    6 2
     4    4    6 2
     5    5    7 1
     6    6    8 1
     7    7    8 ar
     8    8    9 ar
     9    9   10 ar
    10   10   11 ar
    11   11   12 ar
    12   12    7 ar
@<TRIPOS>SUBSTRUCTURE
     1 RES1 1

@<TRIPOS>CRYSIN
   7.2580   12.8660    7.9150  90.0000 113.0800  90.0000  14 2

