# MOL2 file generated by ConQuest
# Please check atom types

@<TRIPOS>MOLECULE
ZZZFYW01
    16    16     1
SMALL
NO_CHARGES
****
Generated from CSD

@<TRIPOS>ATOM
      1 C1         2.4473   10.1672    1.2795 C.ar      1 RES1    0.0000
      2 C2         1.3179   10.9444    1.0867 C.ar      1 RES1    0.0000
      3 C3         0.0938   10.3541    0.8684 C.ar      1 RES1    0.0000
      4 C4         0.0056    8.9761    0.8367 C.ar      1 RES1    0.0000
      5 C5         1.1275    8.2015    1.0068 C.ar      1 RES1    0.0000
      6 C6         2.3604    8.7945    1.2347 C.ar      1 RES1    0.0000
      7 N1         3.7386   10.7680    1.6527 N.pl3     1 RES1    0.0000
      8 O1         4.7435   10.2736    1.1624 O.2       1 RES1    0.0000
      9 O2         3.7180   11.6879    2.4557 O.2       1 RES1    0.0000
     10 N2         1.3895   12.4106    1.0151 N.pl3     1 RES1    0.0000
     11 O3         2.3229   12.9075    0.4022 O.2       1 RES1    0.0000
     12 O4         0.4750   13.0373    1.5315 O.2       1 RES1    0.0000
     13 H1        -0.6774   10.9457    0.8043 H         1 RES1    0.0000
     14 H2        -0.8633    8.5583    0.7568 H         1 RES1    0.0000
     15 H3         1.0236    7.2608    1.0419 H         1 RES1    0.0000
     16 H4         3.1034    8.2910    1.3807 H         1 RES1    0.0000
@<TRIPOS>BOND
     1    1    2 ar
     2    2    3 ar
     3    3    4 ar
     4    4    5 ar
     5    5    6 ar
     6    6    1 ar
     7    7    1 1
     8    8    7 2
     9    9    7 2
    10   10    2 1
    11   11   10 2
    12   12   10 2
    13   13    3 1
    14   14    4 1
    15   15    5 1
    16   16    6 1
@<TRIPOS>SUBSTRUCTURE
     1 RES1 1

@<TRIPOS>CRYSIN
   7.9450   12.9750    7.4210  90.0000 111.8800  90.0000  14 1

