# MOL2 file generated by ConQuest
# Please check atom types

@<TRIPOS>MOLECULE
ZZZGVU02
    38    38     2
SMALL
NO_CHARGES
****
Generated from CSD

@<TRIPOS>ATOM
      1 O1        -0.3294    6.8561    4.8234 O.2       1 RES1    0.0000
      2 O2         1.7658    6.7267    4.2857 O.2       1 RES1    0.0000
      3 O3        -1.3247   11.3706    6.5044 O.2       1 RES1    0.0000
      4 O4        -0.2993   13.0574    5.6141 O.2       1 RES1    0.0000
      5 O5        -3.2491    6.3970    3.6531 O.2       2 RES2    0.0000
      6 O6        -3.2609    7.0356    5.7210 O.2       2 RES2    0.0000
      7 O7        -5.1254   11.3992    6.4888 O.2       2 RES2    0.0000
      8 O8        -4.5136   13.0273    5.2106 O.2       2 RES2    0.0000
      9 N1         0.7191    7.3476    4.4160 N.pl3     1 RES1    0.0000
     10 N2        -0.5604   11.8575    5.6857 N.pl3     1 RES1    0.0000
     11 N3        -3.2432    7.2643    4.5165 N.pl3     2 RES2    0.0000
     12 N4        -4.5465   11.8376    5.5069 N.pl3     2 RES2    0.0000
     13 C1         1.3070    9.2278    2.9038 C.ar      1 RES1    0.0000
     14 C2         0.7117    8.7806    4.0836 C.ar      1 RES1    0.0000
     15 C3         0.0815    9.5990    4.9950 C.ar      1 RES1    0.0000
     16 H1        -0.2947    9.3411    5.7410 H         1 RES1    0.0000
     17 C4         0.0975   10.9561    4.7299 C.ar      1 RES1    0.0000
     18 C5         0.6901   11.4735    3.6010 C.ar      1 RES1    0.0000
     19 H2         0.6817   12.3560    3.4108 H         1 RES1    0.0000
     20 C6         1.2746   10.6138    2.6984 C.ar      1 RES1    0.0000
     21 H3         1.6418   11.0006    1.9380 H         1 RES1    0.0000
     22 C7         1.9046    8.3256    1.8582 C.3       1 RES1    0.0000
     23 H4         2.6564    7.8465    2.1918 H         1 RES1    0.0000
     24 H5         2.1308    8.8192    1.0767 H         1 RES1    0.0000
     25 H6         1.3143    7.6771    1.6201 H         1 RES1    0.0000
     26 C8        -2.6659    9.0637    2.8704 C.ar      2 RES2    0.0000
     27 C9        -3.2383    8.6761    4.0914 C.ar      2 RES2    0.0000
     28 C10       -3.8344    9.5603    4.9740 C.ar      2 RES2    0.0000
     29 H7        -4.2102    9.2988    5.7474 H         2 RES2    0.0000
     30 C11       -3.8698   10.8909    4.6101 C.ar      2 RES2    0.0000
     31 C12       -3.3000   11.3438    3.4383 C.ar      2 RES2    0.0000
     32 H8        -3.3296   12.2183    3.1813 H         2 RES2    0.0000
     33 C13       -2.6974   10.4341    2.5999 C.ar      2 RES2    0.0000
     34 H9        -2.3087   10.7328    1.8188 H         2 RES2    0.0000
     35 C14       -2.0297    8.1394    1.8765 C.3       2 RES2    0.0000
     36 H10       -1.5597    8.6210    1.2305 H         2 RES2    0.0000
     37 H11       -1.4372    7.4971    2.2956 H         2 RES2    0.0000
     38 H12       -2.7264    7.6635    1.3651 H         2 RES2    0.0000
@<TRIPOS>BOND
     1    1    9 2
     2    2    9 2
     3    3   10 2
     4    4   10 2
     5    5   11 2
     6    6   11 2
     7    7   12 2
     8    8   12 2
     9    9   14 1
    10   10   17 1
    11   11   27 1
    12   12   30 1
    13   13   14 ar
    14   14   15 ar
    15   15   16 1
    16   17   15 ar
    17   18   17 ar
    18   19   18 1
    19   20   13 ar
    20   21   20 1
    21   22   13 1
    22   23   22 1
    23   24   22 1
    24   25   22 1
    25   26   27 ar
    26   27   28 ar
    27   28   29 1
    28   30   28 ar
    29   31   30 ar
    30   32   31 1
    31   33   26 ar
    32   34   33 1
    33   35   26 1
    34   36   35 1
    35   37   35 1
    36   38   35 1
    37   18   20 ar
    38   31   33 ar
@<TRIPOS>SUBSTRUCTURE
     1 RES1 1
     2 RES2 5

@<TRIPOS>CRYSIN
   8.0057   15.1273   12.8853  90.0000  95.8770  90.0000 231 1

