# MOL2 file generated by ConQuest
# Please check atom types

@<TRIPOS>MOLECULE
ZZZGVU01
    38    38     2
SMALL
NO_CHARGES
****
Generated from CSD

@<TRIPOS>ATOM
      1 C1         0.8669    6.0929    9.3793 C.ar      1 RES1    0.0000
      2 C2         0.3234    6.4840   10.6112 C.ar      1 RES1    0.0000
      3 C3        -0.2651    5.6011   11.4897 C.ar      1 RES1    0.0000
      4 C4        -0.3165    4.2775   11.1298 C.ar      1 RES1    0.0000
      5 C5         0.2325    3.8172    9.9448 C.ar      1 RES1    0.0000
      6 C6         0.8230    4.7287    9.1059 C.ar      1 RES1    0.0000
      7 C7         1.5045    7.0140    8.3727 C.3       1 RES1    0.0000
      8 N1         0.3364    7.8921   11.0568 N.pl3     1 RES1    0.0000
      9 N2        -0.9873    3.3299   12.0293 N.pl3     1 RES1    0.0000
     10 O1         0.3236    8.7635   10.1910 O.2       1 RES1    0.0000
     11 O2         0.3568    8.1184   12.2480 O.2       1 RES1    0.0000
     12 O3        -0.9710    2.1508   11.7372 O.2       1 RES1    0.0000
     13 O4        -1.5535    3.7700   13.0133 O.2       1 RES1    0.0000
     14 H1        -0.6728    5.9393   12.4310 H         1 RES1    0.0000
     15 H2         0.1968    2.7689    9.6875 H         1 RES1    0.0000
     16 H3         1.2744    4.3714    8.1921 H         1 RES1    0.0000
     17 H4         1.8701    6.3758    7.5819 H         1 RES1    0.0000
     18 H5         0.7752    7.7429    8.0512 H         1 RES1    0.0000
     19 H6         2.3448    7.5781    8.8241 H         1 RES1    0.0000
     20 C8         2.1310    9.2743    3.5534 C.ar      2 RES2    0.0000
     21 C9         2.6987    8.8301    2.3674 C.ar      2 RES2    0.0000
     22 C10        3.3349    9.6377    1.4506 C.ar      2 RES2    0.0000
     23 C11        3.3357   10.9906    1.7163 C.ar      2 RES2    0.0000
     24 C12        2.7545   11.5182    2.8477 C.ar      2 RES2    0.0000
     25 C13        2.1789   10.6554    3.7568 C.ar      2 RES2    0.0000
     26 C14        1.5356    8.3684    4.6040 C.3       2 RES2    0.0000
     27 N3         2.6922    7.3892    2.0384 N.pl3     2 RES2    0.0000
     28 N4         3.9804   11.8828    0.7558 N.pl3     2 RES2    0.0000
     29 O5         1.6370    6.7259    2.1606 O.2       2 RES2    0.0000
     30 O6         3.7214    6.8875    1.6250 O.2       2 RES2    0.0000
     31 O7         4.7008   11.3927   -0.0890 O.2       2 RES2    0.0000
     32 O8         3.7636   13.0808    0.8408 O.2       2 RES2    0.0000
     33 H7         3.8086    9.2320    0.5690 H         2 RES2    0.0000
     34 H8         2.7496   12.5845    3.0195 H         2 RES2    0.0000
     35 H9         1.7491   11.0629    4.6598 H         2 RES2    0.0000
     36 H10        1.5889    7.3440    4.2663 H         2 RES2    0.0000
     37 H11        2.0930    8.4740    5.5230 H         2 RES2    0.0000
     38 H12        0.5039    8.6378    4.7756 H         2 RES2    0.0000
@<TRIPOS>BOND
     1    1    2 ar
     2    2    3 ar
     3    3    4 ar
     4    4    5 ar
     5    5    6 ar
     6    6    1 ar
     7    7    1 1
     8    8    2 1
     9    9    4 1
    10   10    8 2
    11   11    8 2
    12   12    9 2
    13   13    9 2
    14   14    3 1
    15   15    5 1
    16   16    6 1
    17   17    7 1
    18   18    7 1
    19   19    7 1
    20   20   21 ar
    21   21   22 ar
    22   22   23 ar
    23   23   24 ar
    24   24   25 ar
    25   25   20 ar
    26   26   20 1
    27   27   21 1
    28   28   23 1
    29   29   27 2
    30   30   27 2
    31   31   28 2
    32   32   28 2
    33   33   22 1
    34   34   24 1
    35   35   25 1
    36   36   26 1
    37   37   26 1
    38   38   26 1
@<TRIPOS>SUBSTRUCTURE
     1 RES1 1
     2 RES2 20

@<TRIPOS>CRYSIN
   8.1260   15.2170   12.9980  90.0000  94.7700  90.0000 231 1

