# MOL2 file generated by ConQuest
# Please check atom types

@<TRIPOS>MOLECULE
ZZZHQU01
    56    56     2
SMALL
NO_CHARGES
****
Generated from CSD

@<TRIPOS>ATOM
      1 C1         6.6283    5.7001    7.7566 C.ar      1 RES1    0.0000
      2 C2         5.2617    5.5707    7.9131 C.ar      1 RES1    0.0000
      3 C3         7.5509    4.6701    7.6768 C.ar      1 RES1    0.0000
      4 C4         4.3477    6.7636    7.9548 C.3       1 RES1    0.0000
      5 H1         3.7415    6.6554    7.2010 H         1 RES1    0.0000
      6 H2         4.7733    7.6215    7.9286 H         1 RES1    0.0000
      7 H3         3.8157    6.7180    8.7472 H         1 RES1    0.0000
      8 C5         9.0181    4.9128    7.5206 C.3       1 RES1    0.0000
      9 H4         9.4513    4.6337    8.2909 H         1 RES1    0.0000
     10 H5         9.2214    5.8413    7.3029 H         1 RES1    0.0000
     11 H6         9.3910    4.4190    6.7682 H         1 RES1    0.0000
     12 N1         7.1512    7.0792    7.6470 N.pl3     1 RES1    0.0000
     13 O1         7.3033    7.5406    6.5460 O.2       1 RES1    0.0000
     14 O2         7.3995    7.6773    8.6580 O.2       1 RES1    0.0000
     15 C6         4.1354    5.9225   11.8225 C.ar      2 RES2    0.0000
     16 C7         4.7562    7.1612   11.7913 C.ar      2 RES2    0.0000
     17 C8         4.7543    4.6861   11.7996 C.ar      2 RES2    0.0000
     18 C9         3.9821    8.4462   11.8241 C.3       2 RES2    0.0000
     19 H7         3.0781    8.2745   12.1141 H         2 RES2    0.0000
     20 H8         4.4105    9.0975   12.4873 H         2 RES2    0.0000
     21 H9         3.9627    8.7665   10.9771 H         2 RES2    0.0000
     22 C10        3.9878    3.4001   11.8550 C.3       2 RES2    0.0000
     23 H10        4.2377    2.8446   11.1292 H         2 RES2    0.0000
     24 H11        4.1674    2.9609   12.6472 H         2 RES2    0.0000
     25 H12        3.1106    3.5424   11.7800 H         2 RES2    0.0000
     26 N2         2.6594    5.9241   11.8544 N.pl3     2 RES2    0.0000
     27 O3         2.1028    5.7313   12.9061 O.2       2 RES2    0.0000
     28 O4         2.0798    6.1114   10.8067 O.2       2 RES2    0.0000
     29 C1D        5.6784    3.2453    7.9250 C.ar      1 RES1    0.0000
     30 C2D        7.0450    3.3747    7.7685 C.ar      1 RES1    0.0000
     31 C3D        4.7558    4.2753    8.0048 C.ar      1 RES1    0.0000
     32 C4D        7.9590    2.1818    7.7268 C.3       1 RES1    0.0000
     33 H1D        8.5652    2.2900    8.4806 H         1 RES1    0.0000
     34 H2D        7.5334    1.3239    7.7530 H         1 RES1    0.0000
     35 H3D        8.4910    2.2274    6.9344 H         1 RES1    0.0000
     36 C5D        3.2886    4.0326    8.1610 C.3       1 RES1    0.0000
     37 H4D        2.8555    4.3117    7.3907 H         1 RES1    0.0000
     38 H5D        3.0853    3.1041    8.3787 H         1 RES1    0.0000
     39 H6D        2.9158    4.5264    8.9134 H         1 RES1    0.0000
     40 N1D        5.1555    1.8662    8.0346 N.pl3     1 RES1    0.0000
     41 O1D        5.0034    1.4048    9.1356 O.2       1 RES1    0.0000
     42 O2D        4.9073    1.2681    7.0236 O.2       1 RES1    0.0000
     43 C6B        6.7703    5.9225   11.6999 C.ar      2 RES2    0.0000
     44 C7B        6.1494    7.1612   11.7311 C.ar      2 RES2    0.0000
     45 C8B        6.1514    4.6861   11.7228 C.ar      2 RES2    0.0000
     46 C9B        6.9236    8.4462   11.6983 C.3       2 RES2    0.0000
     47 H7B        7.8275    8.2745   11.4084 H         2 RES2    0.0000
     48 H8B        6.4951    9.0975   11.0352 H         2 RES2    0.0000
     49 H9B        6.9430    8.7665   12.5453 H         2 RES2    0.0000
     50 C10B       6.9179    3.4001   11.6674 C.3       2 RES2    0.0000
     51 H10B       6.6680    2.8446   12.3932 H         2 RES2    0.0000
     52 H11B       6.7383    2.9609   10.8752 H         2 RES2    0.0000
     53 H12B       7.7950    3.5424   11.7424 H         2 RES2    0.0000
     54 N2B        8.2463    5.9241   11.6681 N.pl3     2 RES2    0.0000
     55 O3B        8.8029    5.7313   10.6163 O.2       2 RES2    0.0000
     56 O4B        8.8259    6.1114   12.7158 O.2       2 RES2    0.0000
@<TRIPOS>BOND
     1    1    2 ar
     2    2    4 1
     3    3    1 ar
     4    4    5 1
     5    6    4 1
     6    7    4 1
     7    8    3 1
     8    9    8 1
     9   10    8 1
    10   11    8 1
    11   12    1 1
    12   13   12 2
    13   14   12 2
    14   15   16 ar
    15   16   18 1
    16   17   15 ar
    17   18   19 1
    18   20   18 1
    19   21   18 1
    20   22   17 1
    21   23   22 1
    22   24   22 1
    23   25   22 1
    24   26   15 1
    25   27   26 2
    26   28   26 2
    27   29   30 ar
    28   30    3 ar
    29   31    2 ar
    30   32   30 1
    31   33   32 1
    32   34   32 1
    33   35   32 1
    34   36   31 1
    35   37   36 1
    36   38   36 1
    37   39   36 1
    38   40   29 1
    39   41   40 2
    40   42   40 2
    41   43   44 ar
    42   44   16 ar
    43   45   17 ar
    44   46   44 1
    45   47   46 1
    46   48   46 1
    47   49   46 1
    48   50   45 1
    49   51   50 1
    50   52   50 1
    51   53   50 1
    52   54   43 1
    53   55   54 2
    54   56   54 2
    55   29   31 ar
    56   43   45 ar
@<TRIPOS>SUBSTRUCTURE
     1 RES1 1
     2 RES2 15

@<TRIPOS>CRYSIN
  15.1088    8.9454   15.9300  90.0000 100.1310  90.0000  15 1

