# MOL2 file generated by ConQuest
# Please check atom types

@<TRIPOS>MOLECULE
ZZZHQU02
    68    56     3
SMALL
NO_CHARGES
****
Generated from CSD

@<TRIPOS>ATOM
      1 C1        -0.5626    3.3398    7.9673 C.ar      1 RES1    0.0000
      2 C2         0.4745    2.4270    8.0097 C.ar      1 RES1    0.0000
      3 C3        -0.4507    4.7103    7.8735 C.ar      1 RES1    0.0000
      4 C4         0.2309    0.9494    8.0988 C.3       1 RES1    0.0000
      5 H1        -0.7440    0.7044    8.1173 H         1 RES1    0.0000
      6 H2         0.6991    0.5513    8.9211 H         1 RES1    0.0000
      7 H3         0.6875    0.5206    7.2755 H         1 RES1    0.0000
      8 C5        -1.6554    5.6082    7.8496 C.3       1 RES1    0.0000
      9 H4        -2.5432    5.1145    7.9749 H         1 RES1    0.0000
     10 H5        -1.5713    6.3090    8.5809 H         1 RES1    0.0000
     11 H6        -1.7016    6.1252    6.9464 H         1 RES1    0.0000
     12 N1        -1.9316    2.7981    8.0482 N.pl3     1 RES1    0.0000
     13 O1        -2.5188    2.5801    7.0412 O.2       1 RES1    0.0000
     14 O2        -2.3930    2.6015    9.1379 O.2       1 RES1    0.0000
     15 C6         2.1083    4.3569   11.8674 C.ar      2 RES2    0.0000
     16 C7         0.8736    3.7365   11.8633 C.ar      2 RES2    0.0000
     17 C8         0.8760    2.3479   11.8736 C.ar      2 RES2    0.0000
     18 C9         2.1083    1.7317   11.8674 C.ar      2 RES2    0.0000
     19 C10       -0.4175    4.4980   11.8683 C.3       2 RES2    0.0000
     20 H7        -0.2327    5.4821   11.8358 H         2 RES2    0.0000
     21 H8        -0.9637    4.2723   12.7139 H         2 RES2    0.0000
     22 H9        -0.9549    4.1958   11.0557 H         2 RES2    0.0000
     23 C11       -0.4027    1.5605   11.9019 C.3       2 RES2    0.0000
     24 H10       -1.0454    1.9601   11.1949 H         2 RES2    0.0000
     25 H11       -0.8560    1.5466   12.8025 H         2 RES2    0.0000
     26 H12       -0.2691    0.5635   11.6142 H         2 RES2    0.0000
     27 N2         2.1083    5.8307   11.8674 N.pl3     2 RES2    0.0000
     28 O3         1.8504    6.3973   10.8534 O.2       2 RES2    0.0000
     29 N3         2.1083    0.2557   11.8674 N.pl3     2 RES2    0.0000
     30 O4         2.1842   -0.3165   10.8147 O.2       2 RES2    0.0000
     31 H13       -0.2755    0.7044    8.9559 Du        3 SUP3    0.0000
     32 H14        1.0637    0.3522    8.0382 Du        3 SUP3    0.0000
     33 H15       -0.3767    0.6891    7.3103 Du        3 SUP3    0.0000
     34 H16        3.4752    2.0826    7.0888 Du        3 SUP3    0.0000
     35 H17        2.6984    1.1117    8.1964 Du        3 SUP3    0.0000
     36 H18        3.5559    2.4501    8.7028 Du        3 SUP3    0.0000
     37 H19       -0.5695    4.9155   10.9655 Du        3 SUP3    0.0000
     38 H20       -0.4024    5.2064   12.5953 Du        3 SUP3    0.0000
     39 H21       -1.1671    3.8283   12.0731 Du        3 SUP3    0.0000
     40 H22       -1.2051    2.0826   12.2630 Du        3 SUP3    0.0000
     41 H23       -0.3049    0.6738   12.4212 Du        3 SUP3    0.0000
     42 H24       -0.5869    1.3322   10.9180 Du        3 SUP3    0.0000
     43 C1E        1.8804    4.3167    7.8559 C.ar      1 RES1    0.0000
     44 C2E        0.8434    5.2295    7.8135 C.ar      1 RES1    0.0000
     45 C3E        1.7685    2.9462    7.9497 C.ar      1 RES1    0.0000
     46 C4E        1.0869    6.7071    7.7244 C.3       1 RES1    0.0000
     47 H1E        2.0618    6.9521    7.7059 H         1 RES1    0.0000
     48 H2E        0.6187    7.1052    6.9021 H         1 RES1    0.0000
     49 H3E        0.6304    7.1359    8.5477 H         1 RES1    0.0000
     50 C5E        2.9732    2.0483    7.9736 C.3       1 RES1    0.0000
     51 H4E        3.8610    2.5420    7.8483 H         1 RES1    0.0000
     52 H5E        2.8891    1.3475    7.2423 H         1 RES1    0.0000
     53 H6E        3.0194    1.5313    8.8768 H         1 RES1    0.0000
     54 N1E        3.2494    4.8584    7.7750 N.pl3     1 RES1    0.0000
     55 O1E        3.8366    5.0764    8.7820 O.2       1 RES1    0.0000
     56 O2E        3.7109    5.0550    6.6853 O.2       1 RES1    0.0000
     57 C7B        3.3429    3.7365   11.8715 C.ar      2 RES2    0.0000
     58 C8B        3.3405    2.3479   11.8612 C.ar      2 RES2    0.0000
     59 C10B       4.6340    4.4980   11.8664 C.3       2 RES2    0.0000
     60 H7B        4.4492    5.4821   11.8990 H         2 RES2    0.0000
     61 H8B        5.1802    4.2723   11.0209 H         2 RES2    0.0000
     62 H9B        5.1714    4.1958   12.6791 H         2 RES2    0.0000
     63 C11B       4.6192    1.5605   11.8329 C.3       2 RES2    0.0000
     64 H10B       5.2619    1.9601   12.5399 H         2 RES2    0.0000
     65 H11B       5.0725    1.5466   10.9322 H         2 RES2    0.0000
     66 H12B       4.4856    0.5635   12.1206 H         2 RES2    0.0000
     67 O3B        2.3662    6.3973   12.8813 O.2       2 RES2    0.0000
     68 O4B        2.0323   -0.3165   12.9201 O.2       2 RES2    0.0000
@<TRIPOS>BOND
     1    1    2 ar
     2    2    4 1
     3    3    1 ar
     4    4    5 1
     5    6    4 1
     6    7    4 1
     7    8    3 1
     8    9    8 1
     9   10    8 1
    10   11    8 1
    11   12    1 1
    12   13   12 2
    13   14   12 2
    14   15   16 ar
    15   16   17 ar
    16   17   18 ar
    17   18   29 1
    18   19   16 1
    19   20   19 1
    20   21   19 1
    21   22   19 1
    22   23   17 1
    23   24   23 1
    24   25   23 1
    25   26   23 1
    26   27   15 1
    27   28   27 2
    28   29   30 2
    29   43   44 ar
    30   44    3 ar
    31   45    2 ar
    32   46   44 1
    33   47   46 1
    34   48   46 1
    35   49   46 1
    36   50   45 1
    37   51   50 1
    38   52   50 1
    39   53   50 1
    40   54   43 1
    41   55   54 2
    42   56   54 2
    43   57   15 ar
    44   58   18 ar
    45   59   57 1
    46   60   59 1
    47   61   59 1
    48   62   59 1
    49   63   58 1
    50   64   63 1
    51   65   63 1
    52   66   63 1
    53   67   27 2
    54   68   29 2
    55   43   45 ar
    56   57   58 ar
@<TRIPOS>SUBSTRUCTURE
     1 RES1 1
     2 RES2 15
     3 SUP3 31

@<TRIPOS>CRYSIN
   8.9592   15.3130   16.1360  90.0000 101.3000  90.0000  15 1

