# MOL2 file generated by ConQuest
# Please check atom types

@<TRIPOS>MOLECULE
ZZZJIQ02
    38    38     2
SMALL
NO_CHARGES
****
Generated from CSD

@<TRIPOS>ATOM
      1 C1         6.0519    1.3675    0.6869 C.ar      1 RES1    0.0000
      2 N1         7.0676    1.8102   -0.1265 N.3       1 RES1    0.0000
      3 C2         4.7403    1.7277    0.4499 C.ar      1 RES1    0.0000
      4 C3         3.7505    1.3183    1.3059 C.ar      1 RES1    0.0000
      5 N2         2.3904    1.7534    0.9534 N.pl3     1 RES1    0.0000
      6 O1         1.4611    1.3213    1.5783 O.2       1 RES1    0.0000
      7 O2         2.2363    2.5389    0.0663 O.2       1 RES1    0.0000
      8 C4         3.9788    0.5267    2.4401 C.ar      1 RES1    0.0000
      9 C5         2.9599    0.0757    3.4403 C.3       1 RES1    0.0000
     10 C6         5.3092    0.1703    2.6284 C.ar      1 RES1    0.0000
     11 C7         6.3133    0.5539    1.7893 C.ar      1 RES1    0.0000
     12 H1         6.8914    2.3202   -0.7963 H         1 RES1    0.0000
     13 H2         7.8801    1.5771    0.0333 H         1 RES1    0.0000
     14 H3         4.5282    2.2491   -0.2900 H         1 RES1    0.0000
     15 H4         3.4007   -0.3678    4.1691 H         1 RES1    0.0000
     16 H5         2.3465   -0.5320    3.0211 H         1 RES1    0.0000
     17 H6         2.4791    0.8370    3.7722 H         1 RES1    0.0000
     18 H7         5.5255   -0.3564    3.3633 H         1 RES1    0.0000
     19 H8         7.1834    0.2702    1.9538 H         1 RES1    0.0000
     20 C8         5.0599    0.5539    8.3855 C.ar      2 RES2    0.0000
     21 N3         4.0961    0.3284    9.3394 N.3       2 RES2    0.0000
     22 C9         6.3954    0.3262    8.6501 C.ar      2 RES2    0.0000
     23 C10        7.3421    0.5290    7.6632 C.ar      2 RES2    0.0000
     24 N4         8.7252    0.2391    8.0473 N.pl3     2 RES2    0.0000
     25 O3         9.0625    0.4177    9.2051 O.2       2 RES2    0.0000
     26 O4         9.4921   -0.1733    7.1997 O.2       2 RES2    0.0000
     27 C11        7.0385    0.9906    6.3746 C.ar      2 RES2    0.0000
     28 C12        8.0316    1.2237    5.2710 C.3       2 RES2    0.0000
     29 C13        5.6953    1.2555    6.1709 C.ar      2 RES2    0.0000
     30 C14        4.7292    1.0496    7.1193 C.ar      2 RES2    0.0000
     31 H9         4.3209    0.0401   10.1185 H         2 RES2    0.0000
     32 H10        3.2685    0.4752    9.1582 H         2 RES2    0.0000
     33 H11        6.6588    0.0363    9.4934 H         2 RES2    0.0000
     34 H12        8.7589    1.7557    5.6024 H         2 RES2    0.0000
     35 H13        7.6030    1.6845    4.5470 H         2 RES2    0.0000
     36 H14        8.3683    0.3807    4.9606 H         2 RES2    0.0000
     37 H15        5.4348    1.5922    5.3433 H         2 RES2    0.0000
     38 H16        3.8412    1.2411    6.9192 H         2 RES2    0.0000
@<TRIPOS>BOND
     1    1    2 1
     2    2   12 1
     3    3    1 ar
     4    4    3 ar
     5    5    4 1
     6    6    5 2
     7    7    5 2
     8    8    4 ar
     9    9    8 1
    10   10    8 ar
    11   11    1 ar
    12   13    2 1
    13   14    3 1
    14   15    9 1
    15   16    9 1
    16   17    9 1
    17   18   10 1
    18   19   11 1
    19   20   21 1
    20   21   31 1
    21   22   20 ar
    22   23   22 ar
    23   24   23 1
    24   25   24 2
    25   26   24 2
    26   27   23 ar
    27   28   27 1
    28   29   27 ar
    29   30   20 ar
    30   32   21 1
    31   33   22 1
    32   34   28 1
    33   35   28 1
    34   36   28 1
    35   37   29 1
    36   38   30 1
    37   10   11 ar
    38   29   30 ar
@<TRIPOS>SUBSTRUCTURE
     1 RES1 1
     2 RES2 20

@<TRIPOS>CRYSIN
   8.2473    7.5676   23.7798  90.0000  91.7170  90.0000 231 1

