# MOL2 file generated by ConQuest
# Please check atom types

@<TRIPOS>MOLECULE
ZZZJIQ01
    76    76     4
SMALL
NO_CHARGES
****
Generated from CSD

@<TRIPOS>ATOM
      1 C1         4.3863    7.3852    8.3080 C.ar      1 RES1    0.0000
      2 N1         4.1820    8.3621    9.2585 N.3       1 RES1    0.0000
      3 C2         4.1409    6.0485    8.5743 C.ar      1 RES1    0.0000
      4 C3         4.3373    5.1030    7.5782 C.ar      1 RES1    0.0000
      5 N2         4.0216    3.7226    7.9526 N.pl3     1 RES1    0.0000
      6 O1         4.1789    3.3814    9.1237 O.2       1 RES1    0.0000
      7 O2         3.6070    2.9595    7.0901 O.2       1 RES1    0.0000
      8 C4         4.8065    5.3932    6.2978 C.ar      1 RES1    0.0000
      9 C5         5.0187    4.3999    5.1961 C.3       1 RES1    0.0000
     10 C6         5.0912    6.7420    6.0922 C.ar      1 RES1    0.0000
     11 C7         4.8912    7.7063    7.0469 C.ar      1 RES1    0.0000
     12 C8         0.4829   -2.7507    3.4767 C.ar      2 RES2    0.0000
     13 N3         0.2625   -3.7297    2.5376 N.3       2 RES2    0.0000
     14 C9         0.3021   -1.4088    3.1755 C.ar      2 RES2    0.0000
     15 C10        0.5063   -0.4566    4.1539 C.ar      2 RES2    0.0000
     16 N4         0.2851    0.9320    3.7315 N.pl3     2 RES2    0.0000
     17 O3         0.4592    1.2201    2.5482 O.2       2 RES2    0.0000
     18 O4        -0.0599    1.7616    4.5636 O.2       2 RES2    0.0000
     19 C11        0.9165   -0.7310    5.4583 C.ar      2 RES2    0.0000
     20 C12        1.1394    0.2676    6.5480 C.3       2 RES2    0.0000
     21 C13        1.1423   -2.0880    5.7029 C.ar      2 RES2    0.0000
     22 C14        0.9284   -3.0673    4.7614 C.ar      2 RES2    0.0000
     23 C15        1.4939    6.5725   11.1050 C.ar      3 RES3    0.0000
     24 N5         1.9336    7.5911   11.9254 N.3       3 RES3    0.0000
     25 C16        1.8385    5.2579   11.3541 C.ar      3 RES3    0.0000
     26 C17        1.4180    4.2631   10.4949 C.ar      3 RES3    0.0000
     27 N6         1.8319    2.9034   10.8529 N.pl3     3 RES3    0.0000
     28 O5         1.3794    1.9626   10.2346 O.2       3 RES3    0.0000
     29 O6         2.6248    2.7460   11.7634 O.2       3 RES3    0.0000
     30 C18        0.6445    4.4903    9.3547 C.ar      3 RES3    0.0000
     31 C19        0.1905    3.4676    8.3468 C.3       3 RES3    0.0000
     32 C20        0.2988    5.8331    9.1524 C.ar      3 RES3    0.0000
     33 C21        0.6982    6.8376    9.9918 C.ar      3 RES3    0.0000
     34 C22        5.2170    6.3550    0.7007 C.ar      4 RES4    0.0000
     35 N7         5.6375    5.3375   -0.1141 N.3       4 RES4    0.0000
     36 C23        5.5988    7.6664    0.4598 C.ar      4 RES4    0.0000
     37 C24        5.2043    8.6689    1.3254 C.ar      4 RES4    0.0000
     38 N8         5.6521   10.0201    0.9620 N.pl3     4 RES4    0.0000
     39 O7         5.2837   10.9550    1.6283 O.2       4 RES4    0.0000
     40 O8         6.3964   10.1612    0.0235 O.2       4 RES4    0.0000
     41 C25        4.4349    8.4544    2.4644 C.ar      4 RES4    0.0000
     42 C26        4.0152    9.4812    3.4815 C.3       4 RES4    0.0000
     43 C27        4.0517    7.1189    2.6592 C.ar      4 RES4    0.0000
     44 C28        4.4129    6.1067    1.8141 C.ar      4 RES4    0.0000
     45 H1         3.8881    8.1432   10.0596 H         1 RES1    0.0000
     46 H2         4.3455    9.2051    9.0647 H         1 RES1    0.0000
     47 H3         3.8395    5.7805    9.4339 H         1 RES1    0.0000
     48 H4         4.1503    4.0870    4.8663 H         1 RES1    0.0000
     49 H5         5.5317    3.6378    5.5366 H         1 RES1    0.0000
     50 H6         5.5128    4.8249    4.4641 H         1 RES1    0.0000
     51 H7         5.4412    7.0063    5.2497 H         1 RES1    0.0000
     52 H8         5.1001    8.6106    6.8467 H         1 RES1    0.0000
     53 H9         0.0014   -3.5102    1.7264 H         2 RES2    0.0000
     54 H10        0.3825   -4.5762    2.7472 H         2 RES2    0.0000
     55 H11        0.0396   -1.1470    2.3003 H         2 RES2    0.0000
     56 H12        1.7132    0.9899    6.2164 H         2 RES2    0.0000
     57 H13        1.5727   -0.1711    7.3101 H         2 RES2    0.0000
     58 H14        0.2777    0.6388    6.8326 H         2 RES2    0.0000
     59 H15        1.4585   -2.3463    6.5598 H         2 RES2    0.0000
     60 H16        1.0866   -3.9759    4.9886 H         2 RES2    0.0000
     61 H17        2.4413    7.4085   12.6209 H         3 RES3    0.0000
     62 H18        1.7054    8.4233   11.7530 H         3 RES3    0.0000
     63 H19        2.3638    5.0395   12.1152 H         3 RES3    0.0000
     64 H20        0.9650    2.9643    8.0204 H         3 RES3    0.0000
     65 H21       -0.2453    3.9204    7.5947 H         3 RES3    0.0000
     66 H22       -0.4452    2.8518    8.7683 H         3 RES3    0.0000
     67 H23       -0.2363    6.0557    8.3990 H         3 RES3    0.0000
     68 H24        0.4283    7.7306    9.8126 H         3 RES3    0.0000
     69 H25        6.1571    5.5112   -0.8020 H         4 RES4    0.0000
     70 H26        5.3876    4.5098    0.0517 H         4 RES4    0.0000
     71 H27        6.1303    7.8752   -0.2987 H         4 RES4    0.0000
     72 H28        4.8081    9.9385    3.8314 H         4 RES4    0.0000
     73 H29        3.5427    9.0384    4.2172 H         4 RES4    0.0000
     74 H30        3.4201   10.1354    3.0576 H         4 RES4    0.0000
     75 H31        3.5154    6.9081    3.4151 H         4 RES4    0.0000
     76 H32        4.1127    5.2221    1.9875 H         4 RES4    0.0000
@<TRIPOS>BOND
     1    1    2 1
     2    2   45 1
     3    3    1 ar
     4    4    3 ar
     5    5    4 1
     6    6    5 2
     7    7    5 2
     8    8    4 ar
     9    9    8 1
    10   10    8 ar
    11   11    1 ar
    12   12   13 1
    13   13   53 1
    14   14   12 ar
    15   15   14 ar
    16   16   15 1
    17   17   16 2
    18   18   16 2
    19   19   15 ar
    20   20   19 1
    21   21   19 ar
    22   22   12 ar
    23   23   24 1
    24   24   61 1
    25   25   23 ar
    26   26   25 ar
    27   27   26 1
    28   28   27 2
    29   29   27 2
    30   30   26 ar
    31   31   30 1
    32   32   30 ar
    33   33   23 ar
    34   34   35 1
    35   35   69 1
    36   36   34 ar
    37   37   36 ar
    38   38   37 1
    39   39   38 2
    40   40   38 2
    41   41   37 ar
    42   42   41 1
    43   43   41 ar
    44   44   34 ar
    45   46    2 1
    46   47    3 1
    47   48    9 1
    48   49    9 1
    49   50    9 1
    50   51   10 1
    51   52   11 1
    52   54   13 1
    53   55   14 1
    54   56   20 1
    55   57   20 1
    56   58   20 1
    57   59   21 1
    58   60   22 1
    59   62   24 1
    60   63   25 1
    61   64   31 1
    62   65   31 1
    63   66   31 1
    64   67   32 1
    65   68   33 1
    66   70   35 1
    67   71   36 1
    68   72   42 1
    69   73   42 1
    70   74   42 1
    71   75   43 1
    72   76   44 1
    73   10   11 ar
    74   21   22 ar
    75   32   33 ar
    76   43   44 ar
@<TRIPOS>SUBSTRUCTURE
     1 RES1 1
     2 RES2 12
     3 RES3 23
     4 RES4 34

@<TRIPOS>CRYSIN
   7.3814    8.2085   23.5355  87.9310  89.8880  88.3710   2 1

