# MOL2 file generated by ConQuest
# Please check atom types

@<TRIPOS>MOLECULE
ZZZKEA02
    14    15     1
SMALL
NO_CHARGES
****
Generated from CSD

@<TRIPOS>ATOM
      1 C1        -1.8527    0.9337    1.5233 C.2       1 RES1    0.0000
      2 C2        -1.2395   -0.3183    1.7194 C.2       1 RES1    0.0000
      3 C3         0.1641   -0.4027    1.8097 C.2       1 RES1    0.0000
      4 C4         0.8565    0.7364    1.7174 C.2       1 RES1    0.0000
      5 C5         0.2206    2.0035    1.5112 C.2       1 RES1    0.0000
      6 C6        -1.1013    2.1283    1.4157 C.2       1 RES1    0.0000
      7 N1        -3.1489    0.7315    1.4875 N.pl3     1 RES1    0.0000
      8 N2        -2.1238   -1.2948    1.7860 N.2       1 RES1    0.0000
      9 O1        -4.1610    1.4246    1.3895 O.2       1 RES1    0.0000
     10 H1         0.6247   -1.2195    1.9596 H         1 RES1    0.0000
     11 H2         1.8974    0.7276    1.7463 H         1 RES1    0.0000
     12 H3         0.8859    2.6970    1.5054 H         1 RES1    0.0000
     13 H4        -1.5075    2.8824    1.2831 H         1 RES1    0.0000
     14 O2        -3.3538   -0.6975    1.6540 O.3       1 RES1    0.0000
@<TRIPOS>BOND
     1    1    2 1
     2    2    3 1
     3    3    4 2
     4    4    5 1
     5    5    6 2
     6    6    1 1
     7    7    1 2
     8    8    2 2
     9    9    7 1
    10   10    3 1
    11   11    4 1
    12   12    5 1
    13   13    6 1
    14   14    7 1
    15    8   14 1
@<TRIPOS>SUBSTRUCTURE
     1 RES1 1

