# MOL2 file generated by ConQuest
# Please check atom types

@<TRIPOS>MOLECULE
ZZZKEA01
    14    15     1
SMALL
USER_CHARGES
****
Generated from CSD

@<TRIPOS>ATOM
      1 O1         0.2344    1.4797   -0.0527 O.2       1 RES1   -1.0000
      2 O2         2.3858    1.4560    0.7360 O.3       1 RES1    0.0000
      3 N1         0.9737    1.1973    0.8895 N.pl3     1 RES1    1.0000
      4 N2         3.0436    1.1052    1.8979 N.2       1 RES1    0.0000
      5 C1         2.0945    0.6577    2.7097 C.2       1 RES1    0.0000
      6 C2         2.2346    0.1836    4.0514 C.2       1 RES1    0.0000
      7 C3         1.1019   -0.2214    4.6783 C.2       1 RES1    0.0000
      8 C4        -0.1915   -0.1863    4.0540 C.2       1 RES1    0.0000
      9 C5        -0.3658    0.2695    2.7778 C.2       1 RES1    0.0000
     10 C6         0.8172    0.6954    2.1169 C.2       1 RES1    0.0000
     11 H1         3.1046    0.1709    4.4509 H         1 RES1    0.0000
     12 H2         1.1868   -0.5335    5.5685 H         1 RES1    0.0000
     13 H3        -0.9536   -0.4710    4.5344 H         1 RES1    0.0000
     14 H4        -1.2193    0.3083    2.3700 H         1 RES1    0.0000
@<TRIPOS>BOND
     1    1    3 1
     2    2    3 1
     3    3   10 2
     4    4    2 1
     5    5    4 2
     6    6    5 1
     7    7    6 2
     8    8    7 1
     9    9    8 2
    10   10    5 1
    11   11    6 1
    12   12    7 1
    13   13    8 1
    14   14    9 1
    15    9   10 1
@<TRIPOS>SUBSTRUCTURE
     1 RES1 1

@<TRIPOS>CRYSIN
   6.6751    7.3256    7.6842 100.7100 114.2650 111.7470   2 1

