# MOL2 file generated by ConQuest
# Please check atom types

@<TRIPOS>MOLECULE
ZZZLFW01
    30    25     2
SMALL
NO_CHARGES
****
Generated from CSD

@<TRIPOS>ATOM
      1 O1         4.6760    2.5502   12.4483 O.2       1 RES1    0.0000
      2 O2         2.7126    2.3034   11.6037 O.2       1 RES1    0.0000
      3 N1         3.4725    2.7383   12.4400 N.pl3     1 RES1    0.0000
      4 O3         5.5071    0.7079   14.7463 O.2       1 RES1    0.0000
      5 O4         3.4077    0.7191   14.1848 O.2       1 RES1    0.0000
      6 N2         4.3933    1.2076   14.7181 N.pl3     1 RES1    0.0000
      7 N3         0.8641    6.6734   13.5160 N.pl3     1 RES1    0.0000
      8 O5         0.6123    6.7213   12.3247 O.2       1 RES1    0.0000
      9 O6         0.4189    7.4571   14.3383 O.2       1 RES1    0.0000
     10 C1         2.9189    3.5998   13.4991 C.ar      1 RES1    0.0000
     11 C2         2.0890    4.5837   13.0756 C.ar      1 RES1    0.0000
     12 H1         1.7600    4.5898   12.2054 H         1 RES1    0.0000
     13 C3         1.7418    5.5898   13.9811 C.ar      1 RES1    0.0000
     14 C4         2.2327    5.6321   15.2467 C.ar      1 RES1    0.0000
     15 H2         2.0128    6.3388   15.8091 H         1 RES1    0.0000
     16 C5         3.5873    4.6307   17.0292 C.ar      1 RES1    0.0000
     17 H3         3.3682    5.3432   17.5862 H         1 RES1    0.0000
     18 C6         4.3880    3.6382   17.4966 C.ar      1 RES1    0.0000
     19 H4         4.7389    3.6899   18.3569 H         1 RES1    0.0000
     20 C7         4.6856    2.5401   16.6853 C.ar      1 RES1    0.0000
     21 H5         5.2192    1.8515   17.0093 H         1 RES1    0.0000
     22 C8         4.1909    2.4815   15.4167 C.ar      1 RES1    0.0000
     23 C9         3.4138    3.5133   14.8381 C.ar      1 RES1    0.0000
     24 C10        3.0795    4.5980   15.7035 C.ar      1 RES1    0.0000
     25 O7         2.4139    1.2346   13.2101 Du        2 SUP2    0.0000
     26 O8         2.8248    2.5139   11.5131 Du        2 SUP2    0.0000
     27 O9         5.1521    1.5885   13.5450 Du        2 SUP2    0.0000
     28 O10        4.6014    0.1851   15.0849 Du        2 SUP2    0.0000
     29 N4         2.7172    2.3057   12.7021 Du        2 SUP2    0.0000
     30 N5         4.6455    1.3109   14.6234 Du        2 SUP2    0.0000
@<TRIPOS>BOND
     1    1    3 2
     2    2    3 2
     3    3   10 1
     4    4    6 2
     5    5    6 2
     6    6   22 1
     7    7    8 2
     8    9    7 2
     9   10   11 ar
    10   11   12 1
    11   13    7 1
    12   14   13 ar
    13   15   14 1
    14   16   17 1
    15   18   16 ar
    16   19   18 1
    17   20   18 ar
    18   21   20 1
    19   22   20 ar
    20   23   10 ar
    21   24   14 ar
    22   11   13 ar
    23   16   24 ar
    24   22   23 ar
    25   23   24 ar
@<TRIPOS>SUBSTRUCTURE
     1 RES1 1
     2 SUP2 25

@<TRIPOS>CRYSIN
   8.4353    7.7114   16.2500  90.0000  99.5700  90.0000 231 1

