# MOL2 file generated by ConQuest
# Please check atom types

@<TRIPOS>MOLECULE
ZZZLYS01
    18    18     1
SMALL
NO_CHARGES
****
Generated from CSD

@<TRIPOS>ATOM
      1 C1         9.3414   -0.6901   -0.3004 C.ar      1 RES1    0.0000
      2 C2         8.1961   -0.2943   -0.9457 C.ar      1 RES1    0.0000
      3 C3         7.4343    0.7912   -0.4515 C.ar      1 RES1    0.0000
      4 C4         7.8729    1.4386    0.6810 C.ar      1 RES1    0.0000
      5 C5         9.0419    1.0804    1.3307 C.ar      1 RES1    0.0000
      6 C6         9.7700   -0.0257    0.8251 C.ar      1 RES1    0.0000
      7 O1         8.4675   -1.9642   -2.5024 O.2       1 RES1    0.0000
      8 O2         6.7760   -0.6574   -2.7271 O.2       1 RES1    0.0000
      9 O3         6.3087    1.2374   -1.0199 O.3       1 RES1    0.0000
     10 O4         9.4053    1.8173    2.3845 O.3       1 RES1    0.0000
     11 O5        11.5943   -1.4200    0.9695 O.2       1 RES1    0.0000
     12 O6        11.4354    0.1675    2.4081 O.2       1 RES1    0.0000
     13 N1         7.7999   -1.0236   -2.1315 N.pl3     1 RES1    0.0000
     14 N2        11.0029   -0.4658    1.4353 N.pl3     1 RES1    0.0000
     15 H1         9.8342   -1.3682   -0.6267 H         1 RES1    0.0000
     16 H2         7.3999    2.1428    1.0130 H         1 RES1    0.0000
     17 H3         6.1980    0.7595   -1.7617 H         1 RES1    0.0000
     18 H4        10.1077    1.5291    2.6716 H         1 RES1    0.0000
@<TRIPOS>BOND
     1    1    2 ar
     2    2    3 ar
     3    3    4 ar
     4    4    5 ar
     5    5    6 ar
     6    6    1 ar
     7    7   13 2
     8    8   13 2
     9    9    3 1
    10   10    5 1
    11   11   14 2
    12   12   14 2
    13   13    2 1
    14   14    6 1
    15   15    1 1
    16   16    4 1
    17   17    9 1
    18   18   10 1
@<TRIPOS>SUBSTRUCTURE
     1 RES1 1

@<TRIPOS>CRYSIN
  11.7090    5.0300   12.5870  90.0000  91.2700  90.0000  14 1

