# MOL2 file generated by ConQuest
# Please check atom types

@<TRIPOS>MOLECULE
ZZZMUC08
    42    42     2
SMALL
NO_CHARGES
****
Generated from CSD

@<TRIPOS>ATOM
      1 O1         7.4414    9.1720    8.7105 O.2       1 RES1    0.0000
      2 O2         5.8055    7.7942    9.1028 O.2       1 RES1    0.0000
      3 O3         5.6099    4.7471    5.0370 O.2       1 RES1    0.0000
      4 O4         6.9246    3.0851    5.5436 O.2       1 RES1    0.0000
      5 O5        11.4266    4.5575    7.5911 O.2       1 RES1    0.0000
      6 O6        11.6362    6.5537    6.7595 O.2       1 RES1    0.0000
      7 O7         3.5870    6.1006    1.1401 O.2       2 RES2    0.0000
      8 O8         2.0357    4.6662    0.6159 O.2       2 RES2    0.0000
      9 O9         1.7078    1.7026    4.6891 O.2       2 RES2    0.0000
     10 O10        3.1942    0.1257    4.5303 O.2       2 RES2    0.0000
     11 O11        7.8880    3.4372    2.7865 O.2       2 RES2    0.0000
     12 O12        7.5311    1.3549    2.2904 O.2       2 RES2    0.0000
     13 N1         6.8997    8.0731    8.6191 N.pl3     1 RES1    0.0000
     14 N2         6.5818    4.2621    5.6074 N.pl3     1 RES1    0.0000
     15 N3        10.9718    5.6257    7.2064 N.pl3     1 RES1    0.0000
     16 N4         3.0851    4.9767    1.1687 N.pl3     2 RES2    0.0000
     17 N5         2.7692    1.2485    4.2798 N.pl3     2 RES2    0.0000
     18 N6         7.1505    2.4922    2.5373 N.pl3     2 RES2    0.0000
     19 C1         9.8613    7.7490    8.8446 C.3       1 RES1    0.0000
     20 C2         8.9898    6.8869    7.9756 C.ar      1 RES1    0.0000
     21 C3         7.5974    7.0171    7.8703 C.ar      1 RES1    0.0000
     22 C4         6.7929    6.1988    7.0941 C.ar      1 RES1    0.0000
     23 C5         7.4035    5.1573    6.4259 C.ar      1 RES1    0.0000
     24 C6         8.7652    4.9117    6.5052 C.ar      1 RES1    0.0000
     25 C7         9.5068    5.8123    7.2466 C.ar      1 RES1    0.0000
     26 C8         6.0173    4.6351    0.8962 C.3       2 RES2    0.0000
     27 C9         5.1748    3.7909    1.8102 C.ar      2 RES2    0.0000
     28 C10        3.7847    3.9333    1.9339 C.ar      2 RES2    0.0000
     29 C11        2.9806    3.1386    2.7352 C.ar      2 RES2    0.0000
     30 C12        3.5929    2.1151    3.4302 C.ar      2 RES2    0.0000
     31 C13        4.9530    1.8656    3.3393 C.ar      2 RES2    0.0000
     32 C14        5.6943    2.7302    2.5574 C.ar      2 RES2    0.0000
     33 H1        10.6732    7.2649    9.0834 H         1 RES1    0.0000
     34 H2        10.1118    8.6105    8.3865 H         1 RES1    0.0000
     35 H3         9.4068    7.9769    9.6550 H         1 RES1    0.0000
     36 H4         5.8556    6.3478    7.0259 H         1 RES1    0.0000
     37 H5         9.1742    4.1936    6.0275 H         1 RES1    0.0000
     38 H6         6.2899    5.4427    1.3488 H         2 RES2    0.0000
     39 H7         6.7799    4.1333    0.5912 H         2 RES2    0.0000
     40 H8         5.5412    4.8694    0.0959 H         2 RES2    0.0000
     41 H9         2.0295    3.2885    2.7877 H         2 RES2    0.0000
     42 H10        5.3378    1.1404    3.8213 H         2 RES2    0.0000
@<TRIPOS>BOND
     1    1   13 2
     2    2   13 2
     3    3   14 2
     4    4   14 2
     5    5   15 2
     6    6   15 2
     7    7   16 2
     8    8   16 2
     9    9   17 2
    10   10   17 2
    11   11   18 2
    12   12   18 2
    13   13   21 1
    14   14   23 1
    15   15   25 1
    16   16   28 1
    17   17   30 1
    18   18   32 1
    19   19   20 1
    20   20   21 ar
    21   21   22 ar
    22   22   23 ar
    23   23   24 ar
    24   24   25 ar
    25   25   20 ar
    26   26   27 1
    27   27   28 ar
    28   28   29 ar
    29   29   30 ar
    30   30   31 ar
    31   31   32 ar
    32   32   27 ar
    33   33   19 1
    34   34   19 1
    35   35   19 1
    36   36   22 1
    37   37   24 1
    38   38   26 1
    39   39   26 1
    40   40   26 1
    41   41   29 1
    42   42   31 1
@<TRIPOS>SUBSTRUCTURE
     1 RES1 1
     2 RES2 7

@<TRIPOS>CRYSIN
  14.9113    6.0340   20.8815  90.0000 110.3650  90.0000  14 2

