# MOL2 file generated by ConQuest
# Please check atom types

@<TRIPOS>MOLECULE
ZZZMUC06
    42    42     2
SMALL
NO_CHARGES
****
Generated from CSD

@<TRIPOS>ATOM
      1 O1         9.3419    1.7176    1.5794 O.2       1 RES1    0.0000
      2 O2         8.2928    2.9388    3.0241 O.2       1 RES1    0.0000
      3 O3         5.6105   -0.0939   -1.2979 O.2       1 RES1    0.0000
      4 O4         5.1920    1.3194   -2.8699 O.2       1 RES1    0.0000
      5 O5         5.2858    6.4104    0.2973 O.2       1 RES1    0.0000
      6 O6         5.8045    6.1580   -1.7762 O.2       1 RES1    0.0000
      7 O7        -0.2468    3.7983    0.0189 O.2       2 RES2    0.0000
      8 O8        -0.0616    2.1620   -1.3758 O.2       2 RES2    0.0000
      9 O9         3.8642    3.4506   -4.3384 O.2       2 RES2    0.0000
     10 O10        2.9638    4.4909   -6.0085 O.2       2 RES2    0.0000
     11 O11       -0.6553    7.8784   -4.6375 O.2       2 RES2    0.0000
     12 O12       -0.0025    8.4308   -2.6554 O.2       2 RES2    0.0000
     13 N1         8.4491    2.4761    1.8962 N.pl3     1 RES1    0.0000
     14 N2         5.5945    1.0347   -1.7628 N.pl3     1 RES1    0.0000
     15 N3         5.7443    5.7738   -0.6343 N.pl3     1 RES1    0.0000
     16 N4         0.0219    3.3384   -1.0822 N.pl3     2 RES2    0.0000
     17 N5         2.9972    4.1586   -4.8374 N.pl3     2 RES2    0.0000
     18 N6        -0.1516    7.6316   -3.5627 N.pl3     2 RES2    0.0000
     19 C1         7.4731    2.8491    0.8579 C.ar      1 RES1    0.0000
     20 C2         6.9971    1.8031    0.0847 C.ar      1 RES1    0.0000
     21 C3         6.1235    2.1214   -0.9249 C.ar      1 RES1    0.0000
     22 C4         5.7368    3.4127   -1.1985 C.ar      1 RES1    0.0000
     23 C5         6.2248    4.3998   -0.3595 C.ar      1 RES1    0.0000
     24 C6         7.1040    4.1895    0.6952 C.ar      1 RES1    0.0000
     25 C7         7.6806    5.3139    1.5215 C.3       1 RES1    0.0000
     26 C8         0.4773    4.2708   -2.1308 C.ar      2 RES2    0.0000
     27 C9         1.5070    3.8025   -2.9290 C.ar      2 RES2    0.0000
     28 C10        1.9199    4.6171   -3.9630 C.ar      2 RES2    0.0000
     29 C11        1.3482    5.8383   -4.2214 C.ar      2 RES2    0.0000
     30 C12        0.3685    6.2604   -3.3458 C.ar      2 RES2    0.0000
     31 C13       -0.1324    5.5187   -2.2734 C.ar      2 RES2    0.0000
     32 C14       -1.2734    6.0038   -1.4313 C.3       2 RES2    0.0000
     33 H1         7.9207    6.0879    0.9585 H         1 RES1    0.0000
     34 H2         7.2137    5.4093    2.2807 H         1 RES1    0.0000
     35 H3         8.6286    5.2088    1.7707 H         1 RES1    0.0000
     36 H4         7.2962    0.8847    0.2547 H         1 RES1    0.0000
     37 H5         5.1281    3.5263   -1.9437 H         1 RES1    0.0000
     38 H6         1.8970    2.9206   -2.7694 H         2 RES2    0.0000
     39 H7         1.7211    6.3725   -4.9836 H         2 RES2    0.0000
     40 H8        -1.8174    6.5842   -1.9248 H         2 RES2    0.0000
     41 H9        -0.9618    6.4132   -0.6355 H         2 RES2    0.0000
     42 H10       -1.8942    5.2733   -1.2034 H         2 RES2    0.0000
@<TRIPOS>BOND
     1    1   13 2
     2    2   13 2
     3    3   14 2
     4    4   14 2
     5    5   15 2
     6    6   15 2
     7    7   16 2
     8    8   16 2
     9    9   17 2
    10   10   17 2
    11   11   18 2
    12   12   18 2
    13   13   19 1
    14   14   21 1
    15   15   23 1
    16   16   26 1
    17   17   28 1
    18   18   30 1
    19   19   20 ar
    20   20   21 ar
    21   21   22 ar
    22   22   23 ar
    23   23   24 ar
    24   24   19 ar
    25   25   24 1
    26   26   27 ar
    27   27   28 ar
    28   28   29 ar
    29   29   30 ar
    30   30   31 ar
    31   31   26 ar
    32   32   31 1
    33   33   25 1
    34   34   25 1
    35   35   25 1
    36   36   20 1
    37   37   22 1
    38   38   27 1
    39   39   29 1
    40   40   32 1
    41   41   32 1
    42   42   32 1
@<TRIPOS>SUBSTRUCTURE
     1 RES1 1
     2 RES2 7

@<TRIPOS>CRYSIN
  21.4070   15.0190    6.0932  90.0000  90.0000 111.0050  14 3

