# MOL2 file generated by ConQuest
# Please check atom types

@<TRIPOS>MOLECULE
ZZZMUC01
    42    42     2
SMALL
NO_CHARGES
****
Generated from CSD

@<TRIPOS>ATOM
      1 C1         4.2126    0.7902    3.1431 C.ar      1 RES1    0.0000
      2 C2         5.6068    0.6318    3.0320 C.ar      1 RES1    0.0000
      3 C3         6.3904    1.3909    2.1993 C.ar      1 RES1    0.0000
      4 C4         5.8072    2.4155    1.4923 C.ar      1 RES1    0.0000
      5 C5         4.4240    2.6923    1.6082 C.ar      1 RES1    0.0000
      6 C6         3.7007    1.8458    2.3968 C.ar      1 RES1    0.0000
      7 C7         3.3742   -0.0217    4.0933 C.3       1 RES1    0.0000
      8 N1         6.2626   -0.4232    3.7784 N.pl3     1 RES1    0.0000
      9 N2         6.6035    3.2296    0.6065 N.pl3     1 RES1    0.0000
     10 N3         2.2293    2.1118    2.4425 N.pl3     1 RES1    0.0000
     11 O1         5.7730   -1.5362    3.8321 O.2       1 RES1    0.0000
     12 O2         7.3316   -0.1095    4.3495 O.2       1 RES1    0.0000
     13 O3         7.6502    2.8045    0.2156 O.2       1 RES1    0.0000
     14 O4         6.2133    4.3471    0.3321 O.2       1 RES1    0.0000
     15 O5         1.8318    3.2379    2.6637 O.2       1 RES1    0.0000
     16 O6         1.4763    1.1897    2.2261 O.2       1 RES1    0.0000
     17 H1         4.0599   -0.2293    4.8373 H         1 RES1    0.0000
     18 H2         3.2703   -0.9284    3.5182 H         1 RES1    0.0000
     19 H3         2.8744    0.6507    4.5901 H         1 RES1    0.0000
     20 H4         7.3114    1.2250    2.2155 H         1 RES1    0.0000
     21 H5         4.1486    3.3160    1.1067 H         1 RES1    0.0000
     22 C8         7.8949    2.2575   -3.1513 C.ar      2 RES2    0.0000
     23 C9         9.2601    2.3958   -3.0130 C.ar      2 RES2    0.0000
     24 C10       10.0771    1.6021   -2.2223 C.ar      2 RES2    0.0000
     25 C11        9.4425    0.5858   -1.5509 C.ar      2 RES2    0.0000
     26 C12        8.1262    0.3262   -1.6352 C.ar      2 RES2    0.0000
     27 C13        7.3775    1.1967   -2.4066 C.ar      2 RES2    0.0000
     28 C14        7.0114    3.1055   -4.0288 C.3       2 RES2    0.0000
     29 N4        10.0018    3.4267   -3.7998 N.pl3     2 RES2    0.0000
     30 N5        10.2960   -0.2898   -0.7134 N.pl3     2 RES2    0.0000
     31 N6         5.9397    0.9506   -2.4014 N.pl3     2 RES2    0.0000
     32 O7         9.4850    4.5481   -3.8527 O.2       2 RES2    0.0000
     33 O8        11.0302    3.1249   -4.2908 O.2       2 RES2    0.0000
     34 O9        11.2513    0.1961   -0.1443 O.2       2 RES2    0.0000
     35 O10        9.9408   -1.4644   -0.6027 O.2       2 RES2    0.0000
     36 O11        5.5705   -0.1014   -2.7778 O.2       2 RES2    0.0000
     37 O12        5.2280    1.8678   -1.9905 O.2       2 RES2    0.0000
     38 H6         7.3679    3.2658   -4.7228 H         2 RES2    0.0000
     39 H7         6.2103    2.5825   -4.2550 H         2 RES2    0.0000
     40 H8         6.4521    3.6457   -3.5666 H         2 RES2    0.0000
     41 H9        11.0619    1.7746   -2.1610 H         2 RES2    0.0000
     42 H10        7.5670   -0.4804   -1.1772 H         2 RES2    0.0000
@<TRIPOS>BOND
     1    1    2 ar
     2    2    3 ar
     3    3    4 ar
     4    4    5 ar
     5    5    6 ar
     6    6    1 ar
     7    7    1 1
     8    8    2 1
     9    9    4 1
    10   10    6 1
    11   11    8 2
    12   12    8 2
    13   13    9 2
    14   14    9 2
    15   15   10 2
    16   16   10 2
    17   17    7 1
    18   18    7 1
    19   19    7 1
    20   20    3 1
    21   21    5 1
    22   22   23 ar
    23   23   24 ar
    24   24   25 ar
    25   25   26 ar
    26   26   27 ar
    27   27   22 ar
    28   28   22 1
    29   29   23 1
    30   30   25 1
    31   31   27 1
    32   32   29 2
    33   33   29 2
    34   34   30 2
    35   35   30 2
    36   36   31 2
    37   37   31 2
    38   38   28 1
    39   39   28 1
    40   40   28 1
    41   41   24 1
    42   42   26 1
@<TRIPOS>SUBSTRUCTURE
     1 RES1 1
     2 RES2 22

@<TRIPOS>CRYSIN
  14.9910    6.0770   20.0170  90.0000  90.0000  90.0000  29 1

