# MOL2 file generated by ConQuest
# Please check atom types

@<TRIPOS>MOLECULE
ZZZMGS02
    33    34     1
SMALL
NO_CHARGES
****
Generated from CSD

@<TRIPOS>ATOM
      1 O1         1.2990   -0.0713    1.8947 O.2       1 RES1    0.0000
      2 O2         4.7819    3.5009    3.7989 O.2       1 RES1    0.0000
      3 N1         2.8933    2.3307    2.3885 N.pl3     1 RES1    0.0000
      4 H1         3.6978    2.6547    2.3757 H         1 RES1    0.0000
      5 O3        -0.6738    0.5982    2.5357 O.2       1 RES1    0.0000
      6 N2         0.4898    1.4347    7.4045 N.pl3     1 RES1    0.0000
      7 C1         1.1652    1.2823    3.7587 C.ar      1 RES1    0.0000
      8 O4         4.6506    3.5498    5.9516 O.2       1 RES1    0.0000
      9 O5        -0.5773    0.8465    7.4263 O.2       1 RES1    0.0000
     10 N3         4.2033    3.2120    4.8580 N.pl3     1 RES1    0.0000
     11 N4         0.5521    0.5554    2.6325 N.pl3     1 RES1    0.0000
     12 C2         2.3651    2.2479    6.0484 C.ar      1 RES1    0.0000
     13 H2         2.7848    2.5551    6.8433 H         1 RES1    0.0000
     14 O6         1.0304    1.8960    8.3959 O.2       1 RES1    0.0000
     15 C3         2.9635    2.4524    4.8233 C.ar      1 RES1    0.0000
     16 C4         1.1578    1.5967    6.1113 C.ar      1 RES1    0.0000
     17 C5         0.5538    1.0884    4.9684 C.ar      1 RES1    0.0000
     18 H3        -0.2680    0.6148    5.0249 H         1 RES1    0.0000
     19 C6         2.3716    2.0317    3.5841 C.ar      1 RES1    0.0000
     20 C7         2.8734    1.9552   -0.0039 C.ar      1 RES1    0.0000
     21 H4         3.7171    1.5247    0.0693 H         1 RES1    0.0000
     22 C8         0.4061    3.2052   -0.2299 C.ar      1 RES1    0.0000
     23 H5        -0.4430    3.6257   -0.3005 H         1 RES1    0.0000
     24 C9         1.0497    2.7570   -1.3805 C.ar      1 RES1    0.0000
     25 C10        0.9911    3.0448    1.0248 C.ar      1 RES1    0.0000
     26 H6         0.5489    3.3620    1.8030 H         1 RES1    0.0000
     27 C11        2.2793    2.1276   -1.2444 C.ar      1 RES1    0.0000
     28 H7         2.7246    1.8076   -2.0200 H         1 RES1    0.0000
     29 C12        2.2215    2.4184    1.1288 C.ar      1 RES1    0.0000
     30 C13        0.4242    2.9795   -2.7404 C.3       1 RES1    0.0000
     31 H8         0.5957    3.8999   -3.0319 H         1 RES1    0.0000
     32 H9        -0.5423    2.8293   -2.6839 H         1 RES1    0.0000
     33 H10        0.8145    2.3543   -3.3863 H         1 RES1    0.0000
@<TRIPOS>BOND
     1    1   11 2
     2    2   10 2
     3    3    4 1
     4    5   11 2
     5    6    9 2
     6    7   11 1
     7    8   10 2
     8   10   15 1
     9   12   13 1
    10   14    6 2
    11   15   12 ar
    12   16    6 1
    13   17    7 ar
    14   18   17 1
    15   19    3 1
    16   20   21 1
    17   22   23 1
    18   24   22 ar
    19   25   22 ar
    20   26   25 1
    21   27   20 ar
    22   28   27 1
    23   29    3 1
    24   30   24 1
    25   31   30 1
    26   32   30 1
    27   33   30 1
    28    7   19 ar
    29   12   16 ar
    30   15   19 ar
    31   16   17 ar
    32   20   29 ar
    33   24   27 ar
    34   25   29 ar
@<TRIPOS>SUBSTRUCTURE
     1 RES1 1

@<TRIPOS>CRYSIN
   6.0603   17.4650   13.1320  90.0000 102.0710  90.0000  14 2

