# MOL2 file generated by ConQuest
# Please check atom types

@<TRIPOS>MOLECULE
ZZZMUC09
    42    42     2
SMALL
NO_CHARGES
****
Generated from CSD

@<TRIPOS>ATOM
      1 O1         9.4051   -1.5858   10.0860 O.2       1 RES1    0.0000
      2 O2        11.0203   -0.1925    9.6751 O.2       1 RES1    0.0000
      3 O3        11.2181    2.8179   13.7742 O.2       1 RES1    0.0000
      4 O4         9.9072    4.4821   13.2765 O.2       1 RES1    0.0000
      5 O5         5.4183    3.0321   11.2160 O.2       1 RES1    0.0000
      6 O6         5.1902    1.0270   12.0131 O.2       1 RES1    0.0000
      7 O7         1.8245   -0.1146   16.5589 O.2       2 RES2    0.0000
      8 O8         1.4707    1.9526   16.0229 O.2       2 RES2    0.0000
      9 O9         6.1645   -1.3390   14.2859 O.2       2 RES2    0.0000
     10 O10        7.6536    0.2311   14.1422 O.2       2 RES2    0.0000
     11 O11        7.3232    3.2011   18.2081 O.2       2 RES2    0.0000
     12 O12        5.7584    4.6215   17.6961 O.2       2 RES2    0.0000
     13 N1         9.9377   -0.4815   10.1710 N.pl3     1 RES1    0.0000
     14 N2        10.2445    3.3103   13.2063 N.pl3     1 RES1    0.0000
     15 N3         5.8657    1.9544   11.5866 N.pl3     1 RES1    0.0000
     16 N4         2.2070    1.0149   16.2925 N.pl3     2 RES2    0.0000
     17 N5         6.5907   -0.2148   14.5465 N.pl3     2 RES2    0.0000
     18 N6         6.2647    3.5022   17.6632 N.pl3     2 RES2    0.0000
     19 C1         9.2329    0.5690   10.9257 C.ar      1 RES1    0.0000
     20 C2        10.0352    1.3830   11.7088 C.ar      1 RES1    0.0000
     21 C3         9.4282    2.4136   12.3832 C.ar      1 RES1    0.0000
     22 C4         8.0705    2.6604   12.2996 C.ar      1 RES1    0.0000
     23 C5         7.3299    1.7704   11.5551 C.ar      1 RES1    0.0000
     24 C6         7.8482    0.6981   10.8183 C.ar      1 RES1    0.0000
     25 C7         6.9809   -0.1599    9.9423 C.3       1 RES1    0.0000
     26 C8         3.6680    1.2521   16.2736 C.ar      2 RES2    0.0000
     27 C9         4.4081    0.3868   15.4923 C.ar      2 RES2    0.0000
     28 C10        5.7664    0.6420   15.4041 C.ar      2 RES2    0.0000
     29 C11        6.3758    1.6654   16.0961 C.ar      2 RES2    0.0000
     30 C12        5.5695    2.4523   16.8939 C.ar      2 RES2    0.0000
     31 C13        4.1845    2.3111   17.0177 C.ar      2 RES2    0.0000
     32 C14        3.3309    3.1516   17.9285 C.3       2 RES2    0.0000
     33 H1        11.0185    1.2068   11.7509 H         1 RES1    0.0000
     34 H2         7.6190    3.3007   12.8333 H         1 RES1    0.0000
     35 H3         7.3655   -0.3922    9.1355 H         1 RES1    0.0000
     36 H4         6.7542   -1.0680   10.4107 H         1 RES1    0.0000
     37 H5         6.1578    0.3319    9.7121 H         1 RES1    0.0000
     38 H6         4.0406   -0.4164   15.0217 H         2 RES2    0.0000
     39 H7         7.2776    1.8344   16.0530 H         2 RES2    0.0000
     40 H8         3.8468    3.4213   18.6980 H         2 RES2    0.0000
     41 H9         2.5198    2.6972   18.2296 H         2 RES2    0.0000
     42 H10        3.0864    3.9885   17.4306 H         2 RES2    0.0000
@<TRIPOS>BOND
     1    1   13 2
     2    2   13 2
     3    3   14 2
     4    4   14 2
     5    5   15 2
     6    6   15 2
     7    7   16 2
     8    8   16 2
     9    9   17 2
    10   10   17 2
    11   11   18 2
    12   12   18 2
    13   13   19 1
    14   14   21 1
    15   15   23 1
    16   16   26 1
    17   17   28 1
    18   18   30 1
    19   19   20 ar
    20   20   21 ar
    21   21   22 ar
    22   22   23 ar
    23   23   24 ar
    24   24   19 ar
    25   25   24 1
    26   26   27 ar
    27   27   28 ar
    28   28   29 ar
    29   29   30 ar
    30   30   31 ar
    31   31   26 ar
    32   32   31 1
    33   33   20 1
    34   34   22 1
    35   35   25 1
    36   36   25 1
    37   37   25 1
    38   38   27 1
    39   39   29 1
    40   40   32 1
    41   41   32 1
    42   42   32 1
@<TRIPOS>SUBSTRUCTURE
     1 RES1 1
     2 RES2 7

@<TRIPOS>CRYSIN
  14.9100    6.0341   19.6800  90.0000  90.0000  90.0000  29 1

