# MOL2 file generated by ConQuest
# Please check atom types

@<TRIPOS>MOLECULE
ZZZMUC05
    42    42     2
SMALL
NO_CHARGES
****
Generated from CSD

@<TRIPOS>ATOM
      1 O1         5.3910    0.1922    3.1531 O.2       1 RES1    0.0000
      2 O2         5.9301    1.7055    4.5773 O.2       1 RES1    0.0000
      3 O3         9.5195   -0.1621    0.2555 O.2       1 RES1    0.0000
      4 O4         9.4052    1.3046   -1.3074 O.2       1 RES1    0.0000
      5 O5         6.9983    5.6899   -0.1582 O.2       1 RES1    0.0000
      6 O6         7.5374    6.0217    1.8531 O.2       1 RES1    0.0000
      7 O7         2.4089    5.6029    3.1945 O.2       2 RES2    0.0000
      8 O8         1.7436    5.2380    1.1620 O.2       2 RES2    0.0000
      9 O9         3.6014    9.4822   -1.5063 O.2       2 RES2    0.0000
     10 O10        4.0302   11.0676   -0.0876 O.2       2 RES2    0.0000
     11 O11       -0.1363   11.2838    2.8246 O.2       2 RES2    0.0000
     12 O12        0.3507    9.9761    4.4982 O.2       2 RES2    0.0000
     13 N1         5.9642    1.2161    3.4591 N.pl3     1 RES1    0.0000
     14 N2         9.1387    0.9098   -0.2062 N.pl3     1 RES1    0.0000
     15 N3         7.3049    5.2621    0.9582 N.pl3     1 RES1    0.0000
     16 N4         0.4429   10.3109    3.3375 N.pl3     2 RES2    0.0000
     17 N5         3.5272    9.9957   -0.4003 N.pl3     2 RES2    0.0000
     18 N6         2.1364    5.9391    2.1049 N.pl3     2 RES2    0.0000
     19 C1         6.7298    1.9127    2.4182 C.ar      1 RES1    0.0000
     20 C2         7.5695    1.1020    1.6401 C.ar      1 RES1    0.0000
     21 C3         8.2489    1.7145    0.6388 C.ar      1 RES1    0.0000
     22 C4         8.1647    3.0612    0.3595 C.ar      1 RES1    0.0000
     23 C5         7.3550    3.8073    1.1875 C.ar      1 RES1    0.0000
     24 C6         6.5935    3.2818    2.2503 C.ar      1 RES1    0.0000
     25 C7         5.7037    4.2081    3.0661 C.3       1 RES1    0.0000
     26 C8         3.8338    7.1387   -0.0803 C.3       2 RES2    0.0000
     27 C9         2.8839    7.9043    0.7884 C.ar      2 RES2    0.0000
     28 C10        2.1524    7.3909    1.8452 C.ar      2 RES2    0.0000
     29 C11        1.3808    8.1446    2.7273 C.ar      2 RES2    0.0000
     30 C12        1.2726    9.4807    2.4632 C.ar      2 RES2    0.0000
     31 C13        1.9760   10.0917    1.4339 C.ar      2 RES2    0.0000
     32 C14        2.7637    9.2945    0.6455 C.ar      2 RES2    0.0000
     33 H1         6.2408    4.2727    3.8625 H         1 RES1    0.0000
     34 H2         4.9161    3.6782    3.2608 H         1 RES1    0.0000
     35 H3         5.2968    4.9393    2.5004 H         1 RES1    0.0000
     36 H4         8.6477    3.5701   -0.4471 H         1 RES1    0.0000
     37 H5         7.5695    0.0255    1.8853 H         1 RES1    0.0000
     38 H6         4.0543    6.3835    0.5414 H         2 RES2    0.0000
     39 H7         4.7116    7.3534   -0.2245 H         2 RES2    0.0000
     40 H8         3.7417    7.0111   -0.9868 H         2 RES2    0.0000
     41 H9         1.1183    7.9179    3.6927 H         2 RES2    0.0000
     42 H10        2.0081   11.0240    1.4442 H         2 RES2    0.0000
@<TRIPOS>BOND
     1    1   13 2
     2    2   13 2
     3    3   14 2
     4    4   14 2
     5    5   15 2
     6    6   15 2
     7    7   18 2
     8    8   18 2
     9    9   17 2
    10   10   17 2
    11   11   16 2
    12   12   16 2
    13   13   19 1
    14   14   21 1
    15   15   23 1
    16   16   30 1
    17   17   32 1
    18   18   28 1
    19   19   20 ar
    20   20   21 ar
    21   21   22 ar
    22   22   23 ar
    23   23   24 ar
    24   24   19 ar
    25   25   24 1
    26   26   27 1
    27   27   28 ar
    28   28   29 ar
    29   29   30 ar
    30   30   31 ar
    31   31   32 ar
    32   32   27 ar
    33   33   25 1
    34   34   25 1
    35   35   25 1
    36   36   22 1
    37   37   20 1
    38   38   26 1
    39   39   26 1
    40   40   26 1
    41   41   29 1
    42   42   31 1
@<TRIPOS>SUBSTRUCTURE
     1 RES1 1
     2 RES2 7

@<TRIPOS>CRYSIN
  20.0410   15.0130    6.0836  90.0000  90.0000  90.0000  29 2

