# MOL2 file generated by ConQuest
# Please check atom types

@<TRIPOS>MOLECULE
ZZZMBE02
    21    21     1
SMALL
NO_CHARGES
****
Generated from CSD

@<TRIPOS>ATOM
      1 C1         1.2160    0.1873    2.7766 C.ar      1 RES1    0.0000
      2 C2         1.6512    0.1684    4.0952 C.ar      1 RES1    0.0000
      3 H1         2.0266   -0.6016    4.4576 H         1 RES1    0.0000
      4 C3         1.5177    1.3015    4.8494 C.ar      1 RES1    0.0000
      5 C4         0.9845    2.4781    4.3609 C.ar      1 RES1    0.0000
      6 H2         0.9068    3.2319    4.8997 H         1 RES1    0.0000
      7 C5         0.5719    2.4970    3.0467 C.ar      1 RES1    0.0000
      8 H3         0.2188    3.2764    2.6843 H         1 RES1    0.0000
      9 C6         0.6781    1.3762    2.2735 C.ar      1 RES1    0.0000
     10 H4         0.3858    1.4046    1.3919 H         1 RES1    0.0000
     11 N1         1.9766    1.2826    6.2467 N.pl3     1 RES1    0.0000
     12 C7         1.3157   -0.9865    1.9089 C.2       1 RES1    0.0000
     13 H5         0.9906   -0.8815    1.0446 H         1 RES1    0.0000
     14 C8         1.8104   -2.1773    2.2014 C.2       1 RES1    0.0000
     15 H6         2.1530   -2.3258    3.0535 H         1 RES1    0.0000
     16 C9         1.8369   -3.2669    1.2319 C.2       1 RES1    0.0000
     17 O1         1.7201    2.2416    6.9517 O.2       1 RES1    0.0000
     18 O2         2.5993    0.3187    6.6364 O.2       1 RES1    0.0000
     19 O3         1.3449   -3.1194    0.0991 O.2       1 RES1    0.0000
     20 O4         2.3790   -4.3528    1.6332 O.3       1 RES1    0.0000
     21 H7         2.3116   -4.9240    1.0494 H         1 RES1    0.0000
@<TRIPOS>BOND
     1    1    2 ar
     2    2    3 1
     3    4    2 ar
     4    5    4 ar
     5    6    5 1
     6    7    5 ar
     7    8    7 1
     8    9    1 ar
     9   10    9 1
    10   11    4 1
    11   12    1 1
    12   13   12 1
    13   14   12 2
    14   15   14 1
    15   16   14 1
    16   17   11 2
    17   18   11 2
    18   19   16 2
    19   20   16 1
    20   21   20 1
    21    7    9 ar
@<TRIPOS>SUBSTRUCTURE
     1 RES1 1

@<TRIPOS>CRYSIN
   3.7756    9.4584   24.2950  90.0000  90.8750  90.0000 231 1

