# MOL2 file generated by ConQuest
# Please check atom types

@<TRIPOS>MOLECULE
ZZZMGS03
    33    34     1
SMALL
NO_CHARGES
****
Generated from CSD

@<TRIPOS>ATOM
      1 O1        10.2165   -1.3785   10.0330 O.2       1 RES1    0.0000
      2 O2         8.4324   -1.3369   11.2279 O.2       1 RES1    0.0000
      3 O3         4.9687    2.1915    9.0463 O.2       1 RES1    0.0000
      4 O4         5.9949    4.0999    9.2055 O.2       1 RES1    0.0000
      5 O5        10.0279    3.5546    6.4779 O.2       1 RES1    0.0000
      6 O6        11.2454    1.7740    6.7064 O.2       1 RES1    0.0000
      7 N1         9.1567   -0.8611   10.3483 N.pl3     1 RES1    0.0000
      8 N2         5.9774    2.8713    9.1498 N.pl3     1 RES1    0.0000
      9 N3        10.2787    2.4686    6.9990 N.pl3     1 RES1    0.0000
     10 N4         6.6846    0.5781   10.9164 N.pl3     1 RES1    0.0000
     11 H1         6.9454   -0.1844   11.2789 H         1 RES1    0.0000
     12 C1         9.6358    0.8124    8.6915 C.ar      1 RES1    0.0000
     13 H2        10.4366    0.3336    8.5131 H         1 RES1    0.0000
     14 C2         8.7399    0.3497    9.6403 C.ar      1 RES1    0.0000
     15 C3         7.5046    1.0175    9.9550 C.ar      1 RES1    0.0000
     16 C4         7.2719    2.1725    9.1465 C.ar      1 RES1    0.0000
     17 C5         8.1733    2.6631    8.2326 C.ar      1 RES1    0.0000
     18 H3         7.9890    3.4654    7.7578 H         1 RES1    0.0000
     19 C6         9.3539    1.9732    8.0108 C.ar      1 RES1    0.0000
     20 C7         5.5649    1.2156   11.5373 C.ar      1 RES1    0.0000
     21 C8         4.3775    0.5049   11.6408 C.ar      1 RES1    0.0000
     22 H4         4.2979   -0.3509   11.2360 H         1 RES1    0.0000
     23 C9         3.3096    1.0479   12.3366 C.ar      1 RES1    0.0000
     24 H5         2.4995    0.5561   12.4068 H         1 RES1    0.0000
     25 C10        3.4022    2.2986   12.9335 C.ar      1 RES1    0.0000
     26 C11        4.5995    2.9991   12.8025 C.ar      1 RES1    0.0000
     27 H6         4.6732    3.8632   13.1902 H         1 RES1    0.0000
     28 C12        5.6858    2.4692   12.1219 C.ar      1 RES1    0.0000
     29 H7         6.4987    2.9557   12.0564 H         1 RES1    0.0000
     30 C13        2.2586    2.8837   13.7267 C.3       1 RES1    0.0000
     31 H8         1.4523    2.3479   13.5790 H         1 RES1    0.0000
     32 H9         2.0966    3.8050   13.4356 H         1 RES1    0.0000
     33 H10        2.4861    2.8778   14.6803 H         1 RES1    0.0000
@<TRIPOS>BOND
     1    1    7 2
     2    2    7 2
     3    3    8 2
     4    4    8 2
     5    5    9 2
     6    6    9 2
     7    7   14 1
     8    8   16 1
     9    9   19 1
    10   10   11 1
    11   12   13 1
    12   14   12 ar
    13   15   10 1
    14   16   15 ar
    15   17   16 ar
    16   18   17 1
    17   19   12 ar
    18   20   10 1
    19   21   20 ar
    20   22   21 1
    21   23   21 ar
    22   24   23 1
    23   25   23 ar
    24   26   25 ar
    25   27   26 1
    26   28   20 ar
    27   29   28 1
    28   30   25 1
    29   31   30 1
    30   32   30 1
    31   33   30 1
    32   14   15 ar
    33   17   19 ar
    34   26   28 ar
@<TRIPOS>SUBSTRUCTURE
     1 RES1 1

@<TRIPOS>CRYSIN
  15.2510    5.9471   16.2880  90.0000 114.8300  90.0000  14 1

