# MOL2 file generated by ConQuest
# Please check atom types

@<TRIPOS>MOLECULE
ZZZNQQ01
    21    21     1
SMALL
NO_CHARGES
****
Generated from CSD

@<TRIPOS>ATOM
      1 O1         2.6864    2.1929   13.4360 O.2       1 RES1    0.0000
      2 O2         1.5772    2.6987   15.2214 O.2       1 RES1    0.0000
      3 O3         2.1613    0.9826    9.4425 O.3       1 RES1    0.0000
      4 O4         2.9782    2.3910    7.8733 O.2       1 RES1    0.0000
      5 N1         1.9374    2.9258   14.0685 N.pl3     1 RES1    0.0000
      6 C1         1.2846    4.2097   12.0445 C.ar      1 RES1    0.0000
      7 C2         1.3903    4.1355   13.4072 C.ar      1 RES1    0.0000
      8 C3         1.0635    5.1704   14.2494 C.ar      1 RES1    0.0000
      9 C4         0.5802    6.3595   13.6970 C.ar      1 RES1    0.0000
     10 C5         0.4701    6.4536   12.3551 C.ar      1 RES1    0.0000
     11 C6         0.7806    5.4342   11.5225 C.ar      1 RES1    0.0000
     12 C7         1.6001    3.1126   11.1174 C.2       1 RES1    0.0000
     13 C8         2.0998    3.2922    9.8652 C.2       1 RES1    0.0000
     14 C9         2.4401    2.2127    8.9445 C.2       1 RES1    0.0000
     15 H1         1.1638    5.0798   15.1909 H         1 RES1    0.0000
     16 H2         0.3340    7.0874   14.2558 H         1 RES1    0.0000
     17 H3         0.1615    7.2699   11.9805 H         1 RES1    0.0000
     18 H4         0.6618    5.5354   10.5858 H         1 RES1    0.0000
     19 H5         1.4460    2.2227   11.4104 H         1 RES1    0.0000
     20 H6         2.2386    4.1843    9.5706 H         1 RES1    0.0000
     21 H7         2.4479    0.2547    8.9990 H         1 RES1    0.0000
@<TRIPOS>BOND
     1    1    5 2
     2    2    5 2
     3    3   14 1
     4    4   14 2
     5    5    7 1
     6    6    7 ar
     7    7    8 ar
     8    8    9 ar
     9    9   10 ar
    10   10   11 ar
    11   11    6 ar
    12   12    6 1
    13   13   12 2
    14   14   13 1
    15   15    8 1
    16   16    9 1
    17   17   10 1
    18   18   11 1
    19   19   12 1
    20   20   13 1
    21   21    3 1
@<TRIPOS>SUBSTRUCTURE
     1 RES1 1

@<TRIPOS>CRYSIN
   3.6850    7.0740   16.0730  90.0000  94.9780  90.0000   4 1

