# MOL2 file generated by ConQuest
# Please check atom types

@<TRIPOS>MOLECULE
ZZZPGU02
   112   116     4
SMALL
NO_CHARGES
****
Generated from CSD

@<TRIPOS>ATOM
      1 C1         2.5650    4.8532   11.3574 C.ar      1 RES1    0.0000
      2 H1         2.2984    5.5488   10.8004 H         1 RES1    0.0000
      3 C2         3.2120    3.7542   10.8174 C.ar      1 RES1    0.0000
      4 C3         3.2223    4.0159    6.9321 C.ar      1 RES1    0.0000
      5 C4         2.7228    3.8958   13.5260 C.ar      1 RES1    0.0000
      6 N1         2.4317    3.9406   14.9670 N.pl3     1 RES1    0.0000
      7 C5         2.6668    4.9326    6.0567 C.ar      1 RES1    0.0000
      8 H2         2.1942    5.6588    6.3921 H         1 RES1    0.0000
      9 C6         3.9434    2.9699    6.3978 C.ar      1 RES1    0.0000
     10 H3         4.3419    2.3497    6.9634 H         1 RES1    0.0000
     11 C7         2.8010    4.7870    4.7038 C.ar      1 RES1    0.0000
     12 H4         2.4128    5.4082    4.1326 H         1 RES1    0.0000
     13 C8         2.9966    4.2533    8.4044 C.2       1 RES1    0.0000
     14 H5         2.4711    4.9815    8.6488 H         1 RES1    0.0000
     15 O1         2.8538    3.0687   15.6654 O.2       1 RES1    0.0000
     16 C9         4.0807    2.8345    5.0506 C.ar      1 RES1    0.0000
     17 H6         4.5715    2.1236    4.7095 H         1 RES1    0.0000
     18 C10        3.3864    2.8355   13.0059 C.ar      1 RES1    0.0000
     19 H7         3.6775    2.1541   13.5687 H         1 RES1    0.0000
     20 C11        3.6255    2.7601   11.6928 C.ar      1 RES1    0.0000
     21 H8         4.0815    2.0227   11.3574 H         1 RES1    0.0000
     22 C12        3.4645    3.5403    9.3281 C.2       1 RES1    0.0000
     23 H9         4.0081    2.8274    9.0837 H         1 RES1    0.0000
     24 C13        2.3110    4.9265   12.7103 C.ar      1 RES1    0.0000
     25 H10        1.8676    5.6618   13.0656 H         1 RES1    0.0000
     26 C14        3.5016    3.7359    4.1922 C.ar      1 RES1    0.0000
     27 H11        3.5860    3.6310    3.2714 H         1 RES1    0.0000
     28 O2         1.7484    4.8745   15.3607 O.2       1 RES1    0.0000
     29 C15        6.9519    5.9582    5.7924 C.2       2 RES2    0.0000
     30 H12        6.4154    5.2371    5.5565 H         2 RES2    0.0000
     31 C16        7.1641    6.4318    3.3907 C.ar      2 RES2    0.0000
     32 C17        6.6694    6.2709    0.6935 C.ar      2 RES2    0.0000
     33 C18        6.5053    5.3380    2.8564 C.ar      2 RES2    0.0000
     34 H13        6.2244    4.6535    3.4220 H         2 RES2    0.0000
     35 C19        7.1744    6.1721    7.2789 C.ar      2 RES2    0.0000
     36 C20        6.6095    5.2483    8.1344 C.ar      2 RES2    0.0000
     37 H14        6.1361    4.5283    7.7848 H         2 RES2    0.0000
     38 C21        7.8932    7.2191    7.8246 C.ar      2 RES2    0.0000
     39 H15        8.3011    7.8435    7.2703 H         2 RES2    0.0000
     40 C22        8.0044    7.3363    9.1831 C.ar      2 RES2    0.0000
     41 H16        8.4739    8.0553    9.5413 H         2 RES2    0.0000
     42 C23        6.7373    5.3797    9.4929 C.ar      2 RES2    0.0000
     43 H17        6.3412    4.7544   10.0557 H         2 RES2    0.0000
     44 N2         6.3601    6.2200   -0.7532 N.pl3     2 RES2    0.0000
     45 C24        6.2568    5.2432    1.5035 C.ar      2 RES2    0.0000
     46 H18        5.8212    4.5028    1.1511 H         2 RES2    0.0000
     47 C25        7.4056    6.6365    4.8573 C.2       2 RES2    0.0000
     48 H19        7.9555    7.3495    5.0904 H         2 RES2    0.0000
     49 C26        7.5665    7.4177    2.5068 C.ar      2 RES2    0.0000
     50 H20        8.0162    8.1592    2.8422 H         2 RES2    0.0000
     51 O3         6.7917    7.1183   -1.4515 O.2       2 RES2    0.0000
     52 C27        7.4434    6.4237   10.0301 C.ar      2 RES2    0.0000
     53 H21        7.5389    6.5092   10.9510 H         2 RES2    0.0000
     54 C28        7.3345    7.3485    1.1937 C.ar      2 RES2    0.0000
     55 H22        7.6241    8.0268    0.6253 H         2 RES2    0.0000
     56 O4         5.6950    5.2982   -1.1545 O.2       2 RES2    0.0000
     57 C29        3.2349    9.1084    7.2732 C.ar      3 RES3    0.0000
     58 C30        2.5658    9.9426    2.8536 C.ar      3 RES3    0.0000
     59 H23        2.3015   10.6382    3.4106 H         3 RES3    0.0000
     60 C31        3.2120    8.8416    3.3879 C.ar      3 RES3    0.0000
     61 C32        2.7323    8.9934    0.6907 C.ar      3 RES3    0.0000
     62 C33        2.6581   10.0220    8.1372 C.ar      3 RES3    0.0000
     63 H24        2.1705   10.7360    7.7962 H         3 RES3    0.0000
     64 N3         2.4207    9.0392   -0.7418 N.pl3     3 RES3    0.0000
     65 O5         2.8522    8.1582   -1.4600 O.2       3 RES3    0.0000
     66 C34        3.0006    9.3325    5.7981 C.2       3 RES3    0.0000
     67 H25        2.4640   10.0546    5.5593 H         3 RES3    0.0000
     68 C35        4.0736    7.9331    9.1633 C.ar      3 RES3    0.0000
     69 H26        4.5659    7.2201    9.5015 H         3 RES3    0.0000
     70 C36        3.3864    7.9270    1.2023 C.ar      3 RES3    0.0000
     71 H27        3.6760    7.2466    0.6395 H         3 RES3    0.0000
     72 C37        3.9355    8.0665    7.8246 C.ar      3 RES3    0.0000
     73 H28        4.3261    7.4361    7.2618 H         3 RES3    0.0000
     74 C38        3.4621    8.6348    4.8687 C.2       3 RES3    0.0000
     75 H29        4.0097    7.9219    5.1074 H         3 RES3    0.0000
     76 C39        3.6199    7.8465    2.5182 C.ar      3 RES3    0.0000
     77 H30        4.0681    7.1040    2.8536 H         3 RES3    0.0000
     78 C40        2.3110   10.0190    1.4950 C.ar      3 RES3    0.0000
     79 H31        1.8628   10.7513    1.1369 H         3 RES3    0.0000
     80 C41        3.5000    8.8304   10.0330 C.ar      3 RES3    0.0000
     81 H32        3.5828    8.7285   10.9538 H         3 RES3    0.0000
     82 C42        2.8025    9.8795    9.4958 C.ar      3 RES3    0.0000
     83 H33        2.4183   10.5089   10.0614 H         3 RES3    0.0000
     84 O6         1.7571    9.9609   -1.1602 O.2       3 RES3    0.0000
     85 C43        7.1673    1.3444   10.8174 C.ar      4 RES4    0.0000
     86 C44        7.1767    1.0786    6.9378 C.ar      4 RES4    0.0000
     87 C45        7.8742    2.1215    6.3807 C.ar      4 RES4    0.0000
     88 H34        8.2656    2.7530    6.9407 H         4 RES4    0.0000
     89 C46        6.6797    1.1876   13.5203 C.ar      4 RES4    0.0000
     90 N4         6.3751    1.1580   14.9642 N.pl3     4 RES4    0.0000
     91 C47        6.9479    0.8535    8.4243 C.2       4 RES4    0.0000
     92 H35        6.4154    0.1293    8.6630 H         4 RES4    0.0000
     93 C48        6.6047    0.1579    6.0766 C.ar      4 RES4    0.0000
     94 H36        6.1226   -0.5592    6.4205 H         4 RES4    0.0000
     95 C49        6.5211    0.2383   11.3404 C.ar      4 RES4    0.0000
     96 H37        6.2599   -0.4543   10.7776 H         4 RES4    0.0000
     97 C50        6.7428    0.2933    4.7152 C.ar      4 RES4    0.0000
     98 H38        6.3570   -0.3341    4.1468 H         4 RES4    0.0000
     99 C51        7.3227    2.2631   13.0173 C.ar      4 RES4    0.0000
    100 H39        7.5862    2.9567   13.5772 H         4 RES4    0.0000
    101 O7         6.7996    2.0278   15.6781 O.2       4 RES4    0.0000
    102 C52        8.0099    2.2590    5.0335 C.ar      4 RES4    0.0000
    103 H40        8.4889    2.9761    4.6868 H         4 RES4    0.0000
    104 C53        7.5791    2.3222   11.7042 C.ar      4 RES4    0.0000
    105 H41        8.0533    3.0514   11.3745 H         4 RES4    0.0000
    106 C54        7.4056    1.5491    9.3565 C.2       4 RES4    0.0000
    107 H42        7.9492    2.2651    9.1178 H         4 RES4    0.0000
    108 C55        6.2623    0.1599   12.7018 C.ar      4 RES4    0.0000
    109 H43        5.8134   -0.5734   13.0542 H         4 RES4    0.0000
    110 C56        7.4426    1.3424    4.1866 C.ar      4 RES4    0.0000
    111 H44        7.5318    1.4330    3.2657 H         4 RES4    0.0000
    112 O8         5.7210    0.2200   15.3740 O.2       4 RES4    0.0000
@<TRIPOS>BOND
     1    1    2 1
     2    3    1 ar
     3    4    7 ar
     4    5    6 1
     5    6   15 2
     6    7    8 1
     7    9    4 ar
     8   10    9 1
     9   11    7 ar
    10   12   11 1
    11   13    4 1
    12   14   13 1
    13   16    9 ar
    14   17   16 1
    15   18    5 ar
    16   19   18 1
    17   20    3 ar
    18   21   20 1
    19   22    3 1
    20   23   22 1
    21   24    1 ar
    22   25   24 1
    23   26   11 ar
    24   27   26 1
    25   28    6 2
    26   29   30 1
    27   31   33 ar
    28   32   44 1
    29   33   34 1
    30   35   29 1
    31   36   35 ar
    32   37   36 1
    33   38   35 ar
    34   39   38 1
    35   40   38 ar
    36   41   40 1
    37   42   36 ar
    38   43   42 1
    39   44   51 2
    40   45   32 ar
    41   46   45 1
    42   47   29 2
    43   48   47 1
    44   49   31 ar
    45   50   49 1
    46   52   40 ar
    47   53   52 1
    48   54   32 ar
    49   55   54 1
    50   56   44 2
    51   57   62 ar
    52   58   59 1
    53   60   58 ar
    54   61   64 1
    55   62   63 1
    56   64   65 2
    57   66   57 1
    58   67   66 1
    59   68   69 1
    60   70   61 ar
    61   71   70 1
    62   72   57 ar
    63   73   72 1
    64   74   60 1
    65   75   74 1
    66   76   60 ar
    67   77   76 1
    68   78   58 ar
    69   79   78 1
    70   80   68 ar
    71   81   80 1
    72   82   62 ar
    73   83   82 1
    74   84   64 2
    75   85   95 ar
    76   86   87 ar
    77   87   88 1
    78   89   90 1
    79   90  101 2
    80   91   86 1
    81   92   91 1
    82   93   86 ar
    83   94   93 1
    84   95   96 1
    85   97   93 ar
    86   98   97 1
    87   99   89 ar
    88  100   99 1
    89  102   87 ar
    90  103  102 1
    91  104   85 ar
    92  105  104 1
    93  106   85 1
    94  107  106 1
    95  108   89 ar
    96  109  108 1
    97  110   97 ar
    98  111  110 1
    99  112   90 2
   100    5   24 ar
   101   13   22 2
   102   16   26 ar
   103   18   20 ar
   104   31   47 1
   105   33   45 ar
   106   42   52 ar
   107   49   54 ar
   108   61   78 ar
   109   66   74 2
   110   68   72 ar
   111   70   76 ar
   112   80   82 ar
   113   91  106 2
   114   95  108 ar
   115   99  104 ar
   116  102  110 ar
@<TRIPOS>SUBSTRUCTURE
     1 RES1 1
     2 RES2 29
     3 RES3 57
     4 RES4 85

@<TRIPOS>CRYSIN
   7.8900   10.1850   28.4220  90.0000  90.0000  90.0000   2 1

