# MOL2 file generated by ConQuest
# Please check atom types

@<TRIPOS>MOLECULE
ZZZPGU01
    28    29     1
SMALL
NO_CHARGES
****
Generated from CSD

@<TRIPOS>ATOM
      1 O1         7.0439    1.1288   29.6554 O.2       1 RES1    0.0000
      2 O2         5.2113    2.2052   29.2977 O.2       1 RES1    0.0000
      3 N1         6.1479    1.5179   28.9170 N.pl3     1 RES1    0.0000
      4 C1         6.2099    1.1610   27.4909 C.ar      1 RES1    0.0000
      5 C2         5.1629    1.5302   26.6628 C.ar      1 RES1    0.0000
      6 H1         4.4006    1.9766   27.0126 H         1 RES1    0.0000
      7 C3         5.2496    1.2353   25.3117 C.ar      1 RES1    0.0000
      8 H2         4.5337    1.4678   24.7322 H         1 RES1    0.0000
      9 C4         6.3875    0.5955   24.7902 C.ar      1 RES1    0.0000
     10 C5         7.3944    0.2069   25.6756 C.ar      1 RES1    0.0000
     11 H3         8.1508   -0.2613   25.3424 H         1 RES1    0.0000
     12 C6         7.3182    0.4857   27.0241 C.ar      1 RES1    0.0000
     13 H4         8.0117    0.2190   27.6171 H         1 RES1    0.0000
     14 C7         6.5815    0.3443   23.3595 C.2       1 RES1    0.0000
     15 H5         7.2917   -0.2375   23.1155 H         1 RES1    0.0000
     16 C8         5.8501    0.8592   22.3706 C.2       1 RES1    0.0000
     17 H6         5.1267    1.4225   22.6178 H         1 RES1    0.0000
     18 C9         6.0581    0.6363   20.9276 C.ar      1 RES1    0.0000
     19 C10        5.1290    1.1718   20.0386 C.ar      1 RES1    0.0000
     20 H7         4.3784    1.6461   20.3768 H         1 RES1    0.0000
     21 C11        5.2799    1.0244   18.6656 C.ar      1 RES1    0.0000
     22 H8         4.6376    1.3979   18.0740 H         1 RES1    0.0000
     23 C12        6.3681    0.3318   18.1626 C.ar      1 RES1    0.0000
     24 H9         6.4759    0.2321   17.2248 H         1 RES1    0.0000
     25 C13        7.2973   -0.2146   19.0294 C.ar      1 RES1    0.0000
     26 H10        8.0399   -0.6947   18.6841 H         1 RES1    0.0000
     27 C14        7.1506   -0.0655   20.4049 C.ar      1 RES1    0.0000
     28 H11        7.7949   -0.4419   20.9926 H         1 RES1    0.0000
@<TRIPOS>BOND
     1    1    3 2
     2    2    3 2
     3    3    4 1
     4    4    5 ar
     5    5    6 1
     6    7    5 ar
     7    8    7 1
     8    9    7 ar
     9   10    9 ar
    10   11   10 1
    11   12    4 ar
    12   13   12 1
    13   14    9 1
    14   15   14 1
    15   16   14 2
    16   17   16 1
    17   18   16 1
    18   19   18 ar
    19   20   19 1
    20   21   19 ar
    21   22   21 1
    22   23   21 ar
    23   24   23 1
    24   25   23 ar
    25   26   25 1
    26   27   18 ar
    27   28   27 1
    28   10   12 ar
    29   25   27 ar
@<TRIPOS>SUBSTRUCTURE
     1 RES1 1

@<TRIPOS>CRYSIN
  10.0839    7.6849   28.1176  90.0000  90.0000  90.0000  61 1

