# MOL2 file generated by ConQuest
# Please check atom types

@<TRIPOS>MOLECULE
ZZZQSC01
    19    19     1
SMALL
NO_CHARGES
****
Generated from CSD

@<TRIPOS>ATOM
      1 O1         6.5678    3.2637    5.6865 O.2       1 RES1    0.0000
      2 O2         5.2657    3.2278    7.4003 O.2       1 RES1    0.0000
      3 O3         3.0991   -1.6310    7.4295 O.2       1 RES1    0.0000
      4 O4         4.2243   -2.9473    6.1666 O.2       1 RES1    0.0000
      5 N1         5.9524    2.6846    6.5606 N.pl3     1 RES1    0.0000
      6 N2         4.0833   -1.9060    6.7605 N.pl3     1 RES1    0.0000
      7 C1         4.9243    0.4379    6.6649 C.ar      1 RES1    0.0000
      8 C2         6.0792    1.2096    6.6262 C.ar      1 RES1    0.0000
      9 C3         7.3696    0.7184    6.6255 C.ar      1 RES1    0.0000
     10 H1         8.0978    1.2958    6.5846 H         1 RES1    0.0000
     11 C4         7.5567   -0.6527    6.6868 C.ar      1 RES1    0.0000
     12 H2         8.4157   -1.0084    6.7189 H         1 RES1    0.0000
     13 C5         6.4644   -1.4832    6.6992 C.ar      1 RES1    0.0000
     14 H3         6.5780   -2.4068    6.7036 H         1 RES1    0.0000
     15 C6         5.1952   -0.9387    6.7058 C.ar      1 RES1    0.0000
     16 C7         3.5360    1.0098    6.5657 C.3       1 RES1    0.0000
     17 H4         2.8932    0.2983    6.6153 H         1 RES1    0.0000
     18 H5         3.4389    1.4709    5.7295 H         1 RES1    0.0000
     19 H6         3.3904    1.6242    7.2887 H         1 RES1    0.0000
@<TRIPOS>BOND
     1    1    5 2
     2    2    5 2
     3    3    6 2
     4    4    6 2
     5    5    8 1
     6    6   15 1
     7    7    8 ar
     8    8    9 ar
     9    9   10 1
    10   11    9 ar
    11   12   11 1
    12   13   11 ar
    13   14   13 1
    14   15    7 ar
    15   16    7 1
    16   17   16 1
    17   18   16 1
    18   19   16 1
    19   13   15 ar
@<TRIPOS>SUBSTRUCTURE
     1 RES1 1

@<TRIPOS>CRYSIN
   7.8300   13.6830    7.2960  90.0000  90.0000  90.0000  19 1

