# MOL2 file generated by ConQuest
# Please check atom types

@<TRIPOS>MOLECULE
ZZZRDI02
    82    86     2
SMALL
NO_CHARGES
****
Generated from CSD

@<TRIPOS>ATOM
      1 N1         5.9551    7.2189    0.9007 N.pl3     1 RES1    0.0000
      2 C1         5.3668    5.6112    2.4777 C.ar      1 RES1    0.0000
      3 C2         7.0479    7.8278    0.2613 C.ar      1 RES1    0.0000
      4 O1         2.9248    2.6996    5.6686 O.2       1 RES1    0.0000
      5 C3         3.8935    4.4707    4.5804 C.ar      1 RES1    0.0000
      6 N2         6.1663    5.9987    1.4428 N.2       1 RES1    0.0000
      7 O2         6.4512    8.0425    3.4192 O.2       1 RES1    0.0000
      8 N3         3.0404    3.8999    5.6262 N.pl3     1 RES1    0.0000
      9 C4         5.0601    4.2238    2.5640 C.ar      1 RES1    0.0000
     10 O3         4.5723    8.5043    4.3740 O.2       1 RES1    0.0000
     11 C5         3.5952    6.9449    0.4111 C.ar      1 RES1    0.0000
     12 H1         3.7393    6.0433    0.2479 H         1 RES1    0.0000
     13 C6         4.3813    3.6571    3.5840 C.ar      1 RES1    0.0000
     14 H2         4.2472    2.7372    3.6122 H         1 RES1    0.0000
     15 C7         4.6377    7.7714    0.7963 C.ar      1 RES1    0.0000
     16 O4         5.2076    3.7344    0.3021 O.2       1 RES1    0.0000
     17 N4         5.3316    7.7390    3.7934 N.pl3     1 RES1    0.0000
     18 N5         5.4003    3.3345    1.4224 N.pl3     1 RES1    0.0000
     19 C8         8.3351    7.5568    0.7367 C.ar      1 RES1    0.0000
     20 H3         8.4575    7.0040    1.4742 H         1 RES1    0.0000
     21 C9         4.8992    6.3599    3.5675 C.ar      1 RES1    0.0000
     22 O5         2.4672    4.6720    6.3881 O.2       1 RES1    0.0000
     23 C10        2.1320    8.8314    0.5359 C.ar      1 RES1    0.0000
     24 H4         1.2822    9.1964    0.4315 H         1 RES1    0.0000
     25 C11        4.1366    5.8205    4.5655 C.ar      1 RES1    0.0000
     26 H5         3.7846    6.3653    5.2316 H         1 RES1    0.0000
     27 C12        2.3281    7.5004    0.2754 C.ar      1 RES1    0.0000
     28 H6         1.6141    6.9691    0.0071 H         1 RES1    0.0000
     29 C13        6.8753    8.6597   -0.8403 C.ar      1 RES1    0.0000
     30 H7         6.0238    8.8475   -1.1635 H         1 RES1    0.0000
     31 C14        9.2570    8.9334   -0.9462 C.ar      1 RES1    0.0000
     32 H8        10.0012    9.3279   -1.3408 H         1 RES1    0.0000
     33 C15        4.4299    9.1105    1.0717 C.ar      1 RES1    0.0000
     34 H9         5.1372    9.6526    1.3369 H         1 RES1    0.0000
     35 O6         5.8395    2.2541    1.7269 O.2       1 RES1    0.0000
     36 C16        3.1561    9.6311    0.9462 C.ar      1 RES1    0.0000
     37 H10        2.9985   10.5274    1.1408 H         1 RES1    0.0000
     38 C17        9.4196    8.1149    0.0981 C.ar      1 RES1    0.0000
     39 H11       10.2777    7.9217    0.3978 H         1 RES1    0.0000
     40 C18        7.9949    9.2018   -1.4452 C.ar      1 RES1    0.0000
     41 H12        7.8994    9.7492   -2.1913 H         1 RES1    0.0000
     42 N6         6.9809    0.4954    4.8024 N.pl3     2 RES2    0.0000
     43 N7         6.7797    1.6960    5.3163 N.2       2 RES2    0.0000
     44 N8         9.9157    3.7247    9.5570 N.pl3     2 RES2    0.0000
     45 N9         7.5641    4.3500    5.3555 N.pl3     2 RES2    0.0000
     46 C19        9.0659    3.1853    8.4939 C.ar      2 RES2    0.0000
     47 O7         8.3536   -0.8171    8.2914 O.2       2 RES2    0.0000
     48 O8         7.7552    3.9662    4.2077 O.2       2 RES2    0.0000
     49 C20        7.5826    2.0663    6.3700 C.ar      2 RES2    0.0000
     50 O9        10.0263    4.9446    9.6127 O.2       2 RES2    0.0000
     51 C21        8.0502    1.3069    7.4684 C.ar      2 RES2    0.0000
     52 C22        5.8562   -0.0912    4.1520 C.ar      2 RES2    0.0000
     53 C23       10.6062    0.0322    4.2195 C.ar      2 RES2    0.0000
     54 H13       11.3504    0.5367    3.9825 H         2 RES2    0.0000
     55 O10        6.4982   -0.3894    7.2958 O.2       2 RES2    0.0000
     56 C24        7.8943    3.4561    6.4634 C.ar      2 RES2    0.0000
     57 C25        8.8044    1.8221    8.4782 C.ar      2 RES2    0.0000
     58 H14        9.1397    1.2720    9.1466 H         2 RES2    0.0000
     59 C26        8.5882    4.0226    7.5131 C.ar      2 RES2    0.0000
     60 H15        8.7290    4.9403    7.5547 H         2 RES2    0.0000
     61 C27        9.3659    0.6548    4.3489 C.ar      2 RES2    0.0000
     62 H16        9.2771    1.5672    4.2053 H         2 RES2    0.0000
     63 N10        7.6211   -0.0671    7.6536 N.pl3     2 RES2    0.0000
     64 C28       10.7420   -1.2908    4.4321 C.ar      2 RES2    0.0000
     65 H17       11.5750   -1.6906    4.3223 H         2 RES2    0.0000
     66 C29        4.6025    0.1234    4.6777 C.ar      2 RES2    0.0000
     67 H18        4.4936    0.6199    5.4560 H         2 RES2    0.0000
     68 O11       10.4889    2.9519   10.2960 O.2       2 RES2    0.0000
     69 C30        8.2765   -0.1127    4.6949 C.ar      2 RES2    0.0000
     70 C31        8.4106   -1.4679    4.9334 C.ar      2 RES2    0.0000
     71 H19        7.6714   -1.9777    5.1735 H         2 RES2    0.0000
     72 C32        3.5030   -0.4159    4.0202 C.ar      2 RES2    0.0000
     73 H20        2.6516   -0.2845    4.3709 H         2 RES2    0.0000
     74 C33        6.0289   -0.8185    2.9853 C.ar      2 RES2    0.0000
     75 H21        6.8770   -0.9473    2.6291 H         2 RES2    0.0000
     76 O12        7.1401    5.4556    5.6490 O.2       2 RES2    0.0000
     77 C34        9.6542   -2.0609    4.8126 C.ar      2 RES2    0.0000
     78 H22        9.7598   -2.9706    4.9852 H         2 RES2    0.0000
     79 C35        4.9109   -1.3498    2.3584 C.ar      2 RES2    0.0000
     80 H23        5.0132   -1.8543    1.5841 H         2 RES2    0.0000
     81 C36        3.6472   -1.1324    2.8739 C.ar      2 RES2    0.0000
     82 H24        2.8996   -1.4759    2.4393 H         2 RES2    0.0000
@<TRIPOS>BOND
     1    1    3 1
     2    2    6 1
     3    3   19 ar
     4    4    8 2
     5    5    8 1
     6    6    1 1
     7    7   17 2
     8    8   22 2
     9    9    2 ar
    10   10   17 2
    11   11   12 1
    12   13    5 ar
    13   14   13 1
    14   15    1 1
    15   16   18 2
    16   17   21 1
    17   18    9 1
    18   19   20 1
    19   21    2 ar
    20   23   24 1
    21   25    5 ar
    22   26   25 1
    23   27   11 ar
    24   28   27 1
    25   29    3 ar
    26   30   29 1
    27   31   32 1
    28   33   15 ar
    29   34   33 1
    30   35   18 2
    31   36   23 ar
    32   37   36 1
    33   38   19 ar
    34   39   38 1
    35   40   29 ar
    36   41   40 1
    37   42   43 1
    38   43   49 1
    39   44   46 1
    40   45   48 2
    41   46   57 ar
    42   47   63 2
    43   49   51 ar
    44   50   44 2
    45   51   57 ar
    46   52   42 1
    47   53   54 1
    48   55   63 2
    49   56   45 1
    50   57   58 1
    51   59   46 ar
    52   60   59 1
    53   61   53 ar
    54   62   61 1
    55   63   51 1
    56   64   53 ar
    57   65   64 1
    58   66   52 ar
    59   67   66 1
    60   68   44 2
    61   69   42 1
    62   70   69 ar
    63   71   70 1
    64   72   66 ar
    65   73   72 1
    66   74   52 ar
    67   75   74 1
    68   76   45 2
    69   77   64 ar
    70   78   77 1
    71   79   74 ar
    72   80   79 1
    73   81   72 ar
    74   82   81 1
    75    9   13 ar
    76   11   15 ar
    77   21   25 ar
    78   23   27 ar
    79   31   38 ar
    80   31   40 ar
    81   33   36 ar
    82   49   56 ar
    83   56   59 ar
    84   61   69 ar
    85   70   77 ar
    86   79   81 ar
@<TRIPOS>SUBSTRUCTURE
     1 RES1 1
     2 RES2 42

@<TRIPOS>CRYSIN
  16.7608   26.8351    7.8458  90.0000  90.0000  90.0000  33 4

