# MOL2 file generated by ConQuest
# Please check atom types

@<TRIPOS>MOLECULE
ZZZTQC01
    27    29     1
SMALL
NO_CHARGES
****
Generated from CSD

@<TRIPOS>ATOM
      1 C1         4.0688   -0.6434    4.5023 C.2       1 RES1    0.0000
      2 C2         2.3175   -2.9118    3.2270 C.ar      1 RES1    0.0000
      3 C3         1.6237   -4.0214    2.7630 C.ar      1 RES1    0.0000
      4 C4         0.8142   -4.7516    3.5829 C.ar      1 RES1    0.0000
      5 C5         0.6696   -4.3601    4.8670 C.ar      1 RES1    0.0000
      6 C6         1.3675   -3.2578    5.3788 C.ar      1 RES1    0.0000
      7 C7         2.9233   -1.3396    5.0355 C.2       1 RES1    0.0000
      8 C8         4.9094   -0.9396    3.3427 C.ar      1 RES1    0.0000
      9 C9         5.0303    0.0030    2.3190 C.ar      1 RES1    0.0000
     10 C10        5.8721   -0.2798    1.2463 C.ar      1 RES1    0.0000
     11 C11        6.5650   -1.4629    1.1822 C.ar      1 RES1    0.0000
     12 C12        6.4418   -2.3800    2.1958 C.ar      1 RES1    0.0000
     13 C13        5.6136   -2.1379    3.2698 C.ar      1 RES1    0.0000
     14 C14        2.1960   -2.5069    4.5500 C.ar      1 RES1    0.0000
     15 H1         2.9075   -2.4037    2.5907 H         1 RES1    0.0000
     16 H2         2.0381   -4.1883    1.5469 H         1 RES1    0.0000
     17 H3         0.1529   -5.6937    3.3201 H         1 RES1    0.0000
     18 H4         0.0722   -4.7892    5.4580 H         1 RES1    0.0000
     19 H5         1.4231   -2.8104    6.3887 H         1 RES1    0.0000
     20 H6         4.5057    0.8741    2.4398 H         1 RES1    0.0000
     21 H7         5.8946    0.4492    0.5659 H         1 RES1    0.0000
     22 H8         7.0446   -1.6996    0.4905 H         1 RES1    0.0000
     23 H9         6.8524   -3.0775    2.2763 H         1 RES1    0.0000
     24 H10        5.6207   -2.8225    4.0872 H         1 RES1    0.0000
     25 N1         4.3807    0.4285    5.2845 N.2       1 RES1    0.0000
     26 N2         2.5369   -0.7090    6.1409 N.2       1 RES1    0.0000
     27 O1         3.4113    0.3533    6.3082 O.3       1 RES1    0.0000
@<TRIPOS>BOND
     1    1    7 1
     2    2    3 ar
     3    3    4 ar
     4    4    5 ar
     5    5    6 ar
     6    6   14 ar
     7    7   14 1
     8    8    1 1
     9    9    8 ar
    10   10    9 ar
    11   11   10 ar
    12   12   11 ar
    13   13    8 ar
    14   14    2 ar
    15   15    2 1
    16   16    3 1
    17   17    4 1
    18   18    5 1
    19   19    6 1
    20   20    9 1
    21   21   10 1
    22   22   11 1
    23   23   12 1
    24   24   13 1
    25   25    1 2
    26   26    7 2
    27   27   25 1
    28   12   13 ar
    29   26   27 1
@<TRIPOS>SUBSTRUCTURE
     1 RES1 1

@<TRIPOS>CRYSIN
  15.2600    6.0700   12.6100  90.0000  94.2000  90.0000  14 1

