# MOL2 file generated by ConQuest
# Please check atom types

@<TRIPOS>MOLECULE
ZZZTLC01
    20    20     1
SMALL
NO_CHARGES
****
Generated from CSD

@<TRIPOS>ATOM
      1 N1         6.8780    2.7328    1.4676 N.3       1 RES1    0.0000
      2 N2         5.9178    2.7328    0.4865 N.pl3     1 RES1    0.0000
      3 O1         5.5565    1.6560    0.0562 O.2       1 RES1    0.0000
      4 C1         6.9556    1.5107    2.2468 C.3       1 RES1    0.0000
      5 H1         6.9338    0.7433    1.6539 H         1 RES1    0.0000
      6 H2         6.1942    1.4538    2.8435 H         1 RES1    0.0000
      7 C2         8.2383    1.4965    3.0525 C.3       1 RES1    0.0000
      8 H3         8.2408    0.7357    3.6534 H         1 RES1    0.0000
      9 H4         8.9997    1.4188    2.4579 H         1 RES1    0.0000
     10 N3         8.3305    2.7328    3.8170 N.3       1 RES1    0.0000
     11 N4         9.2555    2.7328    4.8241 N.pl3     1 RES1    0.0000
     12 O2         9.6205    1.6506    5.2712 O.2       1 RES1    0.0000
     13 O1B        5.5565    3.8095    0.0562 O.2       1 RES1    0.0000
     14 C2B        8.2383    3.9690    3.0525 C.3       1 RES1    0.0000
     15 C1B        6.9556    3.9548    2.2468 C.3       1 RES1    0.0000
     16 H1B        6.9338    4.7222    1.6539 H         1 RES1    0.0000
     17 H2B        6.1942    4.0117    2.8435 H         1 RES1    0.0000
     18 H3B        8.2408    4.7298    3.6534 H         1 RES1    0.0000
     19 H4B        8.9997    4.0467    2.4579 H         1 RES1    0.0000
     20 O2B        9.6205    3.8149    5.2712 O.2       1 RES1    0.0000
@<TRIPOS>BOND
     1    1    2 1
     2    2    3 2
     3    4    1 1
     4    5    4 1
     5    6    4 1
     6    7    4 1
     7    8    7 1
     8    9    7 1
     9   10    7 1
    10   11   10 1
    11   12   11 2
    12   13    2 2
    13   14   10 1
    14   15    1 1
    15   16   15 1
    16   17   15 1
    17   18   14 1
    18   19   14 1
    19   20   11 2
    20   14   15 1
@<TRIPOS>SUBSTRUCTURE
     1 RES1 1

@<TRIPOS>CRYSIN
  12.1241   10.9310    5.3997  90.0000  90.0000  90.0000  62 1

