# MOL2 file generated by ConQuest
# Please check atom types

@<TRIPOS>MOLECULE
ZZZVPO04
    57    57     3
SMALL
NO_CHARGES
****
Generated from CSD

@<TRIPOS>ATOM
      1 O1         5.6083    5.5951    2.5043 O.3       1 RES1    0.0000
      2 H1         4.8607    5.1771    2.2939 H         1 RES1    0.0000
      3 N1         5.3253    6.9496    2.2423 N.2       1 RES1    0.0000
      4 C1         6.3518    7.7067    2.3025 C.2       1 RES1    0.0000
      5 C2         6.1421    9.1833    2.1103 C.3       1 RES1    0.0000
      6 H2         6.2330    9.6438    2.9821 H         1 RES1    0.0000
      7 H3         5.2248    9.3439    1.7742 H         1 RES1    0.0000
      8 C3         7.1533    9.7634    1.1226 C.3       1 RES1    0.0000
      9 H4         6.9727    9.4057    0.2172 H         1 RES1    0.0000
     10 H5         7.0534   10.7486    1.0883 H         1 RES1    0.0000
     11 C4         8.5751    9.4130    1.5303 C.3       1 RES1    0.0000
     12 H6         8.7761    9.8110    2.4143 H         1 RES1    0.0000
     13 H7         9.2126    9.7892    0.8718 H         1 RES1    0.0000
     14 C5         8.7472    7.8960    1.6012 C.3       1 RES1    0.0000
     15 H8         9.6700    7.6849    1.8885 H         1 RES1    0.0000
     16 H9         8.6135    7.5086    0.6996 H         1 RES1    0.0000
     17 C6         7.7566    7.2593    2.5767 C.3       1 RES1    0.0000
     18 H10        7.8078    6.2729    2.4989 H         1 RES1    0.0000
     19 H11        8.0040    7.5068    3.5034 H         1 RES1    0.0000
     20 O2         2.8197    8.1184    2.3425 O.3       2 RES2    0.0000
     21 H12        3.5745    7.6631    2.2863 H         2 RES2    0.0000
     22 N2         1.8257    7.1604    2.0545 N.2       2 RES2    0.0000
     23 C7         0.6382    7.6211    2.1468 C.2       2 RES2    0.0000
     24 C8        -0.4931    6.6647    1.9021 C.3       2 RES2    0.0000
     25 H13       -0.9379    6.4546    2.7611 H         2 RES2    0.0000
     26 H14       -0.1353    5.8204    1.5288 H         2 RES2    0.0000
     27 C9        -1.5157    7.2595    0.9290 C.3       2 RES2    0.0000
     28 H15       -1.1069    7.3432    0.0312 H         2 RES2    0.0000
     29 H16       -2.2934    6.6509    0.8551 H         2 RES2    0.0000
     30 C10       -1.9858    8.6305    1.4038 C.3       2 RES2    0.0000
     31 H17       -2.6365    9.0005    0.7575 H         2 RES2    0.0000
     32 H18       -2.4382    8.5408    2.2802 H         2 RES2    0.0000
     33 C11       -0.7989    9.5775    1.5341 C.3       2 RES2    0.0000
     34 H19       -1.1163   10.4561    1.8626 H         2 RES2    0.0000
     35 H20       -0.3924    9.7147    0.6425 H         2 RES2    0.0000
     36 C12        0.2611    9.0316    2.4953 C.3       2 RES2    0.0000
     37 H21        1.0659    9.6056    2.4562 H         2 RES2    0.0000
     38 H22       -0.0892    9.0586    3.4211 H         2 RES2    0.0000
     39 O3         2.1666    4.4901    1.3606 O.3       3 RES3    0.0000
     40 H23        2.1623    5.3589    1.6157 H         3 RES3    0.0000
     41 N3         3.4455    4.0383    1.7493 N.2       3 RES3    0.0000
     42 C13        3.5915    2.7701    1.6375 C.2       3 RES3    0.0000
     43 C14        4.9466    2.2044    1.9468 C.3       3 RES3    0.0000
     44 H24        5.4996    2.9002    2.3838 H         3 RES3    0.0000
     45 H25        5.3937    1.9462    1.1020 H         3 RES3    0.0000
     46 C15        4.8539    0.9818    2.8640 C.3       3 RES3    0.0000
     47 H26        5.7483    0.5651    2.9501 H         3 RES3    0.0000
     48 H27        4.5607    1.2666    3.7655 H         3 RES3    0.0000
     49 C16        3.8706   -0.0398    2.3099 C.3       3 RES3    0.0000
     50 H28        4.1945   -0.3707    1.4350 H         3 RES3    0.0000
     51 H29        3.8105   -0.8105    2.9280 H         3 RES3    0.0000
     52 C17        2.4916    0.5810    2.1400 C.3       3 RES3    0.0000
     53 H30        2.1455    0.8559    3.0255 H         3 RES3    0.0000
     54 H31        1.8717   -0.0945    1.7658 H         3 RES3    0.0000
     55 C18        2.5339    1.7997    1.2103 C.3       3 RES3    0.0000
     56 H32        2.7173    1.5010    0.2843 H         3 RES3    0.0000
     57 H33        1.6514    2.2497    1.2178 H         3 RES3    0.0000
@<TRIPOS>BOND
     1    1    2 1
     2    3    1 1
     3    4    3 2
     4    5    4 1
     5    6    5 1
     6    7    5 1
     7    8    5 1
     8    9    8 1
     9   10    8 1
    10   11    8 1
    11   12   11 1
    12   13   11 1
    13   14   11 1
    14   15   14 1
    15   16   14 1
    16   17    4 1
    17   18   17 1
    18   19   17 1
    19   20   21 1
    20   22   20 1
    21   23   22 2
    22   24   23 1
    23   25   24 1
    24   26   24 1
    25   27   24 1
    26   28   27 1
    27   29   27 1
    28   30   27 1
    29   31   30 1
    30   32   30 1
    31   33   30 1
    32   34   33 1
    33   35   33 1
    34   36   23 1
    35   37   36 1
    36   38   36 1
    37   39   40 1
    38   41   39 1
    39   42   41 2
    40   43   42 1
    41   44   43 1
    42   45   43 1
    43   46   43 1
    44   47   46 1
    45   48   46 1
    46   49   46 1
    47   50   49 1
    48   51   49 1
    49   52   49 1
    50   53   52 1
    51   54   52 1
    52   55   42 1
    53   56   55 1
    54   57   55 1
    55   14   17 1
    56   33   36 1
    57   52   55 1
@<TRIPOS>SUBSTRUCTURE
     1 RES1 1
     2 RES2 20
     3 RES3 39

@<TRIPOS>CRYSIN
  20.9830   20.9830    7.6210  90.0000  90.0000 120.0000 147 1

