# MOL2 file generated by ConQuest
# Please check atom types

@<TRIPOS>MOLECULE
ZZZVCO04
    15    14     2
SMALL
NO_CHARGES
****
Generated from CSD

@<TRIPOS>ATOM
      1 O1         0.0000    1.9908    9.7477 O.2       1 RES1    0.0000
      2 N1         0.0000    1.9908   11.0564 N.pl3     1 RES1    0.0000
      3 C1         0.0000    0.8305   11.7314 C.ar      1 RES1    0.0000
      4 C2         0.0000    0.8202   13.1225 C.ar      1 RES1    0.0000
      5 C3         0.0000    1.9908   13.8367 C.ar      1 RES1    0.0000
      6 C4         0.0000    1.9908   15.3338 C.3       1 RES1    0.0000
      7 H1         0.0000   -0.0438   11.2036 H         1 RES1    0.0000
      8 H2         0.0000   -0.1370   13.6150 H         1 RES1    0.0000
      9 H3         0.0000    2.9336   15.7557 H         1 RES1    0.0000
     10 H4        -0.8074    1.5042   15.7557 Du        2 SUP2    0.0000
     11 C2K        0.0000    3.1613   13.1225 C.ar      1 RES1    0.0000
     12 C1K        0.0000    3.1510   11.7314 C.ar      1 RES1    0.0000
     13 H1K        0.0000    4.0253   11.2036 H         1 RES1    0.0000
     14 H2K        0.0000    4.1185   13.6150 H         1 RES1    0.0000
     15 H3K        0.0000    1.0479   15.7557 H         1 RES1    0.0000
@<TRIPOS>BOND
     1    1    2 1
     2    2    3 ar
     3    3    4 ar
     4    4    5 ar
     5    5    6 1
     6    6    9 1
     7    7    3 1
     8    8    4 1
     9   11    5 ar
    10   12    2 ar
    11   13   12 1
    12   14   11 1
    13   15    6 1
    14   11   12 ar
@<TRIPOS>SUBSTRUCTURE
     1 RES1 1
     2 SUP2 10

@<TRIPOS>CRYSIN
   7.9630    7.9630   19.6210  90.0000  90.0000  90.0000 141 1

