# MOL2 file generated by ConQuest
# Please check atom types

@<TRIPOS>MOLECULE
ZZZVPO05
    57    57     3
SMALL
NO_CHARGES
****
Generated from CSD

@<TRIPOS>ATOM
      1 O1        13.3233    2.0538    6.3534 O.3       1 RES1    0.0000
      2 H1        14.0665    1.6831    6.2247 H         1 RES1    0.0000
      3 N1        12.2797    1.1293    6.0837 N.2       1 RES1    0.0000
      4 C1        11.1197    1.6446    6.1465 C.2       1 RES1    0.0000
      5 C2        10.8072    3.0751    6.4361 C.3       1 RES1    0.0000
      6 H2        11.6367    3.6113    6.3741 H         1 RES1    0.0000
      7 H3        10.4605    3.1538    7.3599 H         1 RES1    0.0000
      8 C3         9.7718    3.6313    5.4564 C.3       1 RES1    0.0000
      9 H4         9.5056    4.5391    5.7436 H         1 RES1    0.0000
     10 H5        10.1775    3.7021    4.5563 H         1 RES1    0.0000
     11 C4         8.5391    2.7452    5.3836 C.3       1 RES1    0.0000
     12 H6         7.9007    3.1174    4.7248 H         1 RES1    0.0000
     13 H7         8.0925    2.7234    6.2668 H         1 RES1    0.0000
     14 C5         8.9301    1.3309    4.9745 C.3       1 RES1    0.0000
     15 H8         9.3221    1.3490    4.0653 H         1 RES1    0.0000
     16 H9         8.1229    0.7607    4.9493 H         1 RES1    0.0000
     17 C6         9.9406    0.7390    5.9504 C.3       1 RES1    0.0000
     18 H10        9.4982    0.5828    6.8229 H         1 RES1    0.0000
     19 H11       10.2530   -0.1362    5.6065 H         1 RES1    0.0000
     20 O2         4.9633    0.3682    2.4674 O.3       2 RES2    0.0000
     21 H12        5.6480    0.8352    2.3356 H         2 RES2    0.0000
     22 N2         5.2197   -0.9739    2.0644 N.2       2 RES2    0.0000
     23 C7         4.1896   -1.7279    2.1747 C.2       2 RES2    0.0000
     24 C8         2.8311   -1.2960    2.6144 C.3       2 RES2    0.0000
     25 H13        2.7831   -0.3068    2.6121 H         2 RES2    0.0000
     26 H14        2.6710   -1.6086    3.5398 H         2 RES2    0.0000
     27 C9         1.7516   -1.8574    1.6937 C.3       2 RES2    0.0000
     28 H15        0.8596   -1.6522    2.0729 H         2 RES2    0.0000
     29 H16        1.8166   -1.4180    0.8097 H         2 RES2    0.0000
     30 C10        1.8827   -3.3553    1.5160 C.3       2 RES2    0.0000
     31 H17        1.1803   -3.6785    0.8978 H         2 RES2    0.0000
     32 H18        1.7569   -3.8056    2.3885 H         2 RES2    0.0000
     33 C11        3.2544   -3.7057    0.9560 C.3       2 RES2    0.0000
     34 H19        3.3324   -4.6898    0.8694 H         2 RES2    0.0000
     35 H20        3.3513   -3.3099    0.0536 H         2 RES2    0.0000
     36 C12        4.3681   -3.1901    1.8538 C.3       2 RES2    0.0000
     37 H21        4.3775   -3.7111    2.6956 H         2 RES2    0.0000
     38 H22        5.2392   -3.3226    1.4033 H         2 RES2    0.0000
     39 O3         8.4378    1.6188    1.4930 O.3       3 RES3    0.0000
     40 H23        8.5276    0.7898    1.5994 H         3 RES3    0.0000
     41 N3         7.1082    1.9910    1.7879 N.2       3 RES3    0.0000
     42 C13        6.9120    3.2562    1.7006 C.2       3 RES3    0.0000
     43 C14        7.9482    4.2771    1.3359 C.3       3 RES3    0.0000
     44 H24        7.7959    4.5845    0.4083 H         3 RES3    0.0000
     45 H25        8.8462    3.8618    1.3765 H         3 RES3    0.0000
     46 C15        7.8986    5.4778    2.2843 C.3       3 RES3    0.0000
     47 H26        8.2319    5.2018    3.1752 H         3 RES3    0.0000
     48 H27        8.4972    6.1877    1.9419 H         3 RES3    0.0000
     49 C16        6.5020    6.0303    2.4260 C.3       3 RES3    0.0000
     50 H28        6.1962    6.3856    1.5535 H         3 RES3    0.0000
     51 H29        6.5055    6.7759    3.0771 H         3 RES3    0.0000
     52 C17        5.5369    4.9494    2.8994 C.3       3 RES3    0.0000
     53 H30        5.8073    4.6371    3.7987 H         3 RES3    0.0000
     54 H31        4.6259    5.3289    2.9683 H         3 RES3    0.0000
     55 C18        5.5212    3.7747    1.9411 C.3       3 RES3    0.0000
     56 H32        4.9624    3.0503    2.3172 H         3 RES3    0.0000
     57 H33        5.1218    4.0561    1.0801 H         3 RES3    0.0000
@<TRIPOS>BOND
     1    1    2 1
     2    3    1 1
     3    4    3 2
     4    5    4 1
     5    6    5 1
     6    7    5 1
     7    8    5 1
     8    9    8 1
     9   10    8 1
    10   11    8 1
    11   12   11 1
    12   13   11 1
    13   14   11 1
    14   15   14 1
    15   16   14 1
    16   17    4 1
    17   18   17 1
    18   19   17 1
    19   20   21 1
    20   22   20 1
    21   23   22 2
    22   24   23 1
    23   25   24 1
    24   26   24 1
    25   27   24 1
    26   28   27 1
    27   29   27 1
    28   30   27 1
    29   31   30 1
    30   32   30 1
    31   33   30 1
    32   34   33 1
    33   35   33 1
    34   36   23 1
    35   37   36 1
    36   38   36 1
    37   39   40 1
    38   41   39 1
    39   42   41 2
    40   43   42 1
    41   44   43 1
    42   45   43 1
    43   46   43 1
    44   47   46 1
    45   48   46 1
    46   49   46 1
    47   50   49 1
    48   51   49 1
    49   52   49 1
    50   53   52 1
    51   54   52 1
    52   55   42 1
    53   56   55 1
    54   57   55 1
    55   14   17 1
    56   33   36 1
    57   52   55 1
@<TRIPOS>SUBSTRUCTURE
     1 RES1 1
     2 RES2 20
     3 RES3 39

@<TRIPOS>CRYSIN
  20.9651   20.9651    7.6602  90.0000  90.0000 120.0000 147 1

