# MOL2 file generated by ConQuest
# Please check atom types

@<TRIPOS>MOLECULE
ZZZVPO03
    57    57     3
SMALL
NO_CHARGES
****
Generated from CSD

@<TRIPOS>ATOM
      1 O1         5.6052    5.5962    2.5121 O.3       1 RES1    0.0000
      2 H1         4.8869    5.1281    2.3007 H         1 RES1    0.0000
      3 N1         5.3233    6.9524    2.2481 N.2       1 RES1    0.0000
      4 C1         6.3510    7.7098    2.3107 C.2       1 RES1    0.0000
      5 C2         6.1473    9.1828    2.1127 C.3       1 RES1    0.0000
      6 H2         6.2340    9.6456    2.9841 H         1 RES1    0.0000
      7 H3         5.2332    9.3439    1.7703 H         1 RES1    0.0000
      8 C3         7.1648    9.7595    1.1297 C.3       1 RES1    0.0000
      9 H4         6.9873    9.4021    0.2240 H         1 RES1    0.0000
     10 H5         7.0681   10.7450    1.0961 H         1 RES1    0.0000
     11 C4         8.5802    9.4061    1.5417 C.3       1 RES1    0.0000
     12 H6         8.7772    9.8055    2.4261 H         1 RES1    0.0000
     13 H7         9.2199    9.7801    0.8851 H         1 RES1    0.0000
     14 C5         8.7504    7.8922    1.6143 C.3       1 RES1    0.0000
     15 H8         9.6732    7.6794    1.9048 H         1 RES1    0.0000
     16 H9         8.6156    7.5050    0.7131 H         1 RES1    0.0000
     17 C6         7.7529    7.2598    2.5912 C.3       1 RES1    0.0000
     18 H10        7.8004    6.2747    2.5178 H         1 RES1    0.0000
     19 H11        7.9977    7.5104    3.5176 H         1 RES1    0.0000
     20 O2         2.8204    8.1190    2.3454 O.3       2 RES2    0.0000
     21 H12        3.6038    7.6631    2.2931 H         2 RES2    0.0000
     22 N2         1.8230    7.1637    2.0554 N.2       2 RES2    0.0000
     23 C7         0.6366    7.6231    2.1479 C.2       2 RES2    0.0000
     24 C8        -0.4961    6.6711    1.8994 C.3       2 RES2    0.0000
     25 H13       -0.9432    6.4601    2.7578 H         2 RES2    0.0000
     26 H14       -0.1395    5.8277    1.5234 H         2 RES2    0.0000
     27 C9        -1.5175    7.2680    0.9302 C.3       2 RES2    0.0000
     28 H15       -1.1100    7.3523    0.0321 H         2 RES2    0.0000
     29 H16       -2.2976    6.6618    0.8576 H         2 RES2    0.0000
     30 C10       -1.9845    8.6362    1.4041 C.3       2 RES2    0.0000
     31 H17       -2.4382    8.5480    2.2801 H         2 RES2    0.0000
     32 H18       -2.6344    9.0078    0.7567 H         2 RES2    0.0000
     33 C11       -0.7943    9.5851    1.5379 C.3       2 RES2    0.0000
     34 H19       -1.1110   10.4615    1.8704 H         2 RES2    0.0000
     35 H20       -0.3861    9.7256    0.6466 H         2 RES2    0.0000
     36 C12        0.2629    9.0328    2.4956 C.3       2 RES2    0.0000
     37 H21        1.0712    9.6038    2.4574 H         2 RES2    0.0000
     38 H22       -0.0881    9.0605    3.4213 H         2 RES2    0.0000
     39 O3         2.1647    4.4886    1.3666 O.3       3 RES3    0.0000
     40 H23        2.0941    5.3534    1.5746 H         3 RES3    0.0000
     41 N3         3.4469    4.0414    1.7557 N.2       3 RES3    0.0000
     42 C13        3.5923    2.7687    1.6434 C.2       3 RES3    0.0000
     43 C14        4.9454    2.2041    1.9560 C.3       3 RES3    0.0000
     44 H24        5.4965    2.8984    2.3970 H         3 RES3    0.0000
     45 H25        5.3968    1.9480    1.1121 H         3 RES3    0.0000
     46 C15        4.8504    0.9784    2.8694 C.3       3 RES3    0.0000
     47 H26        5.7451    0.5597    2.9527 H         3 RES3    0.0000
     48 H27        4.5586    1.2629    3.7721 H         3 RES3    0.0000
     49 C16        3.8654   -0.0416    2.3191 C.3       3 RES3    0.0000
     50 H28        4.1893   -0.3762    1.4454 H         3 RES3    0.0000
     51 H29        3.8042   -0.8105    2.9397 H         3 RES3    0.0000
     52 C17        2.4902    0.5835    2.1456 C.3       3 RES3    0.0000
     53 H30        2.1424    0.8613    3.0307 H         3 RES3    0.0000
     54 H31        1.8696   -0.0909    1.7733 H         3 RES3    0.0000
     55 C18        2.5331    1.8012    1.2146 C.3       3 RES3    0.0000
     56 H32        2.7173    1.5010    0.2889 H         3 RES3    0.0000
     57 H33        1.6514    2.2533    1.2222 H         3 RES3    0.0000
@<TRIPOS>BOND
     1    1    2 1
     2    3    1 1
     3    4    3 2
     4    5    4 1
     5    6    5 1
     6    7    5 1
     7    8    5 1
     8    9    8 1
     9   10    8 1
    10   11    8 1
    11   12   11 1
    12   13   11 1
    13   14   11 1
    14   15   14 1
    15   16   14 1
    16   17    4 1
    17   18   17 1
    18   19   17 1
    19   20   21 1
    20   22   20 1
    21   23   22 2
    22   24   23 1
    23   25   24 1
    24   26   24 1
    25   27   24 1
    26   28   27 1
    27   29   27 1
    28   30   27 1
    29   31   30 1
    30   32   30 1
    31   33   30 1
    32   34   33 1
    33   35   33 1
    34   36   23 1
    35   37   36 1
    36   38   36 1
    37   39   40 1
    38   41   39 1
    39   42   41 2
    40   43   42 1
    41   44   43 1
    42   45   43 1
    43   46   43 1
    44   47   46 1
    45   48   46 1
    46   49   46 1
    47   50   49 1
    48   51   49 1
    49   52   49 1
    50   53   52 1
    51   54   52 1
    52   55   42 1
    53   56   55 1
    54   57   55 1
    55   14   17 1
    56   33   36 1
    57   52   55 1
@<TRIPOS>SUBSTRUCTURE
     1 RES1 1
     2 RES2 20
     3 RES3 39

@<TRIPOS>CRYSIN
  20.9830   20.9830    7.6436  90.0000  90.0000 120.0000 147 1

