# MOL2 file generated by ConQuest
# Please check atom types

@<TRIPOS>MOLECULE
ZZZVPO02
    57    57     3
SMALL
NO_CHARGES
****
Generated from CSD

@<TRIPOS>ATOM
      1 O1         7.6853   14.0432    2.4588 O.3       1 RES1    0.0000
      2 H1         6.8362   13.6931    2.1468 H         1 RES1    0.0000
      3 N1         8.7120   13.1610    2.0647 N.2       1 RES1    0.0000
      4 C1         9.9010   13.6731    2.1790 C.2       1 RES1    0.0000
      5 C2        10.1925   15.0605    2.6037 C.3       1 RES1    0.0000
      6 H2        10.5469   15.0533    3.5284 H         1 RES1    0.0000
      7 H3         9.3558   15.5872    2.5999 H         1 RES1    0.0000
      8 C3        11.2158   15.7216    1.6706 C.3       1 RES1    0.0000
      9 H4        10.8006   15.8850    0.7874 H         1 RES1    0.0000
     10 H5        11.4916   16.5951    2.0479 H         1 RES1    0.0000
     11 C4        12.4342   14.8390    1.5012 C.3       1 RES1    0.0000
     12 H6        13.0737   15.2785    0.8871 H         1 RES1    0.0000
     13 H7        12.8798   14.7246    2.3775 H         1 RES1    0.0000
     14 C5        12.0609   13.4806    0.9492 C.3       1 RES1    0.0000
     15 H8        12.8766   12.9249    0.8610 H         1 RES1    0.0000
     16 H9        11.6635   13.5877    0.0491 H         1 RES1    0.0000
     17 C6        11.0648   12.7832    1.8684 C.3       1 RES1    0.0000
     18 H10       10.7366   11.9569    1.4322 H         1 RES1    0.0000
     19 H11       11.5167   12.5271    2.7111 H         1 RES1    0.0000
     20 O2         8.4383   10.5150    1.3187 O.3       2 RES2    0.0000
     21 H12        8.5453   11.4230    1.4721 H         2 RES2    0.0000
     22 N2         7.1183   10.0700    1.5740 N.2       2 RES2    0.0000
     23 C7         6.9862    8.8061    1.5165 C.2       2 RES2    0.0000
     24 C8         8.0818    7.8199    1.2405 C.3       2 RES2    0.0000
     25 H13        8.9573    8.2721    1.3233 H         2 RES2    0.0000
     26 H14        7.9959    7.4858    0.3128 H         2 RES2    0.0000
     27 C9         8.0284    6.6449    2.2058 C.3       2 RES2    0.0000
     28 H15        8.2884    6.9537    3.1090 H         2 RES2    0.0000
     29 H16        8.6805    5.9585    1.9191 H         2 RES2    0.0000
     30 C10        6.6422    6.0166    2.2733 C.3       2 RES2    0.0000
     31 H17        6.3990    5.6425    1.3893 H         2 RES2    0.0000
     32 H18        6.6402    5.2793    2.9334 H         2 RES2    0.0000
     33 C11        5.6294    7.0735    2.6804 C.3       2 RES2    0.0000
     34 H19        4.7277    6.6667    2.7134 H         2 RES2    0.0000
     35 H20        5.8475    7.4041    3.5882 H         2 RES2    0.0000
     36 C12        5.6147    8.2431    1.7113 C.3       2 RES2    0.0000
     37 H21        5.2582    7.9416    0.8388 H         2 RES2    0.0000
     38 H22        5.0181    8.9495    2.0594 H         2 RES2    0.0000
     39 O3         4.8668   11.6574    1.4897 O.3       3 RES3    0.0000
     40 H23        5.5990   11.1506    1.5564 H         3 RES3    0.0000
     41 N3         5.2027   13.0030    1.7864 N.2       3 RES3    0.0000
     42 C13        4.2097   13.7820    1.6867 C.2       3 RES3    0.0000
     43 C14        2.7974   13.4098    1.3310 C.3       3 RES3    0.0000
     44 H24        2.6988   12.4255    1.3732 H         3 RES3    0.0000
     45 H25        2.6066   13.6967    0.4033 H         3 RES3    0.0000
     46 C15        1.7929   14.0599    2.2786 C.3       3 RES3    0.0000
     47 H26        0.8776   13.8983    1.9405 H         3 RES3    0.0000
     48 H27        1.8653   13.6368    3.1703 H         3 RES3    0.0000
     49 C16        2.0152   15.5636    2.4212 C.3       3 RES3    0.0000
     50 H28        1.8579   16.0067    1.5503 H         3 RES3    0.0000
     51 H29        1.3735   15.9341    3.0768 H         3 RES3    0.0000
     52 C17        3.4370   15.8360    2.8866 C.3       3 RES3    0.0000
     53 H30        3.5754   16.8130    2.9618 H         3 RES3    0.0000
     54 H31        3.5691   15.4401    3.7844 H         3 RES3    0.0000
     55 C18        4.4666   15.2585    1.9313 C.3       3 RES3    0.0000
     56 H32        4.4278   15.7470    1.0711 H         3 RES3    0.0000
     57 H33        5.3736   15.3765    2.3116 H         3 RES3    0.0000
@<TRIPOS>BOND
     1    1    2 1
     2    3    1 1
     3    4    3 2
     4    5    4 1
     5    6    5 1
     6    7    5 1
     7    8    5 1
     8    9    8 1
     9   10    8 1
    10   11    8 1
    11   12   11 1
    12   13   11 1
    13   14   11 1
    14   15   14 1
    15   16   14 1
    16   17    4 1
    17   18   17 1
    18   19   17 1
    19   20   21 1
    20   22   20 1
    21   23   22 2
    22   24   23 1
    23   25   24 1
    24   26   24 1
    25   27   24 1
    26   28   27 1
    27   29   27 1
    28   30   27 1
    29   31   30 1
    30   32   30 1
    31   33   30 1
    32   34   33 1
    33   35   33 1
    34   36   23 1
    35   37   36 1
    36   38   36 1
    37   39   40 1
    38   41   39 1
    39   42   41 2
    40   43   42 1
    41   44   43 1
    42   45   43 1
    43   46   43 1
    44   47   46 1
    45   48   46 1
    46   49   46 1
    47   50   49 1
    48   51   49 1
    49   52   49 1
    50   53   52 1
    51   54   52 1
    52   55   42 1
    53   56   55 1
    54   57   55 1
    55   14   17 1
    56   33   36 1
    57   52   55 1
@<TRIPOS>SUBSTRUCTURE
     1 RES1 1
     2 RES2 20
     3 RES3 39

@<TRIPOS>CRYSIN
  20.9700   20.9700    7.6670  90.0000  90.0000 120.0000 147 1

