# MOL2 file generated by ConQuest
# Please check atom types

@<TRIPOS>MOLECULE
ZZZVCO06
    14    14     1
SMALL
USER_CHARGES
****
Generated from CSD

@<TRIPOS>ATOM
      1 O1         3.9600    5.9400   14.7711 O.2       1 RES1   -1.0000
      2 N1         3.9600    5.9400   13.4489 N.pl3     1 RES1    1.0000
      3 C1         2.7973    5.9400   12.7782 C.ar      1 RES1    0.0000
      4 H1         1.9760    5.9400   13.2552 H         1 RES1    0.0000
      5 C2         2.7886    5.9400   11.3959 C.ar      1 RES1    0.0000
      6 H2         1.9578    5.9400   10.9360 H         1 RES1    0.0000
      7 C3         3.9600    5.9400   10.6735 C.ar      1 RES1    0.0000
      8 C4         3.9600    5.9400    9.1613 C.3       1 RES1    0.0000
      9 H3         3.0658    5.9305    8.8244 H         1 RES1    0.0000
     10 H4         4.3877    6.7399    8.8675 H         1 RES1    0.0000
     11 C1I        5.1227    5.9400   12.7782 C.ar      1 RES1    0.0000
     12 H1I        5.9440    5.9400   13.2552 H         1 RES1    0.0000
     13 C2I        5.1314    5.9400   11.3959 C.ar      1 RES1    0.0000
     14 H2I        5.9622    5.9400   10.9360 H         1 RES1    0.0000
@<TRIPOS>BOND
     1    1    2 1
     2    2    3 ar
     3    3    4 1
     4    5    3 ar
     5    6    5 1
     6    7    5 ar
     7    8    7 1
     8    9    8 1
     9   10    8 1
    10   11    2 ar
    11   12   11 1
    12   13    7 ar
    13   14   13 1
    14   11   13 ar
@<TRIPOS>SUBSTRUCTURE
     1 RES1 1

@<TRIPOS>CRYSIN
   7.9200    7.9200   19.5880  90.0000  90.0000  90.0000 141 1

