# MOL2 file generated by ConQuest
# Please check atom types

@<TRIPOS>MOLECULE
ZZZVPO01
   129   114     7
SMALL
NO_CHARGES
****
Generated from CSD

@<TRIPOS>ATOM
      1 O1         4.9398   11.7056   -0.0457 O.3       1 RES1    0.0000
      2 H1         5.6728   11.3447    0.1799 H         1 RES1    0.0000
      3 N1         5.2069   13.0564    0.2599 N.2       1 RES1    0.0000
      4 C1         4.1651   13.8033    0.1631 C.2       1 RES1    0.0000
      5 C2         2.7802   13.3454   -0.1585 C.3       1 RES1    0.0000
      6 H2         2.7456   12.3768   -0.1075 H         1 RES1    0.0000
      7 H3         2.5631   13.6052   -1.0669 H         1 RES1    0.0000
      8 C3         1.7374   13.9414    0.8033 C.3       1 RES1    0.0000
      9 H4         0.8467   13.7324    0.4809 H         1 RES1    0.0000
     10 H5         1.8413   13.5398    1.6797 H         1 RES1    0.0000
     11 C4         1.8916   15.4660    0.9183 C.3       1 RES1    0.0000
     12 H6         1.7342   15.8767    0.0541 H         1 RES1    0.0000
     13 H7         1.2369   15.8149    1.5440 H         1 RES1    0.0000
     14 C5         3.2975   15.8040    1.4023 C.3       1 RES1    0.0000
     15 H8         3.3961   16.7671    1.4640 H         1 RES1    0.0000
     16 H9         3.4328   15.4315    2.2871 H         1 RES1    0.0000
     17 C6         4.3256   15.2625    0.4733 C.3       1 RES1    0.0000
     18 H10        5.2017   15.4024    0.8627 H         1 RES1    0.0000
     19 H11        4.2889   15.7622   -0.3574 H         1 RES1    0.0000
     20 O2         7.6399   14.2031    1.2407 O.3       2 RES2    0.0000
     21 H12        6.8898   13.9142    1.0738 H         2 RES2    0.0000
     22 N2         8.6618   13.2400    0.7514 N.2       2 RES2    0.0000
     23 C7        10.1705   15.1989    1.2940 C.3       2 RES2    0.0000
     24 H13        9.3805   15.7277    1.1081 H         2 RES2    0.0000
     25 H14       10.3918   15.3170    2.2314 H         2 RES2    0.0000
     26 C8        11.2374   15.6877    0.5152 C.3       2 RES2    0.0000
     27 H15       11.5207   16.5382    0.8871 H         2 RES2    0.0000
     28 H16       10.9049   15.8604   -0.3803 H         2 RES2    0.0000
     29 C9        12.4712   14.7719    0.4039 C.3       2 RES2    0.0000
     30 H17       12.8888   14.6701    1.2773 H         2 RES2    0.0000
     31 H18       13.1207   15.1589   -0.2004 H         2 RES2    0.0000
     32 C10       11.9960   13.3745   -0.1288 C.3       2 RES2    0.0000
     33 H19       11.6550   13.4817   -1.0311 H         2 RES2    0.0000
     34 H20       12.7566   12.7766   -0.1692 H         2 RES2    0.0000
     35 C11       10.9825   12.7857    0.6821 C.3       2 RES2    0.0000
     36 H21       11.3906   12.4495    1.4968 H         2 RES2    0.0000
     37 H22       10.6027   12.0297    0.2096 H         2 RES2    0.0000
     38 C12        9.8536   13.7597    1.0547 C.2       2 RES2    0.0000
     39 O3         8.3670   10.5233    1.1005 O.3       3 RES3    0.0000
     40 H23        8.3219   11.5682    0.9260 H         3 RES3    0.0000
     41 N3         7.0513   10.1235    0.7743 N.2       3 RES3    0.0000
     42 C13        6.8866    8.8424    0.8764 C.2       3 RES3    0.0000
     43 C14        7.9368    7.8484    1.2575 C.3       3 RES3    0.0000
     44 H24        7.7763    7.5413    2.1636 H         3 RES3    0.0000
     45 H25        8.8066    8.2754    1.2354 H         3 RES3    0.0000
     46 C15        7.9379    6.6291    0.2980 C.3       3 RES3    0.0000
     47 H26        8.5327    5.9440    0.6425 H         3 RES3    0.0000
     48 H27        8.2652    6.9017   -0.5739 H         3 RES3    0.0000
     49 C16        6.4942    6.0512    0.1593 C.3       3 RES3    0.0000
     50 H28        6.5005    5.2953   -0.4496 H         3 RES3    0.0000
     51 H29        6.1795    5.7423    1.0227 H         3 RES3    0.0000
     52 C17        5.5710    7.1233   -0.3673 C.3       3 RES3    0.0000
     53 H30        5.8752    7.4032   -1.2453 H         3 RES3    0.0000
     54 H31        4.6803    6.7545   -0.4656 H         3 RES3    0.0000
     55 C18        5.5091    8.3245    0.5350 C.3       3 RES3    0.0000
     56 H32        5.0443    8.0865    1.3527 H         3 RES3    0.0000
     57 H33        5.0023    9.0278    0.0983 H         3 RES3    0.0000
     58 O4         2.8086   16.1638    4.8264 O.3       4 RES4    0.0000
     59 H34        3.5419   16.5182    4.7296 H         4 RES4    0.0000
     60 N4         1.7980   17.0855    4.5193 N.2       4 RES4    0.0000
     61 C19        0.6232   16.6127    4.5947 C.2       4 RES4    0.0000
     62 C20        0.2696   15.2225    4.9864 C.3       4 RES4    0.0000
     63 H35       -0.0766   15.2189    5.8918 H         4 RES4    0.0000
     64 H36        1.0691   14.6701    4.9697 H         4 RES4    0.0000
     65 C21       -0.7974   14.6210    4.0193 C.3       4 RES4    0.0000
     66 H37       -0.3955   14.4738    3.1482 H         4 RES4    0.0000
     67 H38       -1.0953   13.7633    4.3607 H         4 RES4    0.0000
     68 C22       -1.9808   15.5405    3.8738 C.3       4 RES4    0.0000
     69 H39       -2.6176   15.1535    3.2519 H         4 RES4    0.0000
     70 H40       -2.4225   15.6368    4.7326 H         4 RES4    0.0000
     71 C23       -1.5580   16.8834    3.3799 C.3       4 RES4    0.0000
     72 H41       -2.3375   17.4558    3.2999 H         4 RES4    0.0000
     73 H42       -1.1635   16.7926    2.4997 H         4 RES4    0.0000
     74 C24       -0.5235   17.5485    4.3501 C.3       4 RES4    0.0000
     75 H43       -0.1941   18.3735    3.9599 H         4 RES4    0.0000
     76 H44       -0.9558   17.7629    5.1914 H         4 RES4    0.0000
     77 O5         2.1109   19.7600    3.8151 O.3       5 RES5    0.0000
     78 H45        2.1308   18.8387    4.0048 H         5 RES5    0.0000
     79 N5         3.3898   20.1980    4.1451 N.2       5 RES5    0.0000
     80 C25        3.5335   21.4645    4.0902 C.2       5 RES5    0.0000
     81 C26        2.4487   22.4458    3.7686 C.3       5 RES5    0.0000
     82 H46        1.5895   22.0006    3.8326 H         5 RES5    0.0000
     83 H47        2.5578   22.7511    2.8541 H         5 RES5    0.0000
     84 C27        2.4571   23.6561    4.7060 C.3       5 RES5    0.0000
     85 H48        1.8360   24.3248    4.3767 H         5 RES5    0.0000
     86 H49        2.1633   23.3835    5.5900 H         5 RES5    0.0000
     87 C28        3.8525   24.2630    4.7982 C.3       5 RES5    0.0000
     88 H50        4.1190   24.5901    3.9256 H         5 RES5    0.0000
     89 H51        3.8378   25.0153    5.4101 H         5 RES5    0.0000
     90 C29        4.8607   23.2363    5.2836 C.3       5 RES5    0.0000
     91 H52        4.6047   22.9128    6.1616 H         5 RES5    0.0000
     92 H53        5.7378   23.6433    5.3538 H         5 RES5    0.0000
     93 C30        4.9058   22.0351    4.2609 C.3       5 RES5    0.0000
     94 H54        5.2405   22.3459    3.4051 H         5 RES5    0.0000
     95 H55        5.5080   21.3482    4.5894 H         5 RES5    0.0000
     96 O6         5.6402   18.6479    4.0285 O.3       6 RES6    0.0000
     97 H56        4.9835   19.0622    4.0239 H         6 RES6    0.0000
     98 N6         5.3244   17.3050    4.3874 N.2       6 RES6    0.0000
     99 C31        6.3180   16.5182    4.3432 C.2       6 RES6    0.0000
    100 C32        7.7249   16.8725    3.8753 C.3       6 RES6    0.0000
    101 H57        7.8099   16.6417    2.9371 H         6 RES6    0.0000
    102 H58        7.8487   17.8320    3.9561 H         6 RES6    0.0000
    103 C33        8.6985   16.2474    4.5650 C.3       6 RES6    0.0000
    104 H59        8.8359   16.7326    5.3972 H         6 RES6    0.0000
    105 H60        9.5221   16.3147    4.0574 H         6 RES6    0.0000
    106 C34        8.4719   14.7028    4.9331 C.3       6 RES6    0.0000
    107 H61        8.6691   14.1577    4.1557 H         6 RES6    0.0000
    108 H62        9.0835   14.4466    5.6418 H         6 RES6    0.0000
    109 C35        7.0356   14.4357    5.3850 C.3       6 RES6    0.0000
    110 H63        6.8856   13.4780    5.4307 H         6 RES6    0.0000
    111 H64        6.9024   14.8046    6.2721 H         6 RES6    0.0000
    112 C36        6.0704   15.0463    4.4423 C.3       6 RES6    0.0000
    113 H65        5.1660   14.8863    4.7532 H         6 RES6    0.0000
    114 H66        6.1669   14.6392    3.5674 H         6 RES6    0.0000
    115 O7         7.6630   14.2067    0.0564 Du        7 SUP7    0.0000
    116 C37       10.2523   15.1226   -0.0991 Du        7 SUP7    0.0000
    117 C38       11.9666   13.2654    1.4861 Du        7 SUP7    0.0000
    118 C39        9.8263   13.6688    0.1905 Du        7 SUP7    0.0000
    119 O8         8.4058   10.6051   -0.4573 Du        7 SUP7    0.0000
    120 N7         7.0398   10.1944   -0.1143 Du        7 SUP7    0.0000
    121 C40        6.8719    8.9587   -0.4115 Du        7 SUP7    0.0000
    122 C41        8.0575    7.7775   -0.6859 Du        7 SUP7    0.0000
    123 C42        6.8509    6.0512    0.1600 Du        7 SUP7    0.0000
    124 C43        5.4241    7.2142    0.7316 Du        7 SUP7    0.0000
    125 O9         2.0647   19.7091    4.2297 Du        7 SUP7    0.0000
    126 O10        5.6539   18.6679    4.9079 Du        7 SUP7    0.0000
    127 C44        7.7805   16.9943    4.9613 Du        7 SUP7    0.0000
    128 C45        8.5799   14.7955    3.9401 Du        7 SUP7    0.0000
    129 C46        7.1447   14.4720    3.5133 Du        7 SUP7    0.0000
@<TRIPOS>BOND
     1    1    2 1
     2    3    1 1
     3    4    3 2
     4    5    4 1
     5    6    5 1
     6    7    5 1
     7    8    5 1
     8    9    8 1
     9   10    8 1
    10   11    8 1
    11   12   11 1
    12   13   11 1
    13   14   11 1
    14   15   14 1
    15   16   14 1
    16   17    4 1
    17   18   17 1
    18   19   17 1
    19   20   21 1
    20   22   20 1
    21   23   24 1
    22   25   23 1
    23   26   23 1
    24   27   26 1
    25   28   26 1
    26   29   26 1
    27   30   29 1
    28   31   29 1
    29   32   29 1
    30   33   32 1
    31   34   32 1
    32   35   32 1
    33   36   35 1
    34   37   35 1
    35   38   22 2
    36   39   40 1
    37   41   39 1
    38   42   41 2
    39   43   42 1
    40   44   43 1
    41   45   43 1
    42   46   43 1
    43   47   46 1
    44   48   46 1
    45   49   46 1
    46   50   49 1
    47   51   49 1
    48   52   49 1
    49   53   52 1
    50   54   52 1
    51   55   42 1
    52   56   55 1
    53   57   55 1
    54   58   59 1
    55   60   58 1
    56   61   60 2
    57   62   61 1
    58   63   62 1
    59   64   62 1
    60   65   62 1
    61   66   65 1
    62   67   65 1
    63   68   65 1
    64   69   68 1
    65   70   68 1
    66   71   68 1
    67   72   71 1
    68   73   71 1
    69   74   61 1
    70   75   74 1
    71   76   74 1
    72   77   78 1
    73   79   77 1
    74   80   79 2
    75   81   80 1
    76   82   81 1
    77   83   81 1
    78   84   81 1
    79   85   84 1
    80   86   84 1
    81   87   84 1
    82   88   87 1
    83   89   87 1
    84   90   87 1
    85   91   90 1
    86   92   90 1
    87   93   80 1
    88   94   93 1
    89   95   93 1
    90   96   97 1
    91   98   96 1
    92   99   98 2
    93  100   99 1
    94  101  100 1
    95  102  100 1
    96  103  100 1
    97  104  103 1
    98  105  103 1
    99  106  103 1
   100  107  106 1
   101  108  106 1
   102  109  106 1
   103  110  109 1
   104  111  109 1
   105  112   99 1
   106  113  112 1
   107  114  112 1
   108   14   17 1
   109   23   38 1
   110   35   38 1
   111   52   55 1
   112   71   74 1
   113   90   93 1
   114  109  112 1
@<TRIPOS>SUBSTRUCTURE
     1 RES1 1
     2 RES2 20
     3 RES3 39
     4 RES4 58
     5 RES5 77
     6 RES6 96
     7 SUP7 115

@<TRIPOS>CRYSIN
  20.9830   20.9830    7.6210  90.0000  90.0000 120.0000 143 1

