# MOL2 file generated by ConQuest
# Please check atom types

@<TRIPOS>MOLECULE
ABAGIV
    35    36     1
SMALL
NO_CHARGES
****
Generated from CSD

@<TRIPOS>ATOM
      1 O1        -2.1821    6.6314    5.6309 O.2       1 RES1    0.0000
      2 O2        -2.2185    7.9352    3.9411 O.2       1 RES1    0.0000
      3 N1         0.5029    0.1436    3.6270 N.3       1 RES1    0.0000
      4 N2         0.2040    1.3862    3.1701 N.2       1 RES1    0.0000
      5 N3        -1.9487    6.8677    4.4697 N.pl3     1 RES1    0.0000
      6 C1        -0.0629    3.9437    2.1596 C.ar      1 RES1    0.0000
      7 H1         0.3733    3.3053    1.6424 H         1 RES1    0.0000
      8 C2        -0.3201    5.1795    1.6173 C.ar      1 RES1    0.0000
      9 H2        -0.0709    5.3595    0.7402 H         1 RES1    0.0000
     10 C3        -0.9436    6.1492    2.3618 C.ar      1 RES1    0.0000
     11 H3        -1.1195    6.9915    2.0061 H         1 RES1    0.0000
     12 C4        -1.2979    5.8365    3.6464 C.ar      1 RES1    0.0000
     13 C5        -1.0625    4.6034    4.2130 C.ar      1 RES1    0.0000
     14 H4        -1.3199    4.4328    5.0901 H         1 RES1    0.0000
     15 C6        -0.4356    3.6191    3.4613 C.ar      1 RES1    0.0000
     16 C7        -0.1618    2.2735    4.0272 C.2       1 RES1    0.0000
     17 C8         1.2183   -2.1101    3.2548 C.ar      1 RES1    0.0000
     18 C9         1.5919   -3.0944    2.3568 C.ar      1 RES1    0.0000
     19 H5         1.7897   -3.9462    2.6760 H         1 RES1    0.0000
     20 C10        1.6791   -2.8522    1.0048 C.ar      1 RES1    0.0000
     21 H6         1.9291   -3.5318    0.4217 H         1 RES1    0.0000
     22 C11        1.3958   -1.6045    0.5264 C.ar      1 RES1    0.0000
     23 H7         1.4505   -1.4364   -0.3866 H         1 RES1    0.0000
     24 C12        1.0308   -0.6000    1.3792 C.ar      1 RES1    0.0000
     25 H8         0.8547    0.2497    1.0443 H         1 RES1    0.0000
     26 C13        0.9225   -0.8405    2.7419 C.ar      1 RES1    0.0000
     27 C14        1.1336   -2.3914    4.7143 C.3       1 RES1    0.0000
     28 H9         1.4459   -3.2821    4.8872 H         1 RES1    0.0000
     29 H10        0.2212   -2.3116    5.0034 H         1 RES1    0.0000
     30 H11        1.6781   -1.7633    5.1941 H         1 RES1    0.0000
     31 C15       -0.2987    2.0195    5.4925 C.3       1 RES1    0.0000
     32 H12        0.4908    1.5806    5.8167 H         1 RES1    0.0000
     33 H13       -1.0632    1.4596    5.6496 H         1 RES1    0.0000
     34 H14       -0.4129    2.8548    5.9522 H         1 RES1    0.0000
     35 H15        0.4641   -0.0695    4.4611 H         1 RES1    0.0000
@<TRIPOS>BOND
     1    1    5 2
     2    2    5 2
     3    3    4 1
     4    4   16 2
     5    5   12 1
     6    6    7 1
     7    8    6 ar
     8    9    8 1
     9   10    8 ar
    10   11   10 1
    11   12   10 ar
    12   13   12 ar
    13   14   13 1
    14   15    6 ar
    15   16   15 1
    16   17   18 ar
    17   18   19 1
    18   20   18 ar
    19   21   20 1
    20   22   20 ar
    21   23   22 1
    22   24   22 ar
    23   25   24 1
    24   26    3 1
    25   27   17 1
    26   28   27 1
    27   29   27 1
    28   30   27 1
    29   31   16 1
    30   32   31 1
    31   33   31 1
    32   34   31 1
    33   35    3 1
    34   13   15 ar
    35   17   26 ar
    36   24   26 ar
@<TRIPOS>SUBSTRUCTURE
     1 RES1 1

@<TRIPOS>CRYSIN
   7.4763   25.7420    7.6564  90.0000 110.4850  90.0000 231 1

