# MOL2 file generated by ConQuest
# Please check atom types

@<TRIPOS>MOLECULE
ABAHIW
    26    26     1
SMALL
NO_CHARGES
****
Generated from CSD

@<TRIPOS>ATOM
      1 O1         1.3299    2.4029    1.3315 O.3       1 RES1    0.0000
      2 O2         1.8145    0.6907    2.7099 O.2       1 RES1    0.0000
      3 O3         0.4269    4.9488    7.9783 O.2       1 RES1    0.0000
      4 O4         0.5649    6.6349    6.6455 O.2       1 RES1    0.0000
      5 N1         0.6071    5.4350    6.8679 N.pl3     1 RES1    0.0000
      6 C1         1.2049    2.3153    4.9364 C.ar      1 RES1    0.0000
      7 H1         1.2967    1.3819    5.0883 H         1 RES1    0.0000
      8 C2         0.9829    3.1733    6.0038 C.ar      1 RES1    0.0000
      9 H2         0.9059    2.8390    6.8902 H         1 RES1    0.0000
     10 C3         0.8766    4.5239    5.7447 C.ar      1 RES1    0.0000
     11 C4         0.9800    5.0620    4.4702 C.ar      1 RES1    0.0000
     12 H3         0.9123    5.9988    4.3275 H         1 RES1    0.0000
     13 C5         1.1844    4.1884    3.4090 C.ar      1 RES1    0.0000
     14 H4         1.2503    4.5262    2.5235 H         1 RES1    0.0000
     15 C6         1.2933    2.8217    3.6388 C.ar      1 RES1    0.0000
     16 C7         1.5138    1.8447    2.5258 C.2       1 RES1    0.0000
     17 C8         1.4424    1.5376    0.1432 C.3       1 RES1    0.0000
     18 H5         1.2819    0.5866    0.4052 H         1 RES1    0.0000
     19 C9         2.8310    1.6771   -0.4164 C.3       1 RES1    0.0000
     20 H6         2.9754    2.6025   -0.7050 H         1 RES1    0.0000
     21 H7         2.9358    1.0759   -1.1837 H         1 RES1    0.0000
     22 H8         3.4861    1.4438    0.2740 H         1 RES1    0.0000
     23 C10        0.3533    1.9935   -0.7911 C.3       1 RES1    0.0000
     24 H9        -0.5145    1.9174   -0.3422 H         1 RES1    0.0000
     25 H10        0.3564    1.4327   -1.5951 H         1 RES1    0.0000
     26 H11        0.5098    2.9272   -1.0441 H         1 RES1    0.0000
@<TRIPOS>BOND
     1    1   16 1
     2    2   16 2
     3    3    5 2
     4    4    5 2
     5    5   10 1
     6    6    7 1
     7    8    6 ar
     8    9    8 1
     9   10    8 ar
    10   11   10 ar
    11   12   11 1
    12   13   11 ar
    13   14   13 1
    14   15    6 ar
    15   16   15 1
    16   17    1 1
    17   18   17 1
    18   19   17 1
    19   20   19 1
    20   21   19 1
    21   22   19 1
    22   23   17 1
    23   24   23 1
    24   25   23 1
    25   26   23 1
    26   13   15 ar
@<TRIPOS>SUBSTRUCTURE
     1 RES1 1

@<TRIPOS>CRYSIN
   6.7290    7.1920   10.3880  94.7510  92.5030  95.9010   2 1

