# MOL2 file generated by ConQuest
# Please check atom types

@<TRIPOS>MOLECULE
ABANAU
    40    40     2
SMALL
NO_CHARGES
****
Generated from CSD

@<TRIPOS>ATOM
      1 O1         5.2977    1.0985    5.2971 O.2       1 RES1    0.0000
      2 O2         4.8420    1.9764    3.3340 O.3       1 RES1    0.0000
      3 O3         4.8665    3.4261    7.9309 O.2       1 RES1    0.0000
      4 O4         4.0136    3.8376    6.1005 O.2       1 RES1    0.0000
      5 O5         2.0297    1.1095   11.0860 O.2       1 RES1    0.0000
      6 O6         0.9782   -0.6036   10.4017 O.2       1 RES1    0.0000
      7 O7         0.5357    2.7248    4.9549 O.2       1 RES1    0.0000
      8 O8        -0.5268    2.9059    3.1081 O.2       1 RES1    0.0000
      9 O9        -0.9828   -1.1117    0.6241 O.2       1 RES1    0.0000
     10 O10        0.7775   -2.2870    0.2675 O.2       1 RES1    0.0000
     11 N1         3.8771    3.3087    7.0947 N.pl3     1 RES1    0.0000
     12 N2         1.6614    0.3709   10.2131 N.pl3     1 RES1    0.0000
     13 N3         0.2832    2.3550    3.8349 N.pl3     1 RES1    0.0000
     14 N4         0.1788   -1.4135    0.8395 N.pl3     1 RES1    0.0000
     15 C1         4.5195    1.5364    4.5253 C.2       1 RES1    0.0000
     16 C2         3.0281    1.6527    4.7704 C.3       1 RES1    0.0000
     17 H1         2.7848    2.5910    4.6278 H         1 RES1    0.0000
     18 C3         2.6995    1.3202    6.2184 C.ar      1 RES1    0.0000
     19 C4         3.1003    2.0884    7.2982 C.ar      1 RES1    0.0000
     20 C5         2.7925    1.7789    8.5957 C.ar      1 RES1    0.0000
     21 H2         3.0899    2.3133    9.2973 H         1 RES1    0.0000
     22 C6         2.0490    0.6826    8.8329 C.ar      1 RES1    0.0000
     23 C7         1.6257   -0.1394    7.8236 C.ar      1 RES1    0.0000
     24 H3         1.1231   -0.8988    8.0078 H         1 RES1    0.0000
     25 C8         1.9610    0.1855    6.5245 C.ar      1 RES1    0.0000
     26 H4         1.6838   -0.3720    5.8341 H         1 RES1    0.0000
     27 C9         2.2574    0.8351    3.7607 C.ar      1 RES1    0.0000
     28 C10        0.9804    1.1841    3.3191 C.ar      1 RES1    0.0000
     29 C11        0.2935    0.4598    2.3660 C.ar      1 RES1    0.0000
     30 H5        -0.5543    0.7177    2.0857 H         1 RES1    0.0000
     31 C12        0.8985   -0.6431    1.8486 C.ar      1 RES1    0.0000
     32 C13        2.1454   -1.0348    2.2442 C.ar      1 RES1    0.0000
     33 H6         2.5432   -1.7910    1.8758 H         1 RES1    0.0000
     34 C14        2.8010   -0.2952    3.1942 C.ar      1 RES1    0.0000
     35 H7         3.6471   -0.5674    3.4665 H         1 RES1    0.0000
     36 C15        6.2182    1.8316    2.9234 C.3       1 RES1    0.0000
     37 H8         6.7742    2.3967    3.4649 H         1 RES1    0.0000
     38 H9         6.3056    2.0851    2.0024 H         1 RES1    0.0000
     39 H10        6.4900    0.9174    3.0308 H         1 RES1    0.0000
     40 O11        3.7763    4.1767    8.1119 Du        2 SUP2    0.0000
@<TRIPOS>BOND
     1    1   15 2
     2    2   15 1
     3    3   11 2
     4    4   11 2
     5    5   12 2
     6    6   12 2
     7    7   13 2
     8    8   13 2
     9    9   14 2
    10   10   14 2
    11   11   19 1
    12   12   22 1
    13   13   28 1
    14   14   31 1
    15   15   16 1
    16   16   17 1
    17   18   16 1
    18   19   18 ar
    19   20   19 ar
    20   21   20 1
    21   22   20 ar
    22   23   22 ar
    23   24   23 1
    24   25   18 ar
    25   26   25 1
    26   27   16 1
    27   28   27 ar
    28   29   28 ar
    29   30   29 1
    30   31   29 ar
    31   32   31 ar
    32   33   32 1
    33   34   27 ar
    34   35   34 1
    35   36    2 1
    36   37   36 1
    37   38   36 1
    38   39   36 1
    39   23   25 ar
    40   32   34 ar
@<TRIPOS>SUBSTRUCTURE
     1 RES1 1
     2 SUP2 40

@<TRIPOS>CRYSIN
   9.8120   10.9740   16.0250  90.0000  91.5890  90.0000  14 1

