# MOL2 file generated by ConQuest
# Please check atom types

@<TRIPOS>MOLECULE
ABAPIE
    46    47     1
SMALL
NO_CHARGES
****
Generated from CSD

@<TRIPOS>ATOM
      1 C1         2.2729    6.0454    4.8282 C.ar      1 RES1    0.0000
      2 C2         1.5019    5.5412    5.8688 C.ar      1 RES1    0.0000
      3 H1         1.2668    6.1013    6.5727 H         1 RES1    0.0000
      4 C3         1.0781    4.2324    5.8822 C.ar      1 RES1    0.0000
      5 H2         0.5533    3.9158    6.5819 H         1 RES1    0.0000
      6 C4         1.4383    3.3967    4.8511 C.ar      1 RES1    0.0000
      7 H3         1.1528    2.5119    4.8579 H         1 RES1    0.0000
      8 C5         2.2208    3.8541    3.8022 C.ar      1 RES1    0.0000
      9 H4         2.4564    3.2802    3.1095 H         1 RES1    0.0000
     10 C6         2.6504    5.1709    3.7918 C.ar      1 RES1    0.0000
     11 C7         2.7241    7.4318    4.8048 C.2       1 RES1    0.0000
     12 H5         3.5257    7.6523    4.3872 H         1 RES1    0.0000
     13 C8         3.8950    4.8741    1.7611 C.3       1 RES1    0.0000
     14 H6         3.1556    4.6122    1.1907 H         1 RES1    0.0000
     15 H7         4.2946    4.0721    2.1321 H         1 RES1    0.0000
     16 C9         4.9099    5.6336    0.9703 C.2       1 RES1    0.0000
     17 C10        6.3509    5.4174    1.2781 C.2       1 RES1    0.0000
     18 C11        7.8916    4.4203    2.7571 C.3       1 RES1    0.0000
     19 H8         8.4059    4.2349    1.9675 H         1 RES1    0.0000
     20 H9         7.9127    3.6572    3.3391 H         1 RES1    0.0000
     21 H10        8.2645    5.1795    3.2104 H         1 RES1    0.0000
     22 C12        4.6501    6.4872   -0.0277 C.2       1 RES1    0.0000
     23 H11        5.4067    6.8652   -0.4151 H         1 RES1    0.0000
     24 C13        3.3901    6.9283   -0.6133 C.ar      1 RES1    0.0000
     25 C14        2.1347    6.8418   -0.0066 C.ar      1 RES1    0.0000
     26 H12        2.0646    6.4889    0.8510 H         1 RES1    0.0000
     27 C15        0.9961    7.2714   -0.6599 C.ar      1 RES1    0.0000
     28 H13        0.1722    7.1845   -0.2377 H         1 RES1    0.0000
     29 C16        1.0499    7.8294   -1.9299 C.ar      1 RES1    0.0000
     30 C17        2.2964    7.9475   -2.5218 C.ar      1 RES1    0.0000
     31 H14        2.3650    8.3314   -3.3658 H         1 RES1    0.0000
     32 C18        3.4362    7.5077   -1.8852 C.ar      1 RES1    0.0000
     33 H15        4.2574    7.5987   -2.3119 H         1 RES1    0.0000
     34 C19       -0.2022    8.3160   -2.6216 C.3       1 RES1    0.0000
     35 H16       -0.5063    9.1248   -2.1808 H         1 RES1    0.0000
     36 H17        0.0182    8.5465   -3.5373 H         1 RES1    0.0000
     37 C20       -1.3132    7.3354   -2.6330 C.3       1 RES1    0.0000
     38 H18       -1.0620    6.5734   -3.1605 H         1 RES1    0.0000
     39 H19       -2.0952    7.7429   -3.0110 H         1 RES1    0.0000
     40 H20       -1.5002    7.0546   -1.7345 H         1 RES1    0.0000
     41 N1         2.0249    8.3380    5.3531 N.2       1 RES1    0.0000
     42 O1         2.6383    9.5982    5.2695 O.3       1 RES1    0.0000
     43 H21        2.1136   10.1753    5.5234 H         1 RES1    0.0000
     44 O2         3.4247    5.7282    2.8196 O.3       1 RES1    0.0000
     45 O3         6.5308    4.7028    2.3876 O.3       1 RES1    0.0000
     46 O4         7.2640    5.8088    0.6076 O.2       1 RES1    0.0000
@<TRIPOS>BOND
     1    1    2 ar
     2    2    3 1
     3    4    2 ar
     4    5    4 1
     5    6    4 ar
     6    7    6 1
     7    8    6 ar
     8    9    8 1
     9   10    1 ar
    10   11    1 1
    11   12   11 1
    12   13   14 1
    13   15   13 1
    14   16   13 1
    15   17   16 1
    16   18   19 1
    17   20   18 1
    18   21   18 1
    19   22   16 2
    20   23   22 1
    21   24   22 1
    22   25   24 ar
    23   26   25 1
    24   27   25 ar
    25   28   27 1
    26   29   27 ar
    27   30   29 ar
    28   31   30 1
    29   32   24 ar
    30   33   32 1
    31   34   29 1
    32   35   34 1
    33   36   34 1
    34   37   34 1
    35   38   37 1
    36   39   37 1
    37   40   37 1
    38   41   11 2
    39   42   41 1
    40   43   42 1
    41   44   10 1
    42   45   17 1
    43   46   17 2
    44    8   10 ar
    45   13   44 1
    46   18   45 1
    47   30   32 ar
@<TRIPOS>SUBSTRUCTURE
     1 RES1 1

@<TRIPOS>CRYSIN
   9.0053    9.3655   12.1793  75.2990  74.7560  64.8910   2 1

