# MOL2 file generated by ConQuest
# Please check atom types

@<TRIPOS>MOLECULE
ABAVEG
    31    31     1
SMALL
NO_CHARGES
****
Generated from CSD

@<TRIPOS>ATOM
      1 O1         4.5238    3.1657    0.8933 O.3       1 RES1    0.0000
      2 C1         4.6899    2.1893    1.7986 C.ar      1 RES1    0.0000
      3 C2         5.7953    1.3279    1.6341 C.ar      1 RES1    0.0000
      4 O2         8.4197    1.2559   -0.8486 O.3       1 RES1    0.0000
      5 C3         6.0165    0.3127    2.5560 C.ar      1 RES1    0.0000
      6 H1         6.7581   -0.2657    2.4219 H         1 RES1    0.0000
      7 C4         5.1996    0.0995    3.6735 C.ar      1 RES1    0.0000
      8 C5         4.1116    0.9406    3.8180 C.ar      1 RES1    0.0000
      9 H2         3.5269    0.8235    4.5578 H         1 RES1    0.0000
     10 C6         3.8579    1.9547    2.8997 C.ar      1 RES1    0.0000
     11 C7         6.6734    1.5523    0.4823 C.2       1 RES1    0.0000
     12 H3         6.4487    2.2236   -0.1509 H         1 RES1    0.0000
     13 N1         7.7324    0.8641    0.3143 N.2       1 RES1    0.0000
     14 C8         5.4836   -1.0444    4.6466 C.3       1 RES1    0.0000
     15 C9         5.0147   -2.3568    4.0065 C.3       1 RES1    0.0000
     16 H4         4.0524   -2.3078    3.8283 H         1 RES1    0.0000
     17 H5         5.1957   -3.1009    4.6181 H         1 RES1    0.0000
     18 H6         5.4960   -2.5002    3.1645 H         1 RES1    0.0000
     19 C10        6.9853   -1.1257    4.9490 C.3       1 RES1    0.0000
     20 H7         7.4758   -1.3123    4.1209 H         1 RES1    0.0000
     21 H8         7.1497   -1.8439    5.5956 H         1 RES1    0.0000
     22 H9         7.2896   -0.2729    5.3240 H         1 RES1    0.0000
     23 C11        4.7479   -0.8512    5.9766 C.3       1 RES1    0.0000
     24 H10        4.9806    0.0224    6.3552 H         1 RES1    0.0000
     25 H11        5.0116   -1.5584    6.6019 H         1 RES1    0.0000
     26 H12        3.7807   -0.8938    5.8238 H         1 RES1    0.0000
     27 N2         2.6872    2.7892    3.1296 N.pl3     1 RES1    0.0000
     28 O3         2.4561    3.7243    2.3434 O.2       1 RES1    0.0000
     29 O4         1.9631    2.5444    4.0857 O.2       1 RES1    0.0000
     30 H13        9.0251    0.6798   -0.8397 H         1 RES1    0.0000
     31 H14        3.8591    3.6448    1.1414 H         1 RES1    0.0000
@<TRIPOS>BOND
     1    1    2 1
     2    2    3 ar
     3    3    5 ar
     4    4   13 1
     5    5    6 1
     6    7    5 ar
     7    8    7 ar
     8    9    8 1
     9   10    2 ar
    10   11    3 1
    11   12   11 1
    12   13   11 2
    13   14    7 1
    14   15   14 1
    15   16   15 1
    16   17   15 1
    17   18   15 1
    18   19   14 1
    19   20   19 1
    20   21   19 1
    21   22   19 1
    22   23   14 1
    23   24   23 1
    24   25   23 1
    25   26   23 1
    26   27   10 1
    27   28   27 2
    28   29   27 2
    29   30    4 1
    30   31    1 1
    31    8   10 ar
@<TRIPOS>SUBSTRUCTURE
     1 RES1 1

@<TRIPOS>CRYSIN
   5.9763    7.3363   13.4872  80.5450  80.0300  86.5690   2 1

