# MOL2 file generated by ConQuest
# Please check atom types

@<TRIPOS>MOLECULE
ABAWAD
    41    41     1
SMALL
NO_CHARGES
****
Generated from CSD

@<TRIPOS>ATOM
      1 O1         8.5216    0.4412   12.8792 O.3       1 RES1    0.0000
      2 H1         8.5441    1.0287   13.5095 H         1 RES1    0.0000
      3 C1         9.7638    0.3983   12.2979 C.ar      1 RES1    0.0000
      4 O2         9.5423    3.2908   15.4008 O.3       1 RES1    0.0000
      5 H2         8.7087    3.5234   15.4047 H         1 RES1    0.0000
      6 C2        10.8235    1.1935   12.7557 C.ar      1 RES1    0.0000
      7 N1         9.5120    2.3402   14.3649 N.2       1 RES1    0.0000
      8 C3        12.0568    1.0863   12.1131 C.ar      1 RES1    0.0000
      9 H3        12.7808    1.6143   12.4299 H         1 RES1    0.0000
     10 C4        12.2733    0.2429   11.0324 C.ar      1 RES1    0.0000
     11 C5        11.1912   -0.5350   10.6165 C.ar      1 RES1    0.0000
     12 H4        11.3045   -1.1323    9.8866 H         1 RES1    0.0000
     13 C6         9.9609   -0.4588   11.2377 C.ar      1 RES1    0.0000
     14 H5         9.2444   -1.0019   10.9313 H         1 RES1    0.0000
     15 C7        10.6611    2.1336   13.8615 C.2       1 RES1    0.0000
     16 H6        11.4183    2.5927   14.2064 H         1 RES1    0.0000
     17 C8        13.6497    0.1932   10.3593 C.3       1 RES1    0.0000
     18 C9        14.7065   -0.0960   11.4474 C.3       1 RES1    0.0000
     19 H7        14.6859    0.6164   12.1198 H         1 RES1    0.0000
     20 H8        15.5963   -0.1320   11.0375 H         1 RES1    0.0000
     21 H9        14.5084   -0.9558   11.8754 H         1 RES1    0.0000
     22 C10       13.7453   -0.9707    9.3611 C.3       1 RES1    0.0000
     23 H10       13.5495   -1.8127    9.8224 H         1 RES1    0.0000
     24 H11       14.6497   -1.0060    8.9858 H         1 RES1    0.0000
     25 H12       13.0974   -0.8351    8.6381 H         1 RES1    0.0000
     26 C11       14.0416    1.5444    9.7075 C.3       1 RES1    0.0000
     27 H13       14.2346    2.1650   10.4551 H         1 RES1    0.0000
     28 H14       14.9030    1.3875    9.2456 H         1 RES1    0.0000
     29 C12       13.1578    2.3308    8.7128 C.3       1 RES1    0.0000
     30 C13       12.6002    1.5025    7.5705 C.3       1 RES1    0.0000
     31 H15       11.9672    0.8432    7.9244 H         1 RES1    0.0000
     32 H16       13.3335    1.0392    7.1144 H         1 RES1    0.0000
     33 H17       12.1398    2.0897    6.9356 H         1 RES1    0.0000
     34 C14       14.0573    3.4213    8.1087 C.3       1 RES1    0.0000
     35 H18       14.7739    3.0026    7.5878 H         1 RES1    0.0000
     36 H19       14.4473    3.9591    8.8294 H         1 RES1    0.0000
     37 H20       13.5234    3.9980    7.5236 H         1 RES1    0.0000
     38 C15       11.9935    3.0439    9.4108 C.3       1 RES1    0.0000
     39 H21       11.5534    3.6489    8.7777 H         1 RES1    0.0000
     40 H22       12.3346    3.5598   10.1716 H         1 RES1    0.0000
     41 H23       11.3473    2.3797    9.7302 H         1 RES1    0.0000
@<TRIPOS>BOND
     1    1    2 1
     2    3    1 1
     3    4    5 1
     4    6    3 ar
     5    7    4 1
     6    8    6 ar
     7    9    8 1
     8   10    8 ar
     9   11   10 ar
    10   12   11 1
    11   13    3 ar
    12   14   13 1
    13   15    6 1
    14   16   15 1
    15   17   10 1
    16   18   17 1
    17   19   18 1
    18   20   18 1
    19   21   18 1
    20   22   17 1
    21   23   22 1
    22   24   22 1
    23   25   22 1
    24   26   17 1
    25   27   26 1
    26   28   26 1
    27   29   26 1
    28   30   29 1
    29   31   30 1
    30   32   30 1
    31   33   30 1
    32   34   29 1
    33   35   34 1
    34   36   34 1
    35   37   34 1
    36   38   29 1
    37   39   38 1
    38   40   38 1
    39   41   38 1
    40    7   15 2
    41   11   13 ar
@<TRIPOS>SUBSTRUCTURE
     1 RES1 1

@<TRIPOS>CRYSIN
  12.5153    8.0997   14.0564  90.0000  96.4960  90.0000  14 2

