# MOL2 file generated by ConQuest
# Please check atom types

@<TRIPOS>MOLECULE
ABEJOH
    23    24     1
SMALL
NO_CHARGES
****
Generated from CSD

@<TRIPOS>ATOM
      1 C1         2.2828    1.9906    3.1568 C.3       1 RES1    0.0000
      2 H1         1.5939    1.3222    3.4368 H         1 RES1    0.0000
      3 N1         2.0211    2.5437    1.8317 N.3       1 RES1    0.0000
      4 N2         1.9390    1.7381    0.7692 N.pl3     1 RES1    0.0000
      5 O1         1.6660    2.2582   -0.3078 O.2       1 RES1    0.0000
      6 O2         2.1642    0.5418    0.9617 O.2       1 RES1    0.0000
      7 C2         1.7317    3.9690    1.7443 C.3       1 RES1    0.0000
      8 H2         0.8684    4.1401    1.2921 H         1 RES1    0.0000
      9 H3         2.4523    4.4606    1.2763 H         1 RES1    0.0000
     10 N3         1.6751    4.3158    3.1712 N.3       1 RES1    0.0000
     11 N4         0.4838    4.8945    3.6208 N.pl3     1 RES1    0.0000
     12 O3        -0.1062    5.5856    2.7948 O.2       1 RES1    0.0000
     13 O4         0.1631    4.7360    4.7765 O.2       1 RES1    0.0000
     14 C3         2.2438    3.2749    4.0126 C.3       1 RES1    0.0000
     15 H4         1.7370    3.1519    4.8657 H         1 RES1    0.0000
     16 N5         3.6688    3.4941    4.2348 N.am      1 RES1    0.0000
     17 N6         4.0708    4.4946    5.1152 N.pl3     1 RES1    0.0000
     18 O5         5.2515    4.5608    5.3965 O.2       1 RES1    0.0000
     19 O6         3.1762    5.2236    5.4980 O.2       1 RES1    0.0000
     20 C4         4.4862    2.4014    3.8126 C.2       1 RES1    0.0000
     21 O7         5.6864    2.3311    3.8871 O.2       1 RES1    0.0000
     22 N7         3.6207    1.4971    3.3077 N.am      1 RES1    0.0000
     23 H5         3.8906    0.8267    2.8261 H         1 RES1    0.0000
@<TRIPOS>BOND
     1    1    2 1
     2    3    1 1
     3    4    3 1
     4    5    4 2
     5    6    4 2
     6    7    3 1
     7    8    7 1
     8    9    7 1
     9   10    7 1
    10   11   10 1
    11   12   11 2
    12   13   11 2
    13   14    1 1
    14   15   14 1
    15   16   14 1
    16   17   16 1
    17   18   17 2
    18   19   17 2
    19   20   16 1
    20   21   20 2
    21   22    1 1
    22   23   22 1
    23   10   14 1
    24   20   22 1
@<TRIPOS>SUBSTRUCTURE
     1 RES1 1

@<TRIPOS>CRYSIN
  11.3962    6.4089   12.3267  90.0000  97.7860  90.0000  14 1

