# MOL2 file generated by ConQuest
# Please check atom types

@<TRIPOS>MOLECULE
ABENUQ
    28    29     1
SMALL
NO_CHARGES
****
Generated from CSD

@<TRIPOS>ATOM
      1 O1         7.5597    1.4156    5.4518 O.3       1 RES1    0.0000
      2 O2         8.7624   -0.0624    2.9890 O.3       1 RES1    0.0000
      3 O3         6.6539   -1.4242    5.6323 O.3       1 RES1    0.0000
      4 O4        10.1942    1.8111    6.2150 O.3       1 RES1    0.0000
      5 O5         6.2325    1.2657    1.5354 O.2       1 RES1    0.0000
      6 O6         4.1586    1.0153    1.0133 O.2       1 RES1    0.0000
      7 N1         5.5775    1.2047    4.2229 N.pl3     1 RES1    0.0000
      8 N2         3.4281    1.1711    3.5994 N.2       1 RES1    0.0000
      9 N3         5.0530    1.1600    1.8158 N.pl3     1 RES1    0.0000
     10 C1         7.0670    1.1659    4.1623 C.3       1 RES1    0.0000
     11 C2         7.5737   -0.2181    3.7326 C.3       1 RES1    0.0000
     12 C3         7.8525   -0.8900    5.0883 C.3       1 RES1    0.0000
     13 C4         8.3011    0.2770    5.9425 C.3       1 RES1    0.0000
     14 C5         9.7979    0.5078    5.8243 C.3       1 RES1    0.0000
     15 C6         4.6809    1.1804    3.2142 C.2       1 RES1    0.0000
     16 C7         3.5137    1.1989    4.9693 C.2       1 RES1    0.0000
     17 C8         4.8227    1.2136    5.3594 C.2       1 RES1    0.0000
     18 H1         7.3786    1.8942    3.4989 H         1 RES1    0.0000
     19 H2         6.9401   -0.6719    3.2399 H         1 RES1    0.0000
     20 H3         8.6151   -0.4851    2.3167 H         1 RES1    0.0000
     21 H4         8.5271   -1.5256    4.9198 H         1 RES1    0.0000
     22 H5         6.2119   -1.7685    5.1803 H         1 RES1    0.0000
     23 H6         8.1266    0.1653    6.8104 H         1 RES1    0.0000
     24 H7        10.0605    1.9524    7.0390 H         1 RES1    0.0000
     25 H8        10.0804    0.4204    4.8815 H         1 RES1    0.0000
     26 H9        10.2384   -0.2702    6.2670 H         1 RES1    0.0000
     27 H10        2.7033    1.2698    5.5182 H         1 RES1    0.0000
     28 H11        5.2227    1.1749    6.1484 H         1 RES1    0.0000
@<TRIPOS>BOND
     1    1   10 1
     2    2   11 1
     3    3   12 1
     4    4   14 1
     5    5    9 2
     6    6    9 2
     7    7   10 1
     8    8   15 2
     9    9   15 1
    10   10   11 1
    11   11   12 1
    12   12   13 1
    13   13    1 1
    14   14   13 1
    15   15    7 1
    16   16    8 1
    17   17    7 1
    18   18   10 1
    19   19   11 1
    20   20    2 1
    21   21   12 1
    22   22    3 1
    23   23   13 1
    24   24    4 1
    25   25   14 1
    26   26   14 1
    27   27   16 1
    28   28   17 1
    29   16   17 2
@<TRIPOS>SUBSTRUCTURE
     1 RES1 1

@<TRIPOS>CRYSIN
  10.0120    7.1860    7.4530  90.0000 103.8900  90.0000   4 1

