# MOL2 file generated by ConQuest
# Please check atom types

@<TRIPOS>MOLECULE
ABICUJ
    69    72     1
SMALL
NO_CHARGES
****
Generated from CSD

@<TRIPOS>ATOM
      1 O1        16.6526    4.2418    5.7783 O.3       1 RES1    0.0000
      2 O2        13.9753    5.7866    7.5885 O.3       1 RES1    0.0000
      3 O3        13.6133    5.0110    9.6682 O.2       1 RES1    0.0000
      4 O4        10.2306    7.3916   12.3673 O.2       1 RES1    0.0000
      5 O5         9.7742    9.4470   11.8161 O.2       1 RES1    0.0000
      6 O6         9.7973   10.3026    6.9702 O.2       1 RES1    0.0000
      7 O7        11.4863    9.5103    5.8611 O.2       1 RES1    0.0000
      8 O8        14.0285    5.2874    3.9156 O.3       1 RES1    0.0000
      9 O9        12.1534    5.6789    5.1075 O.2       1 RES1    0.0000
     10 O10        9.3086    9.3669    3.5533 O.2       1 RES1    0.0000
     11 O11        9.7128   10.3556    1.6615 O.2       1 RES1    0.0000
     12 O12       13.4410    8.8088   -1.0857 O.2       1 RES1    0.0000
     13 O13       14.0750    6.7673   -0.7514 O.2       1 RES1    0.0000
     14 N1        10.2338    8.3363   11.5813 N.pl3     1 RES1    0.0000
     15 N2        10.7678    9.5705    6.8562 N.pl3     1 RES1    0.0000
     16 N3         9.9519    9.5174    2.5135 N.pl3     1 RES1    0.0000
     17 N4        13.4870    7.7857   -0.4126 N.pl3     1 RES1    0.0000
     18 C1        15.3947    4.9070    5.9170 C.3       1 RES1    0.0000
     19 C2        14.4615    4.2726    4.8738 C.3       1 RES1    0.0000
     20 C3        15.3357    3.2757    4.1224 C.3       1 RES1    0.0000
     21 C4        16.7395    3.8042    4.4109 C.3       1 RES1    0.0000
     22 C5        14.9797    4.7483    7.3716 C.3       1 RES1    0.0000
     23 C6        13.3779    5.7857    8.7793 C.2       1 RES1    0.0000
     24 C7        12.3701    6.8889    8.8956 C.ar      1 RES1    0.0000
     25 C8        11.7597    7.0900   10.1177 C.ar      1 RES1    0.0000
     26 C9        10.8566    8.1122   10.2574 C.ar      1 RES1    0.0000
     27 C10       10.5021    8.9559    9.2176 C.ar      1 RES1    0.0000
     28 C11       11.1155    8.7110    8.0034 C.ar      1 RES1    0.0000
     29 C12       12.0424    7.7003    7.8122 C.ar      1 RES1    0.0000
     30 C13       12.8619    5.8874    4.1459 C.2       1 RES1    0.0000
     31 C14       12.4992    6.8446    3.0569 C.ar      1 RES1    0.0000
     32 C15       11.4214    7.7009    3.2749 C.ar      1 RES1    0.0000
     33 C16       11.0823    8.6020    2.2809 C.ar      1 RES1    0.0000
     34 C17       11.7558    8.6816    1.0723 C.ar      1 RES1    0.0000
     35 C18       12.7755    7.7689    0.8777 C.ar      1 RES1    0.0000
     36 C19       13.1879    6.8689    1.8437 C.ar      1 RES1    0.0000
     37 C20       15.1070    1.8657    4.6412 C.3       1 RES1    0.0000
     38 C21       17.8879    2.8365    4.2633 C.3       1 RES1    0.0000
     39 C22       18.0706    2.4222    2.8031 C.3       1 RES1    0.0000
     40 C23       19.2527    1.5168    2.5090 C.ar      1 RES1    0.0000
     41 C24       19.8167    0.6781    3.4628 C.ar      1 RES1    0.0000
     42 C25       20.8909   -0.1395    3.1407 C.ar      1 RES1    0.0000
     43 C26       21.4246   -0.1229    1.8493 C.ar      1 RES1    0.0000
     44 C27       20.8596    0.6936    0.8978 C.ar      1 RES1    0.0000
     45 C28       19.7833    1.5054    1.2243 C.ar      1 RES1    0.0000
     46 H1        15.4769    5.9014    5.7213 H         1 RES1    0.0000
     47 H2        13.6989    3.8465    5.2472 H         1 RES1    0.0000
     48 H3        15.1315    3.3381    3.1866 H         1 RES1    0.0000
     49 H4        16.9249    4.5750    3.8463 H         1 RES1    0.0000
     50 H5        14.5870    3.8417    7.5248 H         1 RES1    0.0000
     51 H6        15.7632    4.8874    7.9161 H         1 RES1    0.0000
     52 H7        11.9537    6.6222   10.7785 H         1 RES1    0.0000
     53 H8         9.9181    9.6802    9.3361 H         1 RES1    0.0000
     54 H9        12.3839    7.5454    7.0105 H         1 RES1    0.0000
     55 H10       10.9546    7.6879    4.0922 H         1 RES1    0.0000
     56 H11       11.5255    9.2925    0.4361 H         1 RES1    0.0000
     57 H12       13.8946    6.2995    1.6727 H         1 RES1    0.0000
     58 H13       15.6732    1.1670    4.1929 H         1 RES1    0.0000
     59 H14       14.1234    1.6003    4.5730 H         1 RES1    0.0000
     60 H15       15.2785    1.8542    5.6017 H         1 RES1    0.0000
     61 H16       17.7325    2.0541    4.8078 H         1 RES1    0.0000
     62 H17       18.6503    3.2611    4.5730 H         1 RES1    0.0000
     63 H18       17.2316    1.9552    2.4822 H         1 RES1    0.0000
     64 H19       18.1373    3.1802    2.2250 H         1 RES1    0.0000
     65 H20       19.4407    0.6621    4.3941 H         1 RES1    0.0000
     66 H21       21.2942   -0.6840    3.7904 H         1 RES1    0.0000
     67 H22       22.1951   -0.6270    1.6436 H         1 RES1    0.0000
     68 H23       21.1797    0.7055   -0.0112 H         1 RES1    0.0000
     69 H24       19.4666    2.0572    0.5590 H         1 RES1    0.0000
@<TRIPOS>BOND
     1    1   18 1
     2    2   22 1
     3    3   23 2
     4    4   14 2
     5    5   14 2
     6    6   15 2
     7    7   15 2
     8    8   19 1
     9    9   30 2
    10   10   16 2
    11   11   16 2
    12   12   17 2
    13   13   17 2
    14   14   26 1
    15   15   28 1
    16   16   33 1
    17   17   35 1
    18   18   19 1
    19   19   20 1
    20   20   21 1
    21   21    1 1
    22   22   18 1
    23   23    2 1
    24   24   23 1
    25   25   24 ar
    26   26   25 ar
    27   27   26 ar
    28   28   27 ar
    29   29   24 ar
    30   30    8 1
    31   31   30 1
    32   32   31 ar
    33   33   32 ar
    34   34   33 ar
    35   35   34 ar
    36   36   31 ar
    37   37   20 1
    38   38   21 1
    39   39   38 1
    40   40   39 1
    41   41   40 ar
    42   42   41 ar
    43   43   42 ar
    44   44   43 ar
    45   45   40 ar
    46   46   18 1
    47   47   19 1
    48   48   20 1
    49   49   21 1
    50   50   22 1
    51   51   22 1
    52   52   25 1
    53   53   27 1
    54   54   29 1
    55   55   32 1
    56   56   34 1
    57   57   36 1
    58   58   37 1
    59   59   37 1
    60   60   37 1
    61   61   38 1
    62   62   38 1
    63   63   39 1
    64   64   39 1
    65   65   41 1
    66   66   42 1
    67   67   43 1
    68   68   44 1
    69   69   45 1
    70   28   29 ar
    71   35   36 ar
    72   44   45 ar
@<TRIPOS>SUBSTRUCTURE
     1 RES1 1

@<TRIPOS>CRYSIN
  11.5924   11.7511   12.3782  72.9710  66.0370  65.7610   2 1

