# MOL2 file generated by ConQuest
# Please check atom types

@<TRIPOS>MOLECULE
ABOFUT
    80    85     1
SMALL
NO_CHARGES
****
Generated from CSD

@<TRIPOS>ATOM
      1 O1         1.6748    5.1532    4.9621 O.3       1 RES1    0.0000
      2 O2         0.9634    1.0739    2.3912 O.3       1 RES1    0.0000
      3 O3         0.0231    4.5186    1.4792 O.2       1 RES1    0.0000
      4 N1         2.5781    4.5196    4.0473 N.3       1 RES1    0.0000
      5 C1         1.8242    3.3808    3.4770 C.3       1 RES1    0.0000
      6 H1         2.0136    3.3235    2.5171 H         1 RES1    0.0000
      7 C2         0.3183    3.7446    3.6740 C.3       1 RES1    0.0000
      8 H2        -0.1126    3.1112    4.2856 H         1 RES1    0.0000
      9 C3         0.3874    5.1438    4.3061 C.3       1 RES1    0.0000
     10 H3         0.3814    5.8197    3.5963 H         1 RES1    0.0000
     11 C4         3.1394    5.4430    3.1229 C.ar      1 RES1    0.0000
     12 C5         3.9071    4.9525    2.0762 C.ar      1 RES1    0.0000
     13 H4         4.0045    4.0334    1.9713 H         1 RES1    0.0000
     14 C6         4.5255    5.8040    1.1925 C.ar      1 RES1    0.0000
     15 H5         5.0183    5.4573    0.4837 H         1 RES1    0.0000
     16 C7         4.4194    7.1596    1.3504 C.ar      1 RES1    0.0000
     17 H6         4.8314    7.7383    0.7492 H         1 RES1    0.0000
     18 C8         3.6985    7.6528    2.4029 C.ar      1 RES1    0.0000
     19 H7         3.6378    8.5732    2.5199 H         1 RES1    0.0000
     20 C9         3.0580    6.8092    3.2952 C.ar      1 RES1    0.0000
     21 H8         2.5757    7.1621    4.0073 H         1 RES1    0.0000
     22 C10        2.1766    2.0639    4.1246 C.ar      1 RES1    0.0000
     23 C11        1.7056    0.8873    3.5353 C.ar      1 RES1    0.0000
     24 C12        1.9833   -0.3360    4.0916 C.ar      1 RES1    0.0000
     25 H9         1.6948   -1.1166    3.6764 H         1 RES1    0.0000
     26 C13        2.7003   -0.3987    5.2797 C.ar      1 RES1    0.0000
     27 H10        2.8677   -1.2296    5.6629 H         1 RES1    0.0000
     28 C14        3.1721    0.7364    5.9079 C.ar      1 RES1    0.0000
     29 C15        2.9192    1.9625    5.2888 C.ar      1 RES1    0.0000
     30 H11        3.2609    2.7383    5.6718 H         1 RES1    0.0000
     31 C16        0.2534   -0.0480    1.8876 C.3       1 RES1    0.0000
     32 H12        0.8761   -0.6895    1.5368 H         1 RES1    0.0000
     33 H13       -0.3400    0.2350    1.1896 H         1 RES1    0.0000
     34 H14       -0.2550   -0.4501    2.5966 H         1 RES1    0.0000
     35 C17        3.9421    0.6875    7.2409 C.3       1 RES1    0.0000
     36 C18        3.4004    1.7770    8.1729 C.3       1 RES1    0.0000
     37 H15        2.4578    1.6488    8.3033 H         1 RES1    0.0000
     38 H16        3.5553    2.6390    7.7807 H         1 RES1    0.0000
     39 H17        3.8502    1.7261    9.0197 H         1 RES1    0.0000
     40 C19        3.7115   -0.6499    7.9613 C.3       1 RES1    0.0000
     41 H18        2.7699   -0.7901    8.0841 H         1 RES1    0.0000
     42 H19        4.1465   -0.6306    8.8168 H         1 RES1    0.0000
     43 H20        4.0754   -1.3645    7.4335 H         1 RES1    0.0000
     44 C20        5.4403    0.8530    6.9546 C.ar      1 RES1    0.0000
     45 C21        6.1168   -0.1317    6.2469 C.ar      1 RES1    0.0000
     46 H21        5.6404   -0.8616    5.9223 H         1 RES1    0.0000
     47 C22        7.4728   -0.0596    6.0101 C.ar      1 RES1    0.0000
     48 H22        7.8979   -0.7399    5.5404 H         1 RES1    0.0000
     49 C23        8.1903    1.0021    6.4632 C.ar      1 RES1    0.0000
     50 H23        9.1065    1.0482    6.3116 H         1 RES1    0.0000
     51 C24        7.5596    1.9930    7.1375 C.ar      1 RES1    0.0000
     52 H24        8.0470    2.7259    7.4390 H         1 RES1    0.0000
     53 C25        6.1833    1.9274    7.3846 C.ar      1 RES1    0.0000
     54 H25        5.7656    2.6194    7.8452 H         1 RES1    0.0000
     55 C26       -0.4104    3.7742    2.3317 C.2       1 RES1    0.0000
     56 C27       -1.6062    2.9268    2.0689 C.ar      1 RES1    0.0000
     57 C28       -2.3027    2.2389    3.0487 C.ar      1 RES1    0.0000
     58 H26       -2.0186    2.2831    3.9331 H         1 RES1    0.0000
     59 C29       -3.4134    1.4857    2.7238 C.ar      1 RES1    0.0000
     60 H27       -3.8741    1.0278    3.3886 H         1 RES1    0.0000
     61 C30       -3.8393    1.4135    1.4198 C.ar      1 RES1    0.0000
     62 H28       -4.5851    0.9031    1.2024 H         1 RES1    0.0000
     63 C31       -3.1660    2.0931    0.4380 C.ar      1 RES1    0.0000
     64 H29       -3.4600    2.0443   -0.4431 H         1 RES1    0.0000
     65 C32       -2.0542    2.8517    0.7512 C.ar      1 RES1    0.0000
     66 H30       -1.6028    3.3118    0.0810 H         1 RES1    0.0000
     67 C33       -0.6966    5.4625    5.3047 C.ar      1 RES1    0.0000
     68 C34       -2.0061    5.5564    4.8846 C.ar      1 RES1    0.0000
     69 H31       -2.2029    5.4737    3.9795 H         1 RES1    0.0000
     70 C35       -3.0331    5.7724    5.7853 C.ar      1 RES1    0.0000
     71 H32       -3.9095    5.8064    5.4765 H         1 RES1    0.0000
     72 C36       -2.7902    5.9382    7.1207 C.ar      1 RES1    0.0000
     73 C37       -1.4827    5.8746    7.5309 C.ar      1 RES1    0.0000
     74 H33       -1.2852    5.9962    8.4318 H         1 RES1    0.0000
     75 C38       -0.4500    5.6357    6.6461 C.ar      1 RES1    0.0000
     76 H34        0.4237    5.5905    6.9617 H         1 RES1    0.0000
     77 C39       -3.9199    6.1842    8.0950 C.3       1 RES1    0.0000
     78 H35       -4.0645    7.1280    8.1846 H         1 RES1    0.0000
     79 H36       -3.6906    5.8121    8.9502 H         1 RES1    0.0000
     80 H37       -4.7205    5.7660    7.7698 H         1 RES1    0.0000
@<TRIPOS>BOND
     1    1    4 1
     2    2   23 1
     3    3   55 2
     4    4    5 1
     5    5    6 1
     6    7    5 1
     7    8    7 1
     8    9    1 1
     9   10    9 1
    10   11    4 1
    11   12   11 ar
    12   13   12 1
    13   14   12 ar
    14   15   14 1
    15   16   14 ar
    16   17   16 1
    17   18   16 ar
    18   19   18 1
    19   20   11 ar
    20   21   20 1
    21   22    5 1
    22   23   22 ar
    23   24   23 ar
    24   25   24 1
    25   26   24 ar
    26   27   26 1
    27   28   26 ar
    28   29   22 ar
    29   30   29 1
    30   31    2 1
    31   32   31 1
    32   33   31 1
    33   34   31 1
    34   35   28 1
    35   36   35 1
    36   37   36 1
    37   38   36 1
    38   39   36 1
    39   40   35 1
    40   41   40 1
    41   42   40 1
    42   43   40 1
    43   44   35 1
    44   45   44 ar
    45   46   45 1
    46   47   45 ar
    47   48   47 1
    48   49   47 ar
    49   50   49 1
    50   51   49 ar
    51   52   51 1
    52   53   44 ar
    53   54   53 1
    54   55    7 1
    55   56   55 1
    56   57   56 ar
    57   58   57 1
    58   59   57 ar
    59   60   59 1
    60   61   59 ar
    61   62   61 1
    62   63   61 ar
    63   64   63 1
    64   65   56 ar
    65   66   65 1
    66   67    9 1
    67   68   67 ar
    68   69   68 1
    69   70   68 ar
    70   71   70 1
    71   72   70 ar
    72   73   72 ar
    73   74   73 1
    74   75   67 ar
    75   76   75 1
    76   77   72 1
    77   78   77 1
    78   79   77 1
    79   80   77 1
    80    7    9 1
    81   18   20 ar
    82   28   29 ar
    83   51   53 ar
    84   63   65 ar
    85   73   75 ar
@<TRIPOS>SUBSTRUCTURE
     1 RES1 1

@<TRIPOS>CRYSIN
   8.7480    9.9720   18.7440 100.7900  94.4400 102.4600   2 1

