# MOL2 file generated by ConQuest
# Please check atom types

@<TRIPOS>MOLECULE
ABULIT03
    21    21     1
SMALL
NO_CHARGES
****
Generated from CSD

@<TRIPOS>ATOM
      1 O1         6.3737   -0.1299   10.3381 O.3       1 RES1    0.0000
      2 N1         6.9154    0.7212    9.3734 N.2       1 RES1    0.0000
      3 C1         7.3111    1.8342    9.8291 C.2       1 RES1    0.0000
      4 C2         7.8381    2.8435    8.9255 C.ar      1 RES1    0.0000
      5 C3         7.9845    2.5752    7.5592 C.ar      1 RES1    0.0000
      6 O2         7.7260    1.3636    7.0245 O.3       1 RES1    0.0000
      7 C4         8.4226    3.5874    6.6928 C.ar      1 RES1    0.0000
      8 O3         8.5033    3.1970    5.3788 O.3       1 RES1    0.0000
      9 C5         9.1235    4.1212    4.4898 C.3       1 RES1    0.0000
     10 C6         8.7456    4.8197    7.1928 C.ar      1 RES1    0.0000
     11 C7         8.6161    5.0901    8.5543 C.ar      1 RES1    0.0000
     12 C8         8.1650    4.1127    9.4129 C.ar      1 RES1    0.0000
     13 H1         5.9760   -0.6885    9.8791 H         1 RES1    0.0000
     14 H2         7.2522    2.0244   10.7435 H         1 RES1    0.0000
     15 H3         7.4275    0.8234    7.6380 H         1 RES1    0.0000
     16 H4         9.2059    3.7180    3.6178 H         1 RES1    0.0000
     17 H5        10.0022    4.3604    4.8039 H         1 RES1    0.0000
     18 H6         8.6187    4.9254    4.3877 H         1 RES1    0.0000
     19 H7         9.0502    5.4798    6.6150 H         1 RES1    0.0000
     20 H8         8.8502    5.9192    8.8820 H         1 RES1    0.0000
     21 H9         8.0787    4.2689   10.3364 H         1 RES1    0.0000
@<TRIPOS>BOND
     1    1    2 1
     2    2    3 2
     3    3    4 1
     4    4    5 ar
     5    5    6 1
     6    6   15 1
     7    7    5 ar
     8    8    7 1
     9    9    8 1
    10   10    7 ar
    11   11   10 ar
    12   12    4 ar
    13   13    1 1
    14   14    3 1
    15   16    9 1
    16   17    9 1
    17   18    9 1
    18   19   10 1
    19   20   11 1
    20   21   12 1
    21   11   12 ar
@<TRIPOS>SUBSTRUCTURE
     1 RES1 1

@<TRIPOS>CRYSIN
  13.0765    7.0982   15.2455  90.0000  90.0000  90.0000  61 1

