# MOL2 file generated by ConQuest
# Please check atom types

@<TRIPOS>MOLECULE
ABULIT06
    21    21     1
SMALL
NO_CHARGES
****
Generated from CSD

@<TRIPOS>ATOM
      1 O1         5.9265   -0.2006   10.0937 O.3       1 RES1    0.0000
      2 N1         6.4257    0.6817    9.1470 N.2       1 RES1    0.0000
      3 C1         6.8601    1.7716    9.6152 C.2       1 RES1    0.0000
      4 C2         7.3147    2.7977    8.6964 C.ar      1 RES1    0.0000
      5 C3         7.4249    2.5297    7.3332 C.ar      1 RES1    0.0000
      6 O2         7.2212    1.2968    6.8185 O.3       1 RES1    0.0000
      7 C4         7.7985    3.5377    6.4576 C.ar      1 RES1    0.0000
      8 O3         7.8534    3.1482    5.1405 O.3       1 RES1    0.0000
      9 C5         8.5108    4.0584    4.2663 C.3       1 RES1    0.0000
     10 C6         8.0672    4.7963    6.9228 C.ar      1 RES1    0.0000
     11 C7         7.9811    5.0601    8.2856 C.ar      1 RES1    0.0000
     12 C8         7.5910    4.0743    9.1605 C.ar      1 RES1    0.0000
     13 H1         5.5088   -0.7289    9.5502 H         1 RES1    0.0000
     14 H2         6.8521    1.9167   10.5304 H         1 RES1    0.0000
     15 H3         6.9771    0.8400    7.4329 H         1 RES1    0.0000
     16 H4         8.5763    3.6370    3.3981 H         1 RES1    0.0000
     17 H5         9.4014    4.2590    4.5856 H         1 RES1    0.0000
     18 H6         7.9951    4.8740    4.1947 H         1 RES1    0.0000
     19 H7         8.2887    5.4607    6.3150 H         1 RES1    0.0000
     20 H8         8.1747    5.9292    8.5922 H         1 RES1    0.0000
     21 H9         7.5158    4.2562   10.0788 H         1 RES1    0.0000
@<TRIPOS>BOND
     1    1    2 1
     2    2    3 2
     3    3    4 1
     4    4    5 ar
     5    5    6 1
     6    6   15 1
     7    7    5 ar
     8    8    7 1
     9    9    8 1
    10   10    7 ar
    11   11   10 ar
    12   12    4 ar
    13   13    1 1
    14   14    3 1
    15   16    9 1
    16   17    9 1
    17   18    9 1
    18   19   10 1
    19   20   11 1
    20   21   12 1
    21   11   12 ar
@<TRIPOS>SUBSTRUCTURE
     1 RES1 1

@<TRIPOS>CRYSIN
  12.1340    6.9421   14.8065  90.0000  90.0000  90.0000  61 1

