# MOL2 file generated by ConQuest
# Please check atom types

@<TRIPOS>MOLECULE
ABULIT04
    21    21     1
SMALL
NO_CHARGES
****
Generated from CSD

@<TRIPOS>ATOM
      1 O1         6.1370   -0.1595   10.2138 O.3       1 RES1    0.0000
      2 N1         6.6635    0.7048    9.2535 N.2       1 RES1    0.0000
      3 C1         7.0741    1.8093    9.7172 C.2       1 RES1    0.0000
      4 C2         7.5676    2.8211    8.8049 C.ar      1 RES1    0.0000
      5 C3         7.6945    2.5591    7.4394 C.ar      1 RES1    0.0000
      6 O2         7.4627    1.3294    6.9123 O.3       1 RES1    0.0000
      7 C4         8.0999    3.5667    6.5658 C.ar      1 RES1    0.0000
      8 O3         8.1627    3.1746    5.2504 O.3       1 RES1    0.0000
      9 C5         8.7944    4.0993    4.3703 C.3       1 RES1    0.0000
     10 C6         8.3846    4.8181    7.0482 C.ar      1 RES1    0.0000
     11 C7         8.2779    5.0837    8.4110 C.ar      1 RES1    0.0000
     12 C8         7.8610    4.0979    9.2776 C.ar      1 RES1    0.0000
     13 H1         5.8504   -0.7308    9.6271 H         1 RES1    0.0000
     14 H2         7.0368    1.9787   10.6438 H         1 RES1    0.0000
     15 H3         7.1714    0.8502    7.5695 H         1 RES1    0.0000
     16 H4         8.8409    3.6643    3.4994 H         1 RES1    0.0000
     17 H5         9.6877    4.2939    4.6784 H         1 RES1    0.0000
     18 H6         8.2748    4.9143    4.3089 H         1 RES1    0.0000
     19 H7         8.6636    5.4856    6.4521 H         1 RES1    0.0000
     20 H8         8.4849    5.9367    8.7304 H         1 RES1    0.0000
     21 H9         7.7829    4.2735   10.1963 H         1 RES1    0.0000
@<TRIPOS>BOND
     1    1    2 1
     2    2    3 2
     3    3    4 1
     4    4    5 ar
     5    5    6 1
     6    6   15 1
     7    7    5 ar
     8    8    7 1
     9    9    8 1
    10   10    7 ar
    11   11   10 ar
    12   12    4 ar
    13   13    1 1
    14   14    3 1
    15   16    9 1
    16   17    9 1
    17   18    9 1
    18   19   10 1
    19   20   11 1
    20   21   12 1
    21   11   12 ar
@<TRIPOS>SUBSTRUCTURE
     1 RES1 1

@<TRIPOS>CRYSIN
  12.5814    7.0265   15.0188  90.0000  90.0000  90.0000  61 1

