# MOL2 file generated by ConQuest
# Please check atom types

@<TRIPOS>MOLECULE
ABULIT01
    21    21     1
SMALL
NO_CHARGES
****
Generated from CSD

@<TRIPOS>ATOM
      1 O1         6.7419   -0.0784   10.5793 O.3       1 RES1    0.0000
      2 N1         7.3158    0.7560    9.6146 N.2       1 RES1    0.0000
      3 C1         7.7083    1.8739   10.0759 C.2       1 RES1    0.0000
      4 C2         8.2921    2.8688    9.1799 C.ar      1 RES1    0.0000
      5 C3         8.4629    2.6149    7.8161 C.ar      1 RES1    0.0000
      6 O2         8.1496    1.4150    7.2574 O.3       1 RES1    0.0000
      7 C4         8.9673    3.6033    6.9663 C.ar      1 RES1    0.0000
      8 O3         9.0619    3.2314    5.6520 O.3       1 RES1    0.0000
      9 C5         9.6555    4.1759    4.7571 C.3       1 RES1    0.0000
     10 C6         9.3332    4.8262    7.4863 C.ar      1 RES1    0.0000
     11 C7         9.1870    5.0765    8.8524 C.ar      1 RES1    0.0000
     12 C8         8.6656    4.1219    9.6865 C.ar      1 RES1    0.0000
     13 H1         6.3990   -0.7050   10.0615 H         1 RES1    0.0000
     14 H2         7.6162    2.0696   10.9970 H         1 RES1    0.0000
     15 H3         7.8735    0.9208    7.9267 H         1 RES1    0.0000
     16 H4         9.6485    3.7723    3.8708 H         1 RES1    0.0000
     17 H5        10.5611    4.3888    5.0135 H         1 RES1    0.0000
     18 H6         9.1324    4.9988    4.7545 H         1 RES1    0.0000
     19 H7         9.6805    5.4858    6.9300 H         1 RES1    0.0000
     20 H8         9.4385    5.9131    9.2138 H         1 RES1    0.0000
     21 H9         8.5510    4.3011   10.6077 H         1 RES1    0.0000
@<TRIPOS>BOND
     1    1    2 1
     2    2    3 2
     3    3    4 1
     4    4    5 ar
     5    5    6 1
     6    6   15 1
     7    7    5 ar
     8    8    7 1
     9    9    8 1
    10   10    7 ar
    11   11   10 ar
    12   12    4 ar
    13   13    1 1
    14   14    3 1
    15   16    9 1
    16   17    9 1
    17   18    9 1
    18   19   10 1
    19   20   11 1
    20   21   12 1
    21   11   12 ar
@<TRIPOS>SUBSTRUCTURE
     1 RES1 1

@<TRIPOS>CRYSIN
  13.9108    7.1936   15.6965  90.0000  90.0000  90.0000  61 1

