# MOL2 file generated by ConQuest
# Please check atom types

@<TRIPOS>MOLECULE
ABUSIC
   101    70     2
SMALL
NO_CHARGES
****
Generated from CSD

@<TRIPOS>ATOM
      1 N1         5.9641    5.9279    2.1194 N.3       1 RES1    0.0000
      2 N2        10.3959    7.0822   -1.1266 N.pl3     1 RES1    0.0000
      3 O1         5.5153    6.0606   -1.9543 O.2       1 RES1    0.0000
      4 O2        11.4838    7.2607   -0.5945 O.2       1 RES1    0.0000
      5 O3        10.2121    7.1866   -2.3368 O.2       1 RES1    0.0000
      6 C1         4.5433    5.6744    0.1728 C.2       1 RES1    0.0000
      7 C2         4.7267    5.6791    1.5291 C.2       1 RES1    0.0000
      8 C3         7.0757    6.1610    1.3305 C.ar      1 RES1    0.0000
      9 C4         8.3550    6.3693    1.8972 C.ar      1 RES1    0.0000
     10 H1         8.4681    6.3131    2.8380 H         1 RES1    0.0000
     11 C5         9.4350    6.6511    1.1008 C.ar      1 RES1    0.0000
     12 H2        10.2929    6.7863    1.4846 H         1 RES1    0.0000
     13 C6         9.2562    6.7367   -0.2796 C.ar      1 RES1    0.0000
     14 C7         8.0369    6.5132   -0.8676 C.ar      1 RES1    0.0000
     15 H3         7.9450    6.5632   -1.8115 H         1 RES1    0.0000
     16 C8         6.9344    6.2120   -0.0695 C.ar      1 RES1    0.0000
     17 C9         5.6336    5.9834   -0.7304 C.2       1 RES1    0.0000
     18 C10        3.2291    5.3219   -0.4602 C.ar      1 RES1    0.0000
     19 C11        2.4309    6.2830   -1.0681 C.ar      1 RES1    0.0000
     20 H4         2.7058    7.1919   -1.0785 H         1 RES1    0.0000
     21 C12        1.2282    5.9148   -1.6615 C.ar      1 RES1    0.0000
     22 C13        0.8253    4.5848   -1.6470 C.ar      1 RES1    0.0000
     23 H5         0.0037    4.3331   -2.0509 H         1 RES1    0.0000
     24 C14        1.6236    3.6229   -1.0390 C.ar      1 RES1    0.0000
     25 C15        2.8263    3.9918   -0.4456 C.ar      1 RES1    0.0000
     26 H6         3.3721    3.3345   -0.0291 H         1 RES1    0.0000
     27 C16        0.3514    6.9639   -2.3424 C.3       1 RES1    0.0000
     28 H7         0.8710    7.4290   -3.0295 H         1 RES1    0.0000
     29 H8         0.0378    7.6106   -1.6761 H         1 RES1    0.0000
     30 H9        -0.4197    6.5249   -2.7588 H         1 RES1    0.0000
     31 C17        1.2118    2.1608   -1.0890 C.3       1 RES1    0.0000
     32 H10        0.2349    2.0949   -1.0327 H         1 RES1    0.0000
     33 H11        1.6149    1.6811   -0.3352 H         1 RES1    0.0000
     34 H12        1.5171    1.7634   -1.9301 H         1 RES1    0.0000
     35 C18        3.5679    5.4457    2.4440 C.ar      1 RES1    0.0000
     36 C19        2.6488    6.4662    2.6568 C.ar      1 RES1    0.0000
     37 H13        2.7684    7.3068    2.2300 H         1 RES1    0.0000
     38 C20        1.5607    6.2642    3.4870 C.ar      1 RES1    0.0000
     39 H14        0.9505    6.9769    3.6354 H         1 RES1    0.0000
     40 C21        1.3414    5.0458    4.1058 C.ar      1 RES1    0.0000
     41 C22        2.2538    4.0293    3.8736 C.ar      1 RES1    0.0000
     42 H15        2.1202    3.1830    4.2850 H         1 RES1    0.0000
     43 C23        3.3576    4.2174    3.0560 C.ar      1 RES1    0.0000
     44 H16        3.9708    3.5056    2.9150 H         1 RES1    0.0000
     45 C24        0.1279    4.8299    4.9849 C.3       1 RES1    0.0000
     46 H17       -0.4705    4.1808    4.5599 H         1 RES1    0.0000
     47 H18       -0.3449    5.6803    5.1054 H         1 RES1    0.0000
     48 H19        0.4136    4.4887    5.8571 H         1 RES1    0.0000
     49 C25        6.0573    6.1217    3.6167 C.3       1 RES1    0.0000
     50 H20        5.1427    6.2186    3.9831 H         1 RES1    0.0000
     51 H21        6.5423    6.9655    3.7999 H         1 RES1    0.0000
     52 C26        6.7589    4.9855    4.3498 C.ar      1 RES1    0.0000
     53 C27        6.7662    3.6823    3.8670 C.ar      1 RES1    0.0000
     54 H22        6.3579    3.4828    3.0337 H         1 RES1    0.0000
     55 C28        7.3724    2.6715    4.6042 C.ar      1 RES1    0.0000
     56 H23        7.3768    1.7805    4.2746 H         1 RES1    0.0000
     57 C29        7.9698    2.9639    5.8244 C.ar      1 RES1    0.0000
     58 C30        7.9623    4.2671    6.3074 C.ar      1 RES1    0.0000
     59 H24        8.3703    4.4675    7.1417 H         1 RES1    0.0000
     60 C31        7.3561    5.2779    5.5701 C.ar      1 RES1    0.0000
     61 H25        7.3513    6.1689    5.9008 H         1 RES1    0.0000
     62 O4         8.6242    2.0484    6.6187 O.3       1 RES1    0.0000
     63 C32        8.4859    0.6638    6.2735 C.3       1 RES1    0.0000
     64 H26        7.5368    0.4455    6.1756 H         1 RES1    0.0000
     65 H27        8.8791    0.1100    6.9793 H         1 RES1    0.0000
     66 H28        8.9491    0.4911    5.4261 H         1 RES1    0.0000
     67 C33        3.2171    5.3080   -0.3977 Du        2 SUP2    0.0000
     68 C34        2.2580    6.2740   -0.6788 Du        2 SUP2    0.0000
     69 H29        2.4275    7.1862   -0.4747 Du        2 SUP2    0.0000
     70 C35        1.0481    5.9051   -1.2555 Du        2 SUP2    0.0000
     71 C36        0.7972    4.5701   -1.5512 Du        2 SUP2    0.0000
     72 H30       -0.0287    4.3176   -1.9468 Du        2 SUP2    0.0000
     73 C37        1.7579    3.6041   -1.2701 Du        2 SUP2    0.0000
     74 C38        2.9663    3.9731   -0.6934 Du        2 SUP2    0.0000
     75 H31        3.6227    3.3133   -0.5018 Du        2 SUP2    0.0000
     76 C39        0.0036    6.9517   -1.6615 Du        2 SUP2    0.0000
     77 H32       -0.8472    6.5061   -1.8531 Du        2 SUP2    0.0000
     78 H33        0.3101    7.4265   -2.4611 Du        2 SUP2    0.0000
     79 H34       -0.1198    7.5902   -0.9286 Du        2 SUP2    0.0000
     80 C40        1.4721    2.1486   -1.5991 Du        2 SUP2    0.0000
     81 H35        0.5853    1.9051   -1.2597 Du        2 SUP2    0.0000
     82 H36        2.1508    1.5801   -1.1785 Du        2 SUP2    0.0000
     83 H37        1.4960    2.0216   -2.5694 Du        2 SUP2    0.0000
     84 C41        6.1299    6.1657    3.4626 Du        2 SUP2    0.0000
     85 H38        5.2481    6.3864    3.8457 Du        2 SUP2    0.0000
     86 H39        6.7072    6.9623    3.5605 Du        2 SUP2    0.0000
     87 C42        6.7368    5.0441    4.3017 Du        2 SUP2    0.0000
     88 C43        7.1656    3.8534    3.7270 Du        2 SUP2    0.0000
     89 H40        7.0940    3.7263    2.7880 Du        2 SUP2    0.0000
     90 C44        7.7003    2.8491    4.5245 Du        2 SUP2    0.0000
     91 H41        7.9926    2.0346    4.1331 Du        2 SUP2    0.0000
     92 C45        7.8039    3.0348    5.8987 Du        2 SUP2    0.0000
     93 C46        7.3751    4.2264    6.4734 Du        2 SUP2    0.0000
     94 H42        7.4467    4.3534    7.4124 Du        2 SUP2    0.0000
     95 C47        6.8427    5.2307    5.6738 Du        2 SUP2    0.0000
     96 H43        6.5496    6.0443    6.0674 Du        2 SUP2    0.0000
     97 O5         8.1749    2.0639    6.7919 Du        2 SUP2    0.0000
     98 C48        8.5344    0.7738    6.2714 Du        2 SUP2    0.0000
     99 H44        8.9124    0.2272    6.9856 Du        2 SUP2    0.0000
    100 H45        9.1880    0.8845    5.5531 Du        2 SUP2    0.0000
    101 H46        7.7289    0.3364    5.9154 Du        2 SUP2    0.0000
@<TRIPOS>BOND
     1    1    7 1
     2    2    4 2
     3    3   17 2
     4    5    2 2
     5    6    7 2
     6    7   35 1
     7    8    1 1
     8    9    8 ar
     9   10    9 1
    10   11    9 ar
    11   12   11 1
    12   13    2 1
    13   14   13 ar
    14   15   14 1
    15   16    8 ar
    16   17    6 1
    17   18    6 1
    18   19   18 ar
    19   20   19 1
    20   21   19 ar
    21   22   21 ar
    22   23   22 1
    23   24   22 ar
    24   25   18 ar
    25   26   25 1
    26   27   21 1
    27   28   27 1
    28   29   27 1
    29   30   27 1
    30   31   24 1
    31   32   31 1
    32   33   31 1
    33   34   31 1
    34   35   36 ar
    35   36   37 1
    36   38   36 ar
    37   39   38 1
    38   40   38 ar
    39   41   40 ar
    40   42   41 1
    41   43   35 ar
    42   44   43 1
    43   45   40 1
    44   46   45 1
    45   47   45 1
    46   48   45 1
    47   49    1 1
    48   50   49 1
    49   51   49 1
    50   52   49 1
    51   53   52 ar
    52   54   53 1
    53   55   53 ar
    54   56   55 1
    55   57   55 ar
    56   58   57 ar
    57   59   58 1
    58   60   52 ar
    59   61   60 1
    60   62   57 1
    61   63   62 1
    62   64   63 1
    63   65   63 1
    64   66   63 1
    65   11   13 ar
    66   14   16 ar
    67   16   17 1
    68   24   25 ar
    69   41   43 ar
    70   58   60 ar
@<TRIPOS>SUBSTRUCTURE
     1 RES1 1
     2 SUP2 67

@<TRIPOS>CRYSIN
  15.4229    8.1449   21.9984  90.0000 108.8270  90.0000 231 1

