# MOL2 file generated by ConQuest
# Please check atom types

@<TRIPOS>MOLECULE
ABUVOJ
    42    43     1
SMALL
NO_CHARGES
****
Generated from CSD

@<TRIPOS>ATOM
      1 O1         2.8165    2.7121    6.4535 O.3       1 RES1    0.0000
      2 O2        11.1339    0.0466    6.8549 O.2       1 RES1    0.0000
      3 O3        11.0633    1.8265    5.6393 O.2       1 RES1    0.0000
      4 N1         4.9926    1.4994    7.1583 N.2       1 RES1    0.0000
      5 N2        10.5200    0.9638    6.3142 N.pl3     1 RES1    0.0000
      6 N3        -1.2668    1.4173    8.5034 N.3       1 RES1    0.0000
      7 C1         6.3687    1.2711    6.9741 C.ar      1 RES1    0.0000
      8 C2         7.1047    0.2465    7.5664 C.ar      1 RES1    0.0000
      9 C3         8.4510    0.1304    7.3371 C.ar      1 RES1    0.0000
     10 C4         9.0752    1.0468    6.5073 C.ar      1 RES1    0.0000
     11 C5         8.3762    2.0469    5.8796 C.ar      1 RES1    0.0000
     12 C6         7.0195    2.1496    6.1126 C.ar      1 RES1    0.0000
     13 C7         4.3099    0.8793    8.0722 C.2       1 RES1    0.0000
     14 C8         2.9087    1.0863    8.2250 C.ar      1 RES1    0.0000
     15 C9         2.1840    1.9726    7.3936 C.ar      1 RES1    0.0000
     16 C10        0.8145    2.1038    7.5032 C.ar      1 RES1    0.0000
     17 C11        0.0916    1.3351    8.4339 C.ar      1 RES1    0.0000
     18 C12        0.8211    0.4748    9.2949 C.ar      1 RES1    0.0000
     19 C13        2.1727    0.3666    9.1751 C.ar      1 RES1    0.0000
     20 C14       -2.0306    0.6573    9.4960 C.3       1 RES1    0.0000
     21 C15       -2.3354   -0.7537    9.0385 C.3       1 RES1    0.0000
     22 C16       -2.0583    2.1227    7.5045 C.3       1 RES1    0.0000
     23 C17       -2.3163    3.5645    7.8674 C.3       1 RES1    0.0000
     24 H1         3.7614    2.4490    6.4803 H         1 RES1    0.0000
     25 H2         6.6235   -0.4068    8.1841 H         1 RES1    0.0000
     26 H3         8.9999   -0.6051    7.7849 H         1 RES1    0.0000
     27 H4         8.8545    2.6939    5.2692 H         1 RES1    0.0000
     28 H5         6.4851    2.8796    5.6454 H         1 RES1    0.0000
     29 H6         4.8025    0.2275    8.6805 H         1 RES1    0.0000
     30 H7         0.3229    2.7626    6.8856 H         1 RES1    0.0000
     31 H8         0.3338   -0.0624   10.0057 H         1 RES1    0.0000
     32 H9         2.6687   -0.2496    9.8091 H         1 RES1    0.0000
     33 H10       -1.4965    0.6107   10.3661 H         1 RES1    0.0000
     34 H11       -2.8959    1.1408    9.7132 H         1 RES1    0.0000
     35 H12       -2.8606   -1.2640    9.7253 H         1 RES1    0.0000
     36 H13       -1.4886   -1.2490    8.8382 H         1 RES1    0.0000
     37 H14       -2.8886   -0.7189    8.1866 H         1 RES1    0.0000
     38 H15       -2.9555    1.6448    7.3990 H         1 RES1    0.0000
     39 H16       -1.5882    2.0738    6.6138 H         1 RES1    0.0000
     40 H17       -2.8662    4.0345    7.1587 H         1 RES1    0.0000
     41 H18       -2.8089    3.6380    8.7411 H         1 RES1    0.0000
     42 H19       -1.4422    4.0669    7.9572 H         1 RES1    0.0000
@<TRIPOS>BOND
     1    1   15 1
     2    2    5 2
     3    3    5 2
     4    4    7 1
     5    5   10 1
     6    6   17 1
     7    7    8 ar
     8    8    9 ar
     9    9   10 ar
    10   10   11 ar
    11   11   12 ar
    12   12    7 ar
    13   13    4 2
    14   14   13 1
    15   15   14 ar
    16   16   15 ar
    17   17   16 ar
    18   18   17 ar
    19   19   14 ar
    20   20    6 1
    21   21   20 1
    22   22    6 1
    23   23   22 1
    24   24    1 1
    25   25    8 1
    26   26    9 1
    27   27   11 1
    28   28   12 1
    29   29   13 1
    30   30   16 1
    31   31   18 1
    32   32   19 1
    33   33   20 1
    34   34   20 1
    35   35   21 1
    36   36   21 1
    37   37   21 1
    38   38   22 1
    39   39   22 1
    40   40   23 1
    41   41   23 1
    42   42   23 1
    43   18   19 ar
@<TRIPOS>SUBSTRUCTURE
     1 RES1 1

@<TRIPOS>CRYSIN
  16.2720    7.9000   13.2880  90.0000 114.0400  90.0000  14 1

