# MOL2 file generated by ConQuest
# Please check atom types

@<TRIPOS>MOLECULE
ACAGES
    56    59     1
SMALL
NO_CHARGES
****
Generated from CSD

@<TRIPOS>ATOM
      1 O1         8.5506    8.5218    6.0347 O.2       1 RES1    0.0000
      2 O2        10.4250    7.7637    2.0929 O.3       1 RES1    0.0000
      3 O3         6.1289    5.6946    2.7798 O.2       1 RES1    0.0000
      4 O4         6.0326    7.4190    4.2157 O.3       1 RES1    0.0000
      5 O5         9.8738    5.7967    5.1790 O.2       1 RES1    0.0000
      6 O6         7.6840    5.5002    5.6323 O.3       1 RES1    0.0000
      7 N1         7.5921   10.0731    4.6089 N.am      1 RES1    0.0000
      8 N2        10.1078    8.2713    3.4311 N.3       1 RES1    0.0000
      9 C1         8.2506    8.9189    4.9149 C.2       1 RES1    0.0000
     10 C2         7.3390   10.1796    3.2184 C.ar      1 RES1    0.0000
     11 C3         6.6846   11.2104    2.5508 C.ar      1 RES1    0.0000
     12 H1         6.3390   11.9414    3.0103 H         1 RES1    0.0000
     13 C4         6.5683   11.1042    1.1643 C.ar      1 RES1    0.0000
     14 H2         6.1317   11.7773    0.6926 H         1 RES1    0.0000
     15 C5         7.0859   10.0229    0.4732 C.ar      1 RES1    0.0000
     16 H3         7.0005    9.9812   -0.4513 H         1 RES1    0.0000
     17 C6         7.7370    8.9920    1.1583 C.ar      1 RES1    0.0000
     18 H4         8.0820    8.2649    0.6926 H         1 RES1    0.0000
     19 C7         7.8642    9.0624    2.5469 C.ar      1 RES1    0.0000
     20 C8         8.5998    8.1982    3.5664 C.3       1 RES1    0.0000
     21 C9         8.2118    6.6648    3.5975 C.3       1 RES1    0.0000
     22 C10        8.8753    5.9206    2.3957 C.3       1 RES1    0.0000
     23 H5         8.8276    4.9650    2.5535 H         1 RES1    0.0000
     24 H6         8.3691    6.1118    1.5898 H         1 RES1    0.0000
     25 C11       10.3436    6.3147    2.1656 C.3       1 RES1    0.0000
     26 H7        10.9004    5.9838    2.9018 H         1 RES1    0.0000
     27 C12        6.6767    6.5087    3.4760 C.2       1 RES1    0.0000
     28 C13        4.5843    7.4727    4.0661 C.3       1 RES1    0.0000
     29 H8         4.3632    7.6287    3.1444 H         1 RES1    0.0000
     30 H9         4.2332    8.1860    4.6042 H         1 RES1    0.0000
     31 H10        4.2012    6.6400    4.3494 H         1 RES1    0.0000
     32 C14        8.7110    5.9735    4.8987 C.2       1 RES1    0.0000
     33 C15        8.0608    4.7830    6.8428 C.3       1 RES1    0.0000
     34 H11        8.6391    4.0516    6.6142 H         1 RES1    0.0000
     35 H12        7.2716    4.4447    7.2729 H         1 RES1    0.0000
     36 H13        8.5188    5.3800    7.4382 H         1 RES1    0.0000
     37 C16       10.8688    5.8037    0.8498 C.2       1 RES1    0.0000
     38 H14       10.4094    6.0415    0.0773 H         1 RES1    0.0000
     39 C17       11.9361    5.0422    0.7215 C.2       1 RES1    0.0000
     40 H15       12.4175    4.7865    1.4746 H         1 RES1    0.0000
     41 H16       12.2069    4.7604   -0.1220 H         1 RES1    0.0000
     42 C18        7.1895   11.0714    5.5999 C.3       1 RES1    0.0000
     43 H17        7.5105   10.8093    6.4664 H         1 RES1    0.0000
     44 H18        6.2314   11.1350    5.6193 H         1 RES1    0.0000
     45 H19        7.5622   11.9237    5.3645 H         1 RES1    0.0000
     46 C19       10.6403    9.6253    3.4967 C.ar      1 RES1    0.0000
     47 C20       10.8004   10.4331    2.3684 C.ar      1 RES1    0.0000
     48 H20       10.5345   10.1265    1.5316 H         1 RES1    0.0000
     49 C21       11.3593   11.6993    2.5059 C.ar      1 RES1    0.0000
     50 H21       11.4829   12.2317    1.7538 H         1 RES1    0.0000
     51 C22       11.7357   12.1763    3.7557 C.ar      1 RES1    0.0000
     52 H22       12.0982   13.0284    3.8424 H         1 RES1    0.0000
     53 C23       11.5669   11.3707    4.8774 C.ar      1 RES1    0.0000
     54 H23       11.8076   11.6905    5.7169 H         1 RES1    0.0000
     55 C24       11.0409   10.0920    4.7515 C.ar      1 RES1    0.0000
     56 H24       10.9548    9.5473    5.5001 H         1 RES1    0.0000
@<TRIPOS>BOND
     1    1    9 2
     2    2    8 1
     3    3   27 2
     4    4   27 1
     5    5   32 2
     6    6   32 1
     7    7    9 1
     8    8   20 1
     9    9   20 1
    10   10    7 1
    11   11   10 ar
    12   12   11 1
    13   13   11 ar
    14   14   13 1
    15   15   13 ar
    16   16   15 1
    17   17   15 ar
    18   18   17 1
    19   19   10 ar
    20   20   19 1
    21   21   20 1
    22   22   21 1
    23   23   22 1
    24   24   22 1
    25   25    2 1
    26   26   25 1
    27   27   21 1
    28   28    4 1
    29   29   28 1
    30   30   28 1
    31   31   28 1
    32   32   21 1
    33   33    6 1
    34   34   33 1
    35   35   33 1
    36   36   33 1
    37   37   25 1
    38   38   37 1
    39   39   37 2
    40   40   39 1
    41   41   39 1
    42   42    7 1
    43   43   42 1
    44   44   42 1
    45   45   42 1
    46   46    8 1
    47   47   46 ar
    48   48   47 1
    49   49   47 ar
    50   50   49 1
    51   51   49 ar
    52   52   51 1
    53   53   51 ar
    54   54   53 1
    55   55   46 ar
    56   56   55 1
    57   17   19 ar
    58   22   25 1
    59   53   55 ar
@<TRIPOS>SUBSTRUCTURE
     1 RES1 1

@<TRIPOS>CRYSIN
   8.7826    9.5740   13.7170  89.3060  81.1550  83.1650   2 1

