# MOL2 file generated by ConQuest
# Please check atom types

@<TRIPOS>MOLECULE
ACALEV
    34    35     1
SMALL
NO_CHARGES
****
Generated from CSD

@<TRIPOS>ATOM
      1 N1         0.2949    3.7787   24.5127 N.pl3     1 RES1    0.0000
      2 N2        -0.1382    3.2792   18.0750 N.am      1 RES1    0.0000
      3 H1        -0.3355    4.1027   18.3794 H         1 RES1    0.0000
      4 C1         0.2639    3.4267   23.0757 C.ar      1 RES1    0.0000
      5 C2        -0.6445    4.0115   22.2670 C.ar      1 RES1    0.0000
      6 H2        -1.3071    4.5828   22.6626 H         1 RES1    0.0000
      7 C3        -0.6975    3.6817   20.9176 C.ar      1 RES1    0.0000
      8 H3        -1.3252    4.0988   20.3242 H         1 RES1    0.0000
      9 C4         0.2165    2.7759   20.4111 C.ar      1 RES1    0.0000
     10 C5         1.1306    2.1968   21.2681 C.ar      1 RES1    0.0000
     11 H4         1.7622    1.5644   20.9176 H         1 RES1    0.0000
     12 C6         1.1684    2.5295   22.5975 C.ar      1 RES1    0.0000
     13 H5         1.7278    2.0698   23.2284 H         1 RES1    0.0000
     14 C7         0.1985    2.3501   18.9780 C.2       1 RES1    0.0000
     15 C8        -0.2588    3.0261   16.6670 C.ar      1 RES1    0.0000
     16 C9        -1.2569    2.1774   16.2108 C.ar      1 RES1    0.0000
     17 C10       -1.3821    2.0184   14.8163 C.ar      1 RES1    0.0000
     18 H6        -2.0825    1.4549   14.4808 H         1 RES1    0.0000
     19 C11       -0.5498    2.6750   13.9576 C.ar      1 RES1    0.0000
     20 H7        -0.6225    2.5256   13.0112 H         1 RES1    0.0000
     21 C12        0.4173    3.4839   14.4408 C.ar      1 RES1    0.0000
     22 H8         1.0021    3.9320   13.8249 H         1 RES1    0.0000
     23 C13        0.6039    3.6827   15.8002 C.ar      1 RES1    0.0000
     24 C14       -2.2088    1.4810   17.1196 C.3       1 RES1    0.0000
     25 H9        -2.8167    0.9437   16.6064 H         1 RES1    0.0000
     26 H10       -1.7159    0.9185   17.7205 H         1 RES1    0.0000
     27 H11       -2.7039    2.1318   17.6228 H         1 RES1    0.0000
     28 C15        1.6906    4.5964   16.2859 C.3       1 RES1    0.0000
     29 H12        1.6861    4.6284   17.2448 H         1 RES1    0.0000
     30 H13        2.5325    4.2511   15.9805 H         1 RES1    0.0000
     31 H14        1.5614    5.4819   15.9354 H         1 RES1    0.0000
     32 O1         1.1526    3.2967   25.2188 O.2       1 RES1    0.0000
     33 O2        -0.5413    4.5343   24.9261 O.2       1 RES1    0.0000
     34 O3         0.4838    1.1959   18.6749 O.2       1 RES1    0.0000
@<TRIPOS>BOND
     1    1    4 1
     2    2    3 1
     3    4    5 ar
     4    5    6 1
     5    7    5 ar
     6    8    7 1
     7    9    7 ar
     8   10    9 ar
     9   11   10 1
    10   12    4 ar
    11   13   12 1
    12   14    2 1
    13   15    2 1
    14   16   15 ar
    15   17   16 ar
    16   18   17 1
    17   19   17 ar
    18   20   19 1
    19   21   19 ar
    20   22   21 1
    21   23   15 ar
    22   24   16 1
    23   25   24 1
    24   26   24 1
    25   27   24 1
    26   28   23 1
    27   29   28 1
    28   30   28 1
    29   31   28 1
    30   32    1 2
    31   33    1 2
    32   34   14 2
    33    9   14 1
    34   10   12 ar
    35   21   23 ar
@<TRIPOS>SUBSTRUCTURE
     1 RES1 1

@<TRIPOS>CRYSIN
   5.6390    9.6990   25.0360  90.0000  90.0000  90.0000  19 1

