# MOL2 file generated by ConQuest
# Please check atom types

@<TRIPOS>MOLECULE
ACALIZ
    40    41     1
SMALL
NO_CHARGES
****
Generated from CSD

@<TRIPOS>ATOM
      1 N1        -0.1555   11.9130   -0.2697 N.pl3     1 RES1    0.0000
      2 N2        -0.2096    5.4240    0.0470 N.am      1 RES1    0.0000
      3 H1        -0.6905    5.7127   -0.6569 H         1 RES1    0.0000
      4 O1        -0.7900   12.2585   -1.2638 O.2       1 RES1    0.0000
      5 O2         0.3290   12.6939    0.5008 O.2       1 RES1    0.0000
      6 O3         1.2725    5.9730    1.6071 O.2       1 RES1    0.0000
      7 C1         0.0207   10.4552   -0.0386 C.ar      1 RES1    0.0000
      8 C2        -0.6526    9.5985   -0.8100 C.ar      1 RES1    0.0000
      9 H2        -1.2161    9.9204   -1.5177 H         1 RES1    0.0000
     10 C3        -0.5188    8.2307   -0.5713 C.ar      1 RES1    0.0000
     11 H3        -1.0297    7.6083   -1.0926 H         1 RES1    0.0000
     12 C4         0.3043    7.7669    0.4039 C.ar      1 RES1    0.0000
     13 C5         0.9867    8.7064    1.1661 C.ar      1 RES1    0.0000
     14 H4         1.5902    8.4011    1.8480 H         1 RES1    0.0000
     15 C6         0.8525   10.0529    0.9608 C.ar      1 RES1    0.0000
     16 H5         1.3049   10.6966    1.5131 H         1 RES1    0.0000
     17 C7         0.5102    6.3138    0.7509 C.2       1 RES1    0.0000
     18 C8        -0.2275    4.0112    0.3266 C.ar      1 RES1    0.0000
     19 C9        -1.2323    3.4906    1.1275 C.ar      1 RES1    0.0000
     20 C10       -1.2604    2.1322    1.3388 C.ar      1 RES1    0.0000
     21 H6        -1.9368    1.7607    1.9086 H         1 RES1    0.0000
     22 C11       -0.3294    1.3110    0.7471 C.ar      1 RES1    0.0000
     23 H7        -0.3855    0.3621    0.8721 H         1 RES1    0.0000
     24 C12        0.6410    1.8222   -0.0174 C.ar      1 RES1    0.0000
     25 H8         1.2827    1.2306   -0.4182 H         1 RES1    0.0000
     26 C13        0.7415    3.2019   -0.2523 C.ar      1 RES1    0.0000
     27 C14        1.8572    3.7509   -1.1040 C.3       1 RES1    0.0000
     28 H9         2.6816    3.3084   -0.8903 H         1 RES1    0.0000
     29 H10        1.9653    4.6880   -0.9183 H         1 RES1    0.0000
     30 C15        1.6664    3.5639   -2.5049 C.3       1 RES1    0.0000
     31 H11        2.3813    3.9237   -3.0346 H         1 RES1    0.0000
     32 H12        1.5710    2.6268   -2.6913 H         1 RES1    0.0000
     33 H13        0.8487    4.0183   -2.7201 H         1 RES1    0.0000
     34 C16       -2.3261    4.3591    1.7094 C.3       1 RES1    0.0000
     35 H14       -1.9678    5.2323    1.8874 H         1 RES1    0.0000
     36 H15       -2.5991    3.9757    2.5459 H         1 RES1    0.0000
     37 C17       -3.5243    4.5176    0.8206 C.3       1 RES1    0.0000
     38 H16       -4.1848    5.0714    1.2426 H         1 RES1    0.0000
     39 H17       -3.2564    4.9176   -0.0106 H         1 RES1    0.0000
     40 H18       -3.8938    3.6491    0.6531 H         1 RES1    0.0000
@<TRIPOS>BOND
     1    1    4 2
     2    2    3 1
     3    5    1 2
     4    6   17 2
     5    7    1 1
     6    8    7 ar
     7    9    8 1
     8   10    8 ar
     9   11   10 1
    10   12   10 ar
    11   13   12 ar
    12   14   13 1
    13   15    7 ar
    14   16   15 1
    15   17    2 1
    16   18    2 1
    17   19   18 ar
    18   20   19 ar
    19   21   20 1
    20   22   20 ar
    21   23   22 1
    22   24   22 ar
    23   25   24 1
    24   26   18 ar
    25   27   26 1
    26   28   27 1
    27   29   27 1
    28   30   27 1
    29   31   30 1
    30   32   30 1
    31   33   30 1
    32   34   19 1
    33   35   34 1
    34   36   34 1
    35   37   34 1
    36   38   37 1
    37   39   37 1
    38   40   37 1
    39   12   17 1
    40   13   15 ar
    41   24   26 ar
@<TRIPOS>SUBSTRUCTURE
     1 RES1 1

@<TRIPOS>CRYSIN
   8.9160   23.6650    7.9240  90.0000 107.0200  90.0000   9 1

