# MOL2 file generated by ConQuest
# Please check atom types

@<TRIPOS>MOLECULE
ACANIB
    55    55     2
SMALL
NO_CHARGES
****
Generated from CSD

@<TRIPOS>ATOM
      1 O1         7.5988    0.9948   11.5178 O.2       1 RES1    0.0000
      2 O2        11.8351    0.0312   16.5238 O.2       1 RES1    0.0000
      3 O3        12.1012   -0.6136   16.4224 Du        2 SUP2    0.0000
      4 O4        10.3492   -1.1417   17.4458 O.2       1 RES1    0.0000
      5 N1         8.1827   -1.1598   11.5363 N.am      1 RES1    0.0000
      6 H1         8.1813   -1.9555   11.1153 H         1 RES1    0.0000
      7 N2        10.8852   -0.7383   16.4532 N.pl3     1 RES1    0.0000
      8 N3         4.6385   -0.6790    6.1092 N.3       1 RES1    0.0000
      9 C1         8.8865   -1.0461   12.7855 C.ar      1 RES1    0.0000
     10 C2         8.2531   -1.5451   13.9409 C.ar      1 RES1    0.0000
     11 C3         8.9404   -1.4374   15.1456 C.ar      1 RES1    0.0000
     12 H2         8.5637   -1.7875   15.9553 H         1 RES1    0.0000
     13 C4        10.1839   -0.8530   15.1609 C.ar      1 RES1    0.0000
     14 C5        10.8148   -0.3822   14.0270 C.ar      1 RES1    0.0000
     15 H3        11.6895    0.0091   14.0808 H         1 RES1    0.0000
     16 C6        10.1595   -0.4838   12.8054 C.ar      1 RES1    0.0000
     17 C7         7.5310   -0.1147   10.9908 C.2       1 RES1    0.0000
     18 C8         6.7469   -0.3410    9.7462 C.ar      1 RES1    0.0000
     19 C9         6.6395   -1.5591    9.0932 C.ar      1 RES1    0.0000
     20 H4         7.0751   -2.3327    9.4573 H         1 RES1    0.0000
     21 C10        5.9196   -1.6859    7.9039 C.ar      1 RES1    0.0000
     22 H5         5.8339   -2.5439    7.4814 H         1 RES1    0.0000
     23 C11        5.3023   -0.5824    7.3231 C.ar      1 RES1    0.0000
     24 C12        5.3844    0.6287    7.9992 C.ar      1 RES1    0.0000
     25 H6         4.9488    1.4052    7.6381 H         1 RES1    0.0000
     26 C13        6.0716    0.7253    9.1884 C.ar      1 RES1    0.0000
     27 H7         6.0817    1.5672    9.6509 H         1 RES1    0.0000
     28 C14        6.8767   -2.1909   13.8595 C.3       1 RES1    0.0000
     29 H8         6.8032   -2.5922   12.9898 H         1 RES1    0.0000
     30 C15        6.6674   -3.2812   14.9043 C.3       1 RES1    0.0000
     31 H9         5.7892   -3.6534   14.7937 H         1 RES1    0.0000
     32 H10        7.3247   -3.9733   14.7952 H         1 RES1    0.0000
     33 H11        6.7468   -2.9010   15.7817 H         1 RES1    0.0000
     34 C16        5.7654   -1.1558   13.9548 C.3       1 RES1    0.0000
     35 H12        5.8932   -0.4627   13.3017 H         1 RES1    0.0000
     36 H13        4.9140   -1.5752   13.8119 H         1 RES1    0.0000
     37 H14        5.7913   -0.7745   14.8352 H         1 RES1    0.0000
     38 C17       10.8570   -0.0775   11.5040 C.3       1 RES1    0.0000
     39 H15       10.1764    0.2233   10.8971 H         1 RES1    0.0000
     40 C18       11.8451    1.0612   11.6638 C.3       1 RES1    0.0000
     41 H16       12.2425    1.2906   10.8202 H         1 RES1    0.0000
     42 H17       11.3990    1.8297   12.0280 H         1 RES1    0.0000
     43 H18       12.5297    0.7705   12.2707 H         1 RES1    0.0000
     44 C19       11.5223   -1.2926   10.8740 C.3       1 RES1    0.0000
     45 H19       10.8851   -1.9997   10.7465 H         1 RES1    0.0000
     46 H20       11.9028   -1.0481   10.0274 H         1 RES1    0.0000
     47 H21       12.2180   -1.5903   11.4640 H         1 RES1    0.0000
     48 C20        4.4085   -1.9706    5.4931 C.3       1 RES1    0.0000
     49 H22        4.8028   -2.6656    6.0263 H         1 RES1    0.0000
     50 H23        3.4612   -2.1164    5.4286 H         1 RES1    0.0000
     51 H24        4.7940   -1.9826    4.6157 H         1 RES1    0.0000
     52 C21        4.0922    0.4879    5.4470 C.3       1 RES1    0.0000
     53 H25        4.3068    1.2886    5.9295 H         1 RES1    0.0000
     54 H26        4.4712    0.5341    4.5666 H         1 RES1    0.0000
     55 H27        3.1384    0.4014    5.3794 H         1 RES1    0.0000
@<TRIPOS>BOND
     1    1   17 2
     2    2    7 2
     3    4    7 2
     4    5    6 1
     5    7   13 1
     6    8   23 1
     7    9    5 1
     8   10    9 ar
     9   11   10 ar
    10   12   11 1
    11   13   11 ar
    12   14   13 ar
    13   15   14 1
    14   16    9 ar
    15   17    5 1
    16   18   17 1
    17   19   18 ar
    18   20   19 1
    19   21   19 ar
    20   22   21 1
    21   23   21 ar
    22   24   23 ar
    23   25   24 1
    24   26   18 ar
    25   27   26 1
    26   28   10 1
    27   29   28 1
    28   30   28 1
    29   31   30 1
    30   32   30 1
    31   33   30 1
    32   34   28 1
    33   35   34 1
    34   36   34 1
    35   37   34 1
    36   38   16 1
    37   39   38 1
    38   40   38 1
    39   41   40 1
    40   42   40 1
    41   43   40 1
    42   44   38 1
    43   45   44 1
    44   46   44 1
    45   47   44 1
    46   48    8 1
    47   49   48 1
    48   50   48 1
    49   51   48 1
    50   52    8 1
    51   53   52 1
    52   54   52 1
    53   55   52 1
    54   14   16 ar
    55   24   26 ar
@<TRIPOS>SUBSTRUCTURE
     1 RES1 1
     2 SUP2 3

@<TRIPOS>CRYSIN
  13.0620   10.0590   16.6750  90.0000 112.8600  90.0000  14 1

