# MOL2 file generated by ConQuest
# Please check atom types

@<TRIPOS>MOLECULE
ACANOH
    24    24     1
SMALL
NO_CHARGES
****
Generated from CSD

@<TRIPOS>ATOM
      1 O1         7.9446    3.2151    1.2583 O.2       1 RES1    0.0000
      2 N1         8.5435    3.3114   -0.8999 N.am      1 RES1    0.0000
      3 C1         9.7061    1.7777    0.5654 C.ar      1 RES1    0.0000
      4 N2        11.6267   -0.1730    1.1456 N.ar      1 RES1    0.0000
      5 C2         9.5747    0.9324    1.6611 C.ar      1 RES1    0.0000
      6 O2         6.2997    2.8761   -2.7051 O.3       1 RES1    0.0000
      7 C3        10.8210    1.6219   -0.2337 C.ar      1 RES1    0.0000
      8 C4        10.5366   -0.0126    1.8995 C.ar      1 RES1    0.0000
      9 C5         8.6515    2.8223    0.3418 C.2       1 RES1    0.0000
     10 O3         5.4007    1.3768   -3.9754 O.2       1 RES1    0.0000
     11 C6        11.7484    0.6426    0.0989 C.ar      1 RES1    0.0000
     12 O4         4.2559    2.1018   -2.2820 O.2       1 RES1    0.0000
     13 C7         7.4885    4.2609   -1.2315 C.3       1 RES1    0.0000
     14 N3         5.2140    2.0503   -2.9952 N.pl3     1 RES1    0.0000
     15 C8         6.1634    3.6057   -1.4542 C.3       1 RES1    0.0000
     16 H1         8.9051    0.9759    2.2506 H         1 RES1    0.0000
     17 H2        10.4132   -0.6139    2.6469 H         1 RES1    0.0000
     18 H3        12.4929    0.5452   -0.4712 H         1 RES1    0.0000
     19 H4        11.0038    2.2129   -1.0237 H         1 RES1    0.0000
     20 H5         8.9801    3.0525   -1.5761 H         1 RES1    0.0000
     21 H6         7.7910    4.7420   -2.0612 H         1 RES1    0.0000
     22 H7         7.4174    4.9481   -0.4444 H         1 RES1    0.0000
     23 H8         5.9488    2.9975   -0.7151 H         1 RES1    0.0000
     24 H9         5.4963    4.2483   -1.5503 H         1 RES1    0.0000
@<TRIPOS>BOND
     1    1    9 2
     2    2    9 1
     3    3    5 ar
     4    4    8 ar
     5    5    8 ar
     6    6   14 1
     7    7    3 ar
     8    8   17 1
     9    9    3 1
    10   10   14 2
    11   11    4 ar
    12   12   14 2
    13   13    2 1
    14   15    6 1
    15   16    5 1
    16   18   11 1
    17   19    7 1
    18   20    2 1
    19   21   13 1
    20   22   13 1
    21   23   15 1
    22   24   15 1
    23    7   11 ar
    24   13   15 1
@<TRIPOS>SUBSTRUCTURE
     1 RES1 1

@<TRIPOS>CRYSIN
   9.1560   11.4540    9.9020  90.0000 111.0900  90.0000  14 1

