# MOL2 file generated by ConQuest
# Please check atom types

@<TRIPOS>MOLECULE
ACEDOE
    24    25     1
SMALL
NO_CHARGES
****
Generated from CSD

@<TRIPOS>ATOM
      1 O1         0.9225    9.7037    1.2331 O.3       1 RES1    0.0000
      2 O2         2.1442    9.2654    3.7735 O.3       1 RES1    0.0000
      3 O3         3.2264   11.3340    5.0980 O.3       1 RES1    0.0000
      4 O4         2.8565   14.0347    5.3308 O.2       1 RES1    0.0000
      5 O5         3.4466   14.9351    3.4707 O.2       1 RES1    0.0000
      6 N1         2.9702   14.0061    4.1164 N.pl3     1 RES1    0.0000
      7 C1         2.5446   11.5781    3.9440 C.ar      1 RES1    0.0000
      8 C2         2.4599   12.8534    3.3865 C.ar      1 RES1    0.0000
      9 C3         1.8890   13.0742    2.1459 C.ar      1 RES1    0.0000
     10 H1         1.8579   13.9498    1.7805 H         1 RES1    0.0000
     11 C4         1.3671   12.0105    1.4475 C.ar      1 RES1    0.0000
     12 H2         0.9582   12.1520    0.6014 H         1 RES1    0.0000
     13 C5         1.4370   10.7348    1.9761 C.ar      1 RES1    0.0000
     14 C6         2.0201   10.5118    3.2196 C.ar      1 RES1    0.0000
     15 C7         1.4470    8.4184    1.6245 C.3       1 RES1    0.0000
     16 H3         2.3932    8.3440    1.3420 H         1 RES1    0.0000
     17 H4         0.9341    7.6992    1.1778 H         1 RES1    0.0000
     18 C8         1.3494    8.2597    3.1093 C.3       1 RES1    0.0000
     19 H5         0.4041    8.3440    3.3906 H         1 RES1    0.0000
     20 H6         1.6687    7.3592    3.3693 H         1 RES1    0.0000
     21 C9         2.4043   11.0772    6.2518 C.3       1 RES1    0.0000
     22 H7         2.9726   10.8217    7.0080 H         1 RES1    0.0000
     23 H8         1.7788   10.3505    6.0519 H         1 RES1    0.0000
     24 H9         1.9012   11.8859    6.4805 H         1 RES1    0.0000
@<TRIPOS>BOND
     1    1   13 1
     2    2   14 1
     3    3    7 1
     4    4    6 2
     5    5    6 2
     6    6    8 1
     7    7    8 ar
     8    8    9 ar
     9    9   10 1
    10   11    9 ar
    11   12   11 1
    12   13   11 ar
    13   14    7 ar
    14   15    1 1
    15   16   15 1
    16   17   15 1
    17   18    2 1
    18   19   18 1
    19   20   18 1
    20   21    3 1
    21   22   21 1
    22   23   21 1
    23   24   21 1
    24   13   14 ar
    25   15   18 1
@<TRIPOS>SUBSTRUCTURE
     1 RES1 1

@<TRIPOS>CRYSIN
   3.9358   18.4765   12.6373  90.0000  97.4750  90.0000  14 1

