# MOL2 file generated by ConQuest
# Please check atom types

@<TRIPOS>MOLECULE
ACENIH
    38    37     1
SMALL
NO_CHARGES
****
Generated from CSD

@<TRIPOS>ATOM
      1 C1         5.5456    2.3065   -2.2137 C.2       1 RES1    0.0000
      2 C2         4.4780    1.6523   -4.2592 C.3       1 RES1    0.0000
      3 C3         2.0422    2.3159   -3.9022 C.3       1 RES1    0.0000
      4 C4         6.1801    3.4498   -1.5651 C.3       1 RES1    0.0000
      5 H1         4.2482    0.9361   -3.7076 H         1 RES1    0.0000
      6 H2         5.5316    4.4053   -1.6021 H         1 RES1    0.0000
      7 H3         6.3502    3.1772   -0.7744 H         1 RES1    0.0000
      8 H4         5.1914    1.1871   -5.1298 H         1 RES1    0.0000
      9 H5         2.2397    1.8877   -3.1056 H         1 RES1    0.0000
     10 H6         1.7810    3.3789   -3.7925 H         1 RES1    0.0000
     11 H7         7.0780    3.6205   -1.8883 H         1 RES1    0.0000
     12 N1         3.2496    2.2080   -4.7375 N.3       1 RES1    0.0000
     13 N2         3.3359    3.0684   -5.8223 N.pl3     1 RES1    0.0000
     14 N3         0.9036    1.6488   -4.5017 N.3       1 RES1    0.0000
     15 N4         0.9036    0.2905   -4.5017 N.pl3     1 RES1    0.0000
     16 O1         5.1796    2.6181   -3.4861 O.3       1 RES1    0.0000
     17 O2         4.4133    3.1693   -6.3737 O.2       1 RES1    0.0000
     18 O3         2.3054    3.6197   -6.1580 O.2       1 RES1    0.0000
     19 O4         1.8895   -0.2726   -4.0500 O.2       1 RES1    0.0000
     20 O5         5.3222    1.2162   -1.7652 O.2       1 RES1    0.0000
     21 C3B       -0.2350    2.3159   -5.1012 C.3       1 RES1    0.0000
     22 O4B       -0.0823   -0.2726   -4.9534 O.2       1 RES1    0.0000
     23 H5B       -0.4325    1.8877   -5.8978 H         1 RES1    0.0000
     24 H6B        0.0262    3.3789   -5.2109 H         1 RES1    0.0000
     25 N1B       -1.4423    2.2080   -4.2659 N.pl3     1 RES1    0.0000
     26 C2B       -2.6707    1.6523   -4.7442 C.3       1 RES1    0.0000
     27 N2B       -1.5286    3.0684   -3.1811 N.pl3     1 RES1    0.0000
     28 H1B       -2.4410    0.9361   -5.2958 H         1 RES1    0.0000
     29 H4B       -3.3842    1.1871   -3.8736 H         1 RES1    0.0000
     30 O1B       -3.3723    2.6181   -5.5174 O.3       1 RES1    0.0000
     31 O2B       -2.6060    3.1693   -2.6297 O.2       1 RES1    0.0000
     32 O3B       -0.4982    3.6197   -2.8454 O.2       1 RES1    0.0000
     33 C1B       -3.7383    2.3065   -6.7897 C.2       1 RES1    0.0000
     34 C4B       -4.3728    3.4498   -7.4383 C.3       1 RES1    0.0000
     35 O5B       -3.5150    1.2162   -7.2382 O.2       1 RES1    0.0000
     36 H2B       -3.7244    4.4053   -7.4013 H         1 RES1    0.0000
     37 H3B       -4.5430    3.1772   -8.2290 H         1 RES1    0.0000
     38 H7B       -5.2708    3.6205   -7.1151 H         1 RES1    0.0000
@<TRIPOS>BOND
     1    1    4 1
     2    2    5 1
     3    3    9 1
     4    4    6 1
     5    7    4 1
     6    8    2 1
     7   10    3 1
     8   11    4 1
     9   12    2 1
    10   13   12 1
    11   14    3 1
    12   15   14 1
    13   16    1 1
    14   17   13 2
    15   18   13 2
    16   19   15 2
    17   20    1 2
    18   21   14 1
    19   22   15 2
    20   23   21 1
    21   24   21 1
    22   25   21 1
    23   26   25 1
    24   27   25 1
    25   28   26 1
    26   29   26 1
    27   30   26 1
    28   31   27 2
    29   32   27 2
    30   33   30 1
    31   34   33 1
    32   35   33 2
    33   36   34 1
    34   37   34 1
    35   38   34 1
    36    2   16 1
    37    3   12 1
@<TRIPOS>SUBSTRUCTURE
     1 RES1 1

@<TRIPOS>CRYSIN
  26.9350    9.1740    6.1220  90.0000 101.3500  90.0000  15 1

