# MOL2 file generated by ConQuest
# Please check atom types

@<TRIPOS>MOLECULE
ACERIK01
    31    32     1
SMALL
NO_CHARGES
****
Generated from CSD

@<TRIPOS>ATOM
      1 O1         4.6704    4.0000   11.7719 O.2       1 RES1    0.0000
      2 O2         4.4622    2.0350   12.6359 O.2       1 RES1    0.0000
      3 O3        -0.2410    9.8023    4.3138 O.2       1 RES1    0.0000
      4 O4        -0.0017   11.4563    5.6897 O.2       1 RES1    0.0000
      5 N1         2.0452    6.7355    9.2470 N.3       1 RES1    0.0000
      6 N2         2.2094    5.4177    8.9778 N.2       1 RES1    0.0000
      7 N3         0.0696   10.2569    5.4308 N.pl3     1 RES1    0.0000
      8 N4         4.2699    2.8432   11.7331 N.pl3     1 RES1    0.0000
      9 C1         1.5482    7.5768    8.2876 C.ar      1 RES1    0.0000
     10 C2         1.4572    8.9477    8.5865 C.ar      1 RES1    0.0000
     11 C3         0.9498    9.8280    7.6618 C.ar      1 RES1    0.0000
     12 C4         0.5386    9.3370    6.4248 C.ar      1 RES1    0.0000
     13 C5         0.6145    7.9838    6.1181 C.ar      1 RES1    0.0000
     14 C6         1.1161    7.1003    7.0396 C.ar      1 RES1    0.0000
     15 C7         2.9050    3.2696    9.6656 C.ar      1 RES1    0.0000
     16 C8         3.5526    2.3766   10.5360 C.ar      1 RES1    0.0000
     17 C9         3.6105    1.0113   10.2940 C.ar      1 RES1    0.0000
     18 C10        3.0480    0.4950    9.1475 C.ar      1 RES1    0.0000
     19 C11        2.4297    1.3554    8.2435 C.ar      1 RES1    0.0000
     20 C12        2.3544    2.7070    8.5047 C.ar      1 RES1    0.0000
     21 C13        2.7189    4.7033    9.9142 C.2       1 RES1    0.0000
     22 H1         2.2586    7.0511   10.0400 H         1 RES1    0.0000
     23 H2         1.7480    9.2674    9.4320 H         1 RES1    0.0000
     24 H3         0.8802   10.7537    7.8629 H         1 RES1    0.0000
     25 H4         0.3190    7.6711    5.2710 H         1 RES1    0.0000
     26 H5         1.1706    6.1738    6.8359 H         1 RES1    0.0000
     27 H6         4.0366    0.4350   10.9168 H         1 RES1    0.0000
     28 H7         3.0813   -0.4387    8.9758 H         1 RES1    0.0000
     29 H8         2.0576    1.0090    7.4409 H         1 RES1    0.0000
     30 H9         1.9166    3.2736    7.8801 H         1 RES1    0.0000
     31 H10        2.9682    5.0923   10.7452 H         1 RES1    0.0000
@<TRIPOS>BOND
     1    1    8 2
     2    2    8 2
     3    3    7 2
     4    4    7 2
     5    5    6 1
     6    6   21 2
     7    7   12 1
     8    8   16 1
     9    9    5 1
    10   10    9 ar
    11   11   10 ar
    12   12   11 ar
    13   13   12 ar
    14   14    9 ar
    15   15   16 ar
    16   16   17 ar
    17   17   18 ar
    18   18   19 ar
    19   19   20 ar
    20   20   15 ar
    21   21   15 1
    22   22    5 1
    23   23   10 1
    24   24   11 1
    25   25   13 1
    26   26   14 1
    27   27   17 1
    28   28   18 1
    29   29   19 1
    30   30   20 1
    31   31   21 1
    32   13   14 ar
@<TRIPOS>SUBSTRUCTURE
     1 RES1 1

@<TRIPOS>CRYSIN
   7.1134   12.0842   14.3190  90.0000  92.6240  90.0000 231 1

