# MOL2 file generated by ConQuest
# Please check atom types

@<TRIPOS>MOLECULE
ACETUA
    33    33     1
SMALL
NO_CHARGES
****
Generated from CSD

@<TRIPOS>ATOM
      1 O1         8.0855    2.5878    4.2964 O.2       1 RES1    0.0000
      2 O2         7.6334    2.8832    2.1937 O.2       1 RES1    0.0000
      3 O3         4.9527    3.2851    1.9447 O.3       1 RES1    0.0000
      4 O4         2.9794    4.9263    2.7593 O.3       1 RES1    0.0000
      5 O5         3.5220    6.9069    1.8303 O.2       1 RES1    0.0000
      6 O6         2.1636    6.6683    4.6229 O.3       1 RES1    0.0000
      7 H1         1.6322    7.3012    5.0602 H         1 RES1    0.0000
      8 O7         3.7030    7.5725    5.9627 O.2       1 RES1    0.0000
      9 N1         7.4291    3.0849    3.3828 N.pl3     1 RES1    0.0000
     10 C1         6.3470    4.0100    3.7702 C.ar      1 RES1    0.0000
     11 C2         5.1487    4.0364    3.0507 C.ar      1 RES1    0.0000
     12 C3         4.1640    4.9449    3.4873 C.ar      1 RES1    0.0000
     13 C4         4.3754    5.7827    4.5779 C.ar      1 RES1    0.0000
     14 C5         5.6047    5.7254    5.2495 C.ar      1 RES1    0.0000
     15 H2         5.7659    6.3058    5.9847 H         1 RES1    0.0000
     16 C6         6.5813    4.8378    4.8564 C.ar      1 RES1    0.0000
     17 H3         7.4067    4.7937    5.3250 H         1 RES1    0.0000
     18 C7         3.9578    2.2004    2.0467 C.3       1 RES1    0.0000
     19 H4         3.2069    2.4854    2.6412 H         1 RES1    0.0000
     20 C8         4.6344    0.9817    2.6272 C.3       1 RES1    0.0000
     21 H5         4.0019    0.2335    2.6436 H         1 RES1    0.0000
     22 H6         4.9323    1.1769    3.5398 H         1 RES1    0.0000
     23 H7         5.4086    0.7435    2.0749 H         1 RES1    0.0000
     24 C9         3.4467    1.9865    0.6507 C.3       1 RES1    0.0000
     25 H8         2.7534    1.2941    0.6597 H         1 RES1    0.0000
     26 H9         4.1851    1.7028    0.0721 H         1 RES1    0.0000
     27 H10        3.0675    2.8240    0.3098 H         1 RES1    0.0000
     28 C10        2.7824    5.9771    1.8850 C.2       1 RES1    0.0000
     29 C11        1.5603    5.7457    1.0617 C.3       1 RES1    0.0000
     30 H11        1.4127    6.5144    0.4729 H         1 RES1    0.0000
     31 H12        0.7858    5.6327    1.6517 H         1 RES1    0.0000
     32 H13        1.6788    4.9370    0.5202 H         1 RES1    0.0000
     33 C12        3.3753    6.7628    5.1042 C.2       1 RES1    0.0000
@<TRIPOS>BOND
     1    1    9 2
     2    2    9 2
     3    3   11 1
     4    4   12 1
     5    5   28 2
     6    6    7 1
     7    8   33 2
     8    9   10 1
     9   10   11 ar
    10   11   12 ar
    11   12   13 ar
    12   13   14 ar
    13   14   15 1
    14   16   10 ar
    15   17   16 1
    16   18    3 1
    17   19   18 1
    18   20   18 1
    19   21   20 1
    20   22   20 1
    21   23   20 1
    22   24   18 1
    23   25   24 1
    24   26   24 1
    25   27   24 1
    26   28    4 1
    27   29   28 1
    28   30   29 1
    29   31   29 1
    30   32   29 1
    31   33    6 1
    32   13   33 1
    33   14   16 ar
@<TRIPOS>SUBSTRUCTURE
     1 RES1 1

@<TRIPOS>CRYSIN
   7.1689    7.7691   11.8603  85.4690  88.4170  75.3690   2 1

