# MOL2 file generated by ConQuest
# Please check atom types

@<TRIPOS>MOLECULE
ACEZAK
    59    62     1
SMALL
NO_CHARGES
****
Generated from CSD

@<TRIPOS>ATOM
      1 O1        11.7973    4.5271   19.4306 O.2       1 RES1    0.0000
      2 O2        10.4976    6.1991   19.2574 O.2       1 RES1    0.0000
      3 O3         6.3399    0.2219   15.0382 O.3       1 RES1    0.0000
      4 O4         2.2622    1.6987    8.1960 O.2       1 RES1    0.0000
      5 N1        10.7213    5.0235   19.1412 N.pl3     1 RES1    0.0000
      6 N2         7.4320    0.6523   15.8305 N.2       1 RES1    0.0000
      7 N3         5.7928    2.2076   15.8480 N.2       1 RES1    0.0000
      8 N4         4.0588    1.8853   13.1773 N.3       1 RES1    0.0000
      9 N5         3.8797    2.4046   10.3615 N.3       1 RES1    0.0000
     10 N6         2.0769    3.8662    7.5756 N.am      1 RES1    0.0000
     11 H1         2.4395    4.6448    7.6146 H         1 RES1    0.0000
     12 C1         9.7241    4.1789   18.4807 C.ar      1 RES1    0.0000
     13 C2        10.0992    2.9049   18.0997 C.ar      1 RES1    0.0000
     14 H2        10.9458    2.5787   18.3049 H         1 RES1    0.0000
     15 C3         9.2003    2.1330   17.4140 C.ar      1 RES1    0.0000
     16 H3         9.4330    1.2702   17.1594 H         1 RES1    0.0000
     17 C4         7.9419    2.6294   17.0972 C.ar      1 RES1    0.0000
     18 C5         7.5713    3.8901   17.5402 C.ar      1 RES1    0.0000
     19 H4         6.7144    4.2086   17.3680 H         1 RES1    0.0000
     20 C6         8.4694    4.6763   18.2341 C.ar      1 RES1    0.0000
     21 H5         8.2293    5.5247   18.5301 H         1 RES1    0.0000
     22 C7         7.0458    1.8087   16.2632 C.2       1 RES1    0.0000
     23 C8         5.4210    1.2023   15.1015 C.2       1 RES1    0.0000
     24 C9         4.1875    0.9680   14.2910 C.3       1 RES1    0.0000
     25 H6         4.2012    0.0593   13.9513 H         1 RES1    0.0000
     26 H7         3.4112    1.0579   14.8651 H         1 RES1    0.0000
     27 C10        5.2354    1.8422   12.3096 C.3       1 RES1    0.0000
     28 H8         5.3707    0.9364   11.9914 H         1 RES1    0.0000
     29 H9         6.0207    2.1043   12.8158 H         1 RES1    0.0000
     30 C11        5.0623    2.7662   11.1366 C.3       1 RES1    0.0000
     31 H10        4.9743    3.6787   11.4518 H         1 RES1    0.0000
     32 H11        5.8475    2.7193   10.5678 H         1 RES1    0.0000
     33 C12        2.7138    2.4486   11.2385 C.3       1 RES1    0.0000
     34 H12        1.9195    2.2066   10.7366 H         1 RES1    0.0000
     35 H13        2.5955    3.3506   11.5776 H         1 RES1    0.0000
     36 C13        2.8932    1.5036   12.3824 C.3       1 RES1    0.0000
     37 H14        2.1003    1.5151   12.9416 H         1 RES1    0.0000
     38 H15        3.0108    0.6016   12.0444 H         1 RES1    0.0000
     39 C14        3.7308    3.3057    9.2164 C.3       1 RES1    0.0000
     40 H16        4.5650    3.3315    8.7204 H         1 RES1    0.0000
     41 H17        3.5468    4.2019    9.5382 H         1 RES1    0.0000
     42 C15        2.6231    2.8752    8.2943 C.2       1 RES1    0.0000
     43 C16        0.9104    3.6978    6.7350 C.ar      1 RES1    0.0000
     44 C17       -0.2348    4.3588    7.1323 C.ar      1 RES1    0.0000
     45 C18       -1.3748    4.2258    6.3182 C.ar      1 RES1    0.0000
     46 H18       -2.1655    4.6582    6.5519 H         1 RES1    0.0000
     47 C19       -1.3206    3.4511    5.1720 C.ar      1 RES1    0.0000
     48 H19       -2.0773    3.3707    4.6383 H         1 RES1    0.0000
     49 C20       -0.1881    2.8121    4.8181 C.ar      1 RES1    0.0000
     50 H20       -0.1802    2.2832    4.0523 H         1 RES1    0.0000
     51 C21        0.9731    2.9317    5.5822 C.ar      1 RES1    0.0000
     52 C22       -0.2741    5.1737    8.3850 C.3       1 RES1    0.0000
     53 H21        0.5847    5.1441    8.8131 H         1 RES1    0.0000
     54 H22       -0.9395    4.8179    8.9787 H         1 RES1    0.0000
     55 H23       -0.4926    6.0833    8.1675 H         1 RES1    0.0000
     56 C23        2.2245    2.2516    5.1213 C.3       1 RES1    0.0000
     57 H24        2.9326    2.4276    5.7441 H         1 RES1    0.0000
     58 H25        2.4699    2.5854    4.2543 H         1 RES1    0.0000
     59 H26        2.0733    1.3047    5.0687 H         1 RES1    0.0000
@<TRIPOS>BOND
     1    1    5 2
     2    2    5 2
     3    3    6 1
     4    4   42 2
     5    5   12 1
     6    6   22 2
     7    7   22 1
     8    8   24 1
     9    9   30 1
    10   10   11 1
    11   12   13 ar
    12   13   14 1
    13   15   13 ar
    14   16   15 1
    15   17   15 ar
    16   18   17 ar
    17   19   18 1
    18   20   12 ar
    19   21   20 1
    20   22   17 1
    21   23    3 1
    22   24   23 1
    23   25   24 1
    24   26   24 1
    25   27    8 1
    26   28   27 1
    27   29   27 1
    28   30   27 1
    29   31   30 1
    30   32   30 1
    31   33    9 1
    32   34   33 1
    33   35   33 1
    34   36    8 1
    35   37   36 1
    36   38   36 1
    37   39    9 1
    38   40   39 1
    39   41   39 1
    40   42   10 1
    41   43   10 1
    42   44   43 ar
    43   45   44 ar
    44   46   45 1
    45   47   45 ar
    46   48   47 1
    47   49   47 ar
    48   50   49 1
    49   51   43 ar
    50   52   44 1
    51   53   52 1
    52   54   52 1
    53   55   52 1
    54   56   51 1
    55   57   56 1
    56   58   56 1
    57   59   56 1
    58    7   23 2
    59   18   20 ar
    60   33   36 1
    61   39   42 1
    62   49   51 ar
@<TRIPOS>SUBSTRUCTURE
     1 RES1 1

@<TRIPOS>CRYSIN
   7.2240    9.5650   33.2450  90.0000  95.2200  90.0000  14 1

