# MOL2 file generated by ConQuest
# Please check atom types

@<TRIPOS>MOLECULE
ACIDAR
    33    35     1
SMALL
NO_CHARGES
****
Generated from CSD

@<TRIPOS>ATOM
      1 O1         2.7546    9.4700   10.2931 O.2       1 RES1    0.0000
      2 O2         0.9116    4.5620    4.9295 O.2       1 RES1    0.0000
      3 O3         0.5107    3.3917    3.1716 O.2       1 RES1    0.0000
      4 N1         0.7705    7.1519    4.8690 N.3       1 RES1    0.0000
      5 N2         0.8779    8.4129    5.3279 N.2       1 RES1    0.0000
      6 N3         0.5486    4.4712    3.7462 N.pl3     1 RES1    0.0000
      7 C1         2.3410    9.2267    9.1677 C.2       1 RES1    0.0000
      8 C2         2.2938    7.8727    8.6613 C.2       1 RES1    0.0000
      9 C3         1.8564    7.5838    7.4295 C.2       1 RES1    0.0000
     10 C4         1.3797    8.6062    6.5172 C.2       1 RES1    0.0000
     11 C5         1.0543   11.0618    6.1344 C.ar      1 RES1    0.0000
     12 C6         1.0801   12.3596    6.5795 C.ar      1 RES1    0.0000
     13 C7         1.4985   12.6416    7.8730 C.ar      1 RES1    0.0000
     14 C8         1.9027   11.6272    8.6957 C.ar      1 RES1    0.0000
     15 C9         1.8902   10.3047    8.2540 C.ar      1 RES1    0.0000
     16 C10        1.4455   10.0063    6.9611 C.ar      1 RES1    0.0000
     17 C11        0.2549    6.9480    3.5955 C.ar      1 RES1    0.0000
     18 C12        0.1551    5.6636    3.0256 C.ar      1 RES1    0.0000
     19 C13       -0.3520    5.4892    1.7411 C.ar      1 RES1    0.0000
     20 C14       -0.7780    6.5572    1.0203 C.ar      1 RES1    0.0000
     21 C15       -0.6973    7.8290    1.5633 C.ar      1 RES1    0.0000
     22 C16       -0.1749    8.0242    2.8172 C.ar      1 RES1    0.0000
     23 H1         2.5566    7.2190    9.1934 H         1 RES1    0.0000
     24 H2         1.8975    6.6822    7.1394 H         1 RES1    0.0000
     25 H3         0.7851   10.8507    5.3019 H         1 RES1    0.0000
     26 H4         0.7809   13.0159    5.9960 H         1 RES1    0.0000
     27 H5         1.4682   13.5347    8.1466 H         1 RES1    0.0000
     28 H6         2.1483   11.7573    9.5822 H         1 RES1    0.0000
     29 H7        -0.3962    4.5825    1.4301 H         1 RES1    0.0000
     30 H8        -1.1513    6.4237    0.1834 H         1 RES1    0.0000
     31 H9        -1.0131    8.5447    1.0819 H         1 RES1    0.0000
     32 H10       -0.1294    8.8687    3.1963 H         1 RES1    0.0000
     33 H11        1.0000    6.2649    5.3765 H         1 RES1    0.0000
@<TRIPOS>BOND
     1    1    7 2
     2    2    6 2
     3    3    6 2
     4    4    5 1
     5    5   10 2
     6    6   18 1
     7    7    8 1
     8    8    9 2
     9    9   10 1
    10   10   16 1
    11   11   12 ar
    12   12   13 ar
    13   13   14 ar
    14   14   15 ar
    15   15    7 1
    16   16   11 ar
    17   17    4 1
    18   18   17 ar
    19   19   18 ar
    20   20   19 ar
    21   21   20 ar
    22   22   17 ar
    23   23    8 1
    24   24    9 1
    25   25   11 1
    26   26   12 1
    27   27   13 1
    28   28   14 1
    29   29   19 1
    30   30   20 1
    31   31   21 1
    32   32   22 1
    33   33    4 1
    34   15   16 ar
    35   21   22 ar
@<TRIPOS>SUBSTRUCTURE
     1 RES1 1

@<TRIPOS>CRYSIN
   7.3280   16.3660   11.1310  90.0000  99.3300  90.0000 231 1

