# MOL2 file generated by ConQuest
# Please check atom types

@<TRIPOS>MOLECULE
ACISAI01
    36    38     1
SMALL
NO_CHARGES
****
Generated from CSD

@<TRIPOS>ATOM
      1 C1        11.4158    0.2357    1.3262 C.ar      1 RES1    0.0000
      2 H1        11.6020    0.3915    2.2244 H         1 RES1    0.0000
      3 C2        10.3437    0.8699    0.7328 C.ar      1 RES1    0.0000
      4 C3        10.0839    0.6287   -0.6028 C.ar      1 RES1    0.0000
      5 H2         9.3661    1.0496   -1.0183 H         1 RES1    0.0000
      6 C4         9.4717    1.8000    1.5390 C.3       1 RES1    0.0000
      7 H3         9.9455    2.0688    2.3416 H         1 RES1    0.0000
      8 H4         9.2884    2.5982    1.0183 H         1 RES1    0.0000
      9 C5         6.9367   -0.1659    2.9795 C.2       1 RES1    0.0000
     10 H5         6.6167   -0.8042    3.5745 H         1 RES1    0.0000
     11 C6         6.1609    0.4972    2.0460 C.2       1 RES1    0.0000
     12 C7         7.0069    1.3506    1.3829 C.2       1 RES1    0.0000
     13 H6         6.7856    1.9383    0.6977 H         1 RES1    0.0000
     14 N1         8.2009    1.1663    1.9168 N.pl3     1 RES1    0.0000
     15 N2         8.1949    0.2302    2.9098 N.2       1 RES1    0.0000
     16 N3         4.7673    0.3594    1.8261 N.pl3     1 RES1    0.0000
     17 O1         4.1505   -0.4733    2.4727 O.2       1 RES1    0.0000
     18 O2         4.2259    1.0868    1.0057 O.2       1 RES1    0.0000
     19 C1B       10.8862   -0.2357   -1.3262 C.ar      1 RES1    0.0000
     20 H1B       10.7000   -0.3915   -2.2244 H         1 RES1    0.0000
     21 C2B       11.9583   -0.8699   -0.7328 C.ar      1 RES1    0.0000
     22 C3B       12.2181   -0.6287    0.6028 C.ar      1 RES1    0.0000
     23 H2B       12.9359   -1.0496    1.0183 H         1 RES1    0.0000
     24 C4B       12.8303   -1.8000   -1.5390 C.3       1 RES1    0.0000
     25 H3B       12.3565   -2.0688   -2.3416 H         1 RES1    0.0000
     26 H4B       13.0136   -2.5982   -1.0183 H         1 RES1    0.0000
     27 C5B       15.3653    0.1659   -2.9795 C.2       1 RES1    0.0000
     28 H5B       15.6853    0.8042   -3.5745 H         1 RES1    0.0000
     29 C6B       16.1411   -0.4972   -2.0460 C.2       1 RES1    0.0000
     30 C7B       15.2951   -1.3506   -1.3829 C.2       1 RES1    0.0000
     31 H6B       15.5164   -1.9383   -0.6977 H         1 RES1    0.0000
     32 N1B       14.1011   -1.1663   -1.9168 N.pl3     1 RES1    0.0000
     33 N2B       14.1071   -0.2302   -2.9098 N.2       1 RES1    0.0000
     34 N3B       17.5347   -0.3594   -1.8261 N.pl3     1 RES1    0.0000
     35 O1B       18.1515    0.4733   -2.4727 O.2       1 RES1    0.0000
     36 O2B       18.0761   -1.0868   -1.0057 O.2       1 RES1    0.0000
@<TRIPOS>BOND
     1    1    2 1
     2    3    1 ar
     3    4    3 ar
     4    5    4 1
     5    6    3 1
     6    7    6 1
     7    8    6 1
     8    9   10 1
     9   11    9 1
    10   12   11 2
    11   13   12 1
    12   14    6 1
    13   15    9 2
    14   16   11 1
    15   17   16 2
    16   18   16 2
    17   19    4 ar
    18   20   19 1
    19   21   19 ar
    20   22    1 ar
    21   23   22 1
    22   24   21 1
    23   25   24 1
    24   26   24 1
    25   27   28 1
    26   29   27 1
    27   30   29 2
    28   31   30 1
    29   32   24 1
    30   33   27 2
    31   34   29 1
    32   35   34 2
    33   36   34 2
    34   12   14 1
    35   14   15 1
    36   21   22 ar
    37   30   32 1
    38   32   33 1
@<TRIPOS>SUBSTRUCTURE
     1 RES1 1

@<TRIPOS>CRYSIN
  11.1510    4.5954   14.7070  90.0000 106.2000  90.0000  14 1

