# MOL2 file generated by ConQuest
# Please check atom types

@<TRIPOS>MOLECULE
ACMCOX
    36    36     1
SMALL
NO_CHARGES
****
Generated from CSD

@<TRIPOS>ATOM
      1 O1         0.2037    5.5574    8.4968 O.3       1 RES1    0.0000
      2 N1         0.6914    5.8510    7.1746 N.2       1 RES1    0.0000
      3 C1         1.7300    5.1808    6.8470 C.2       1 RES1    0.0000
      4 C2         2.4299    4.1855    7.6779 C.3       1 RES1    0.0000
      5 C3         2.3159    2.7925    7.0439 C.3       1 RES1    0.0000
      6 C4         2.7765    2.9031    5.5564 C.3       1 RES1    0.0000
      7 C5         2.1323    4.0235    4.6909 C.3       1 RES1    0.0000
      8 C6         2.2544    5.3493    5.4677 C.3       1 RES1    0.0000
      9 C7         3.2776    1.8551    7.7696 C.3       1 RES1    0.0000
     10 C8         0.8968    2.2514    7.2407 C.3       1 RES1    0.0000
     11 C9         2.7600    1.5562    4.8622 C.2       1 RES1    0.0000
     12 O2         1.7468    0.9638    4.6368 O.2       1 RES1    0.0000
     13 C10        4.0696    0.9690    4.4505 C.3       1 RES1    0.0000
     14 C11        2.9316    4.1499    3.3912 C.3       1 RES1    0.0000
     15 C12        0.6589    3.7984    4.3168 C.3       1 RES1    0.0000
     16 H1         0.1846    6.5830    9.0152 H         1 RES1    0.0000
     17 H2         3.4935    4.4448    7.8883 H         1 RES1    0.0000
     18 H3         2.0892    4.2316    8.6425 H         1 RES1    0.0000
     19 H4         3.7745    2.9624    5.7096 H         1 RES1    0.0000
     20 H5         3.2662    5.6811    5.5774 H         1 RES1    0.0000
     21 H6         1.7842    6.1182    4.9493 H         1 RES1    0.0000
     22 H7         2.9999    1.7195    8.6425 H         1 RES1    0.0000
     23 H8         3.2328    0.9348    7.3128 H         1 RES1    0.0000
     24 H9         4.2347    2.2738    7.8417 H         1 RES1    0.0000
     25 H10        0.7235    2.0025    8.1963 H         1 RES1    0.0000
     26 H11        0.7634    1.3837    6.6667 H         1 RES1    0.0000
     27 H12        0.2199    2.9834    6.9342 H         1 RES1    0.0000
     28 H13        4.1128    0.2199    3.8435 H         1 RES1    0.0000
     29 H14        4.7270    1.0335    5.1627 H         1 RES1    0.0000
     30 H15        4.6278    1.6694    3.9006 H         1 RES1    0.0000
     31 H16        3.9681    4.3066    3.6481 H         1 RES1    0.0000
     32 H17        2.9464    3.2915    2.7046 H         1 RES1    0.0000
     33 H18        2.5321    5.0597    2.7947 H         1 RES1    0.0000
     34 H19        0.0323    3.9050    5.1552 H         1 RES1    0.0000
     35 H20        0.5195    2.8689    3.7473 H         1 RES1    0.0000
     36 H21        0.3942    4.6094    3.6617 H         1 RES1    0.0000
@<TRIPOS>BOND
     1    1    2 1
     2    2    3 2
     3    3    4 1
     4    4    5 1
     5    5    6 1
     6    6    7 1
     7    7    8 1
     8    8    3 1
     9    9    5 1
    10   10    5 1
    11   11    6 1
    12   12   11 2
    13   13   11 1
    14   14    7 1
    15   15    7 1
    16   16    1 1
    17   17    4 1
    18   18    4 1
    19   19    6 1
    20   20    8 1
    21   21    8 1
    22   22    9 1
    23   23    9 1
    24   24    9 1
    25   25   10 1
    26   26   10 1
    27   27   10 1
    28   28   13 1
    29   29   13 1
    30   30   13 1
    31   31   14 1
    32   32   14 1
    33   33   14 1
    34   34   15 1
    35   35   15 1
    36   36   15 1
@<TRIPOS>SUBSTRUCTURE
     1 RES1 1

@<TRIPOS>CRYSIN
   6.2420   13.1660   16.7300  90.0000 116.0900  90.0000  14 1

