# MOL2 file generated by ConQuest
# Please check atom types

@<TRIPOS>MOLECULE
ACNOCT
    56    56     1
SMALL
NO_CHARGES
****
Generated from CSD

@<TRIPOS>ATOM
      1 O1         1.8824    2.8821    1.4146 O.3       1 RES1    0.0000
      2 O2         4.2299    2.3318    0.7243 O.3       1 RES1    0.0000
      3 O3         6.5002    3.2454    0.9603 O.3       1 RES1    0.0000
      4 O4         7.1416    4.5414    3.0191 O.3       1 RES1    0.0000
      5 O5         5.8036    5.6209    4.8836 O.3       1 RES1    0.0000
      6 O6         3.7537    7.0706    4.5445 O.3       1 RES1    0.0000
      7 O7         1.9193    7.1964    2.8127 O.3       1 RES1    0.0000
      8 O8         0.9664    5.2087    1.5792 O.3       1 RES1    0.0000
      9 N1         2.2613    1.4428    1.4596 N.2       1 RES1    0.0000
     10 N2         5.1584    2.0244   -0.3665 N.2       1 RES1    0.0000
     11 N3         7.8692    3.7082    1.0053 N.2       1 RES1    0.0000
     12 N4         7.7104    4.4820    4.3612 N.2       1 RES1    0.0000
     13 N5         5.1442    6.0838    6.0689 N.2       1 RES1    0.0000
     14 N6         2.9687    8.3021    4.4842 N.2       1 RES1    0.0000
     15 N7         0.9923    7.4864    1.7460 N.2       1 RES1    0.0000
     16 N8         0.0883    4.2148    1.0503 N.2       1 RES1    0.0000
     17 C1         3.4701    1.3153    1.0492 C.2       1 RES1    0.0000
     18 C2         6.2781    2.5956   -0.1921 C.2       1 RES1    0.0000
     19 C3         8.1122    4.3004    2.0851 C.2       1 RES1    0.0000
     20 C4         6.9567    5.0078    5.2611 C.2       1 RES1    0.0000
     21 C5         4.1450    6.8366    5.8263 C.2       1 RES1    0.0000
     22 C6         2.0884    8.2986    3.5623 C.2       1 RES1    0.0000
     23 C7         0.5469    6.4051    1.2050 C.2       1 RES1    0.0000
     24 C8         0.6231    3.0847    1.0426 C.2       1 RES1    0.0000
     25 C9         4.0192   -0.1153    1.0162 C.3       1 RES1    0.0000
     26 C10        7.2683    2.5432   -1.2928 C.3       1 RES1    0.0000
     27 C11        9.5521    4.7842    2.2991 C.3       1 RES1    0.0000
     28 C12        7.4067    4.9117    6.6626 C.3       1 RES1    0.0000
     29 C13        3.4073    7.4112    6.9830 C.3       1 RES1    0.0000
     30 C14        1.2937    9.5282    3.4273 C.3       1 RES1    0.0000
     31 C15       -0.4748    6.5833    0.0955 C.3       1 RES1    0.0000
     32 C16       -0.1993    1.8742    0.5356 C.3       1 RES1    0.0000
     33 H1         4.7835    0.0873    1.2621 H         1 RES1    0.0000
     34 H2         3.9252   -0.2271    0.1097 H         1 RES1    0.0000
     35 H3         3.1875   -0.5415    1.4815 H         1 RES1    0.0000
     36 H4         8.1079    1.9912   -0.8889 H         1 RES1    0.0000
     37 H5         7.0147    2.0611   -2.0632 H         1 RES1    0.0000
     38 H6         7.5357    3.4934   -1.6571 H         1 RES1    0.0000
     39 H7         9.8665    4.1571    2.9631 H         1 RES1    0.0000
     40 H8         9.3336    5.3449    1.4815 H         1 RES1    0.0000
     41 H9         9.0990    5.6768    2.4692 H         1 RES1    0.0000
     42 H10        7.3601    5.7641    7.1114 H         1 RES1    0.0000
     43 H11        8.4631    4.5065    6.7164 H         1 RES1    0.0000
     44 H12        6.7746    4.3493    7.0456 H         1 RES1    0.0000
     45 H13        3.4951    8.2270    6.9358 H         1 RES1    0.0000
     46 H14        2.3836    7.1964    6.8700 H         1 RES1    0.0000
     47 H15        3.7179    7.1615    7.7809 H         1 RES1    0.0000
     48 H16        0.4609    9.3798    3.6325 H         1 RES1    0.0000
     49 H17        1.3661    9.9213    2.5131 H         1 RES1    0.0000
     50 H18        1.6422   10.3230    3.9618 H         1 RES1    0.0000
     51 H19       -0.6364    7.5108   -0.1756 H         1 RES1    0.0000
     52 H20       -0.0543    6.1309   -0.7243 H         1 RES1    0.0000
     53 H21       -1.3526    6.0261    0.4500 H         1 RES1    0.0000
     54 H22       -0.1742    1.5720    1.4267 H         1 RES1    0.0000
     55 H23       -0.7559    2.4628    0.0768 H         1 RES1    0.0000
     56 H24        0.5063    1.6768   -0.2744 H         1 RES1    0.0000
@<TRIPOS>BOND
     1    1    9 1
     2    2   10 1
     3    3   11 1
     4    4   12 1
     5    5   13 1
     6    6   14 1
     7    7   15 1
     8    8   16 1
     9    9   17 2
    10   10   18 2
    11   11   19 2
    12   12   20 2
    13   13   21 2
    14   14   22 2
    15   15   23 2
    16   16   24 2
    17   17    2 1
    18   18    3 1
    19   19    4 1
    20   20    5 1
    21   21    6 1
    22   22    7 1
    23   23    8 1
    24   24    1 1
    25   25   17 1
    26   26   18 1
    27   27   19 1
    28   28   20 1
    29   29   21 1
    30   30   22 1
    31   31   23 1
    32   32   24 1
    33   33   25 1
    34   34   25 1
    35   35   25 1
    36   36   26 1
    37   37   26 1
    38   38   26 1
    39   39   27 1
    40   40   27 1
    41   41   27 1
    42   42   28 1
    43   43   28 1
    44   44   28 1
    45   45   29 1
    46   46   29 1
    47   47   29 1
    48   48   30 1
    49   49   30 1
    50   50   30 1
    51   51   31 1
    52   52   31 1
    53   53   31 1
    54   54   32 1
    55   55   32 1
    56   56   32 1
@<TRIPOS>SUBSTRUCTURE
     1 RES1 1

@<TRIPOS>CRYSIN
  23.9150   17.4670   11.1690  90.0000 100.7100  90.0000  15 1

