# MOL2 file generated by ConQuest
# Please check atom types

@<TRIPOS>MOLECULE
ACOFOQ
    48    48     1
SMALL
NO_CHARGES
****
Generated from CSD

@<TRIPOS>ATOM
      1 O1         2.4735    1.3020   10.0806 O.2       1 RES1    0.0000
      2 N1         1.7025    2.0511   10.6492 N.pl3     1 RES1    0.0000
      3 C1         2.6766    1.4483   12.8807 C.ar      1 RES1    0.0000
      4 O2         0.8174    2.6784   10.0595 O.2       1 RES1    0.0000
      5 C2         1.8050    2.2499   12.1006 C.ar      1 RES1    0.0000
      6 O3         0.3333    4.4230   14.6812 O.3       1 RES1    0.0000
      7 C3         1.0178    3.2469   12.6590 C.ar      1 RES1    0.0000
      8 O4         1.9065    3.0263   16.1669 O.3       1 RES1    0.0000
      9 C4         1.0621    3.4807   14.0268 C.ar      1 RES1    0.0000
     10 C5         1.9301    2.7080   14.8382 C.ar      1 RES1    0.0000
     11 C6         2.7101    1.7303   14.2589 C.ar      1 RES1    0.0000
     12 H1         3.2939    1.2251   14.8134 H         1 RES1    0.0000
     13 C7         3.5079    0.3805   12.3934 C.1       1 RES1    0.0000
     14 C8         4.2304   -0.5196   12.1111 C.1       1 RES1    0.0000
     15 C9        -0.4456    5.3384   13.8720 C.3       1 RES1    0.0000
     16 H2        -1.0839    4.8366   13.3053 H         1 RES1    0.0000
     17 H3         0.1500    5.8658   13.2822 H         1 RES1    0.0000
     18 C10       -1.1849    6.2460   14.8027 C.3       1 RES1    0.0000
     19 H4        -1.7495    5.6920   15.3989 H         1 RES1    0.0000
     20 H5        -1.7901    6.8194   14.2690 H         1 RES1    0.0000
     21 C11       -0.3051    7.1478   15.6706 C.3       1 RES1    0.0000
     22 H6         0.3469    6.5850   16.1596 H         1 RES1    0.0000
     23 H7         0.2050    7.7595   15.0836 H         1 RES1    0.0000
     24 C12       -1.0881    7.9644   16.6661 C.3       1 RES1    0.0000
     25 H8        -1.5885    7.3504   17.2598 H         1 RES1    0.0000
     26 H9        -1.7495    8.5152   16.1768 H         1 RES1    0.0000
     27 C13       -0.2130    8.8925   17.5340 C.3       1 RES1    0.0000
     28 H10        0.4404    8.3556   18.0293 H         1 RES1    0.0000
     29 H11       -0.7813    9.3804   18.1655 H         1 RES1    0.0000
     30 H12        0.2578    9.5301   16.9577 H         1 RES1    0.0000
     31 C14        2.9239    2.4569   17.0133 C.3       1 RES1    0.0000
     32 H13        3.8206    2.7520   16.7136 H         1 RES1    0.0000
     33 H14        2.8892    1.4683   16.9707 H         1 RES1    0.0000
     34 C15        2.6639    2.9282   18.4249 C.3       1 RES1    0.0000
     35 H15        3.3046    2.4814   19.0328 H         1 RES1    0.0000
     36 H16        1.7522    2.6491   18.6909 H         1 RES1    0.0000
     37 C16        2.7867    4.4304   18.6048 C.3       1 RES1    0.0000
     38 H17        2.1617    4.8836   17.9841 H         1 RES1    0.0000
     39 H18        3.7060    4.7116   18.3672 H         1 RES1    0.0000
     40 C17        2.4787    4.8780   20.0457 C.3       1 RES1    0.0000
     41 H19        1.5630    4.5847   20.2818 H         1 RES1    0.0000
     42 H20        3.1074    4.4241   20.6614 H         1 RES1    0.0000
     43 C18        2.5810    6.3621   20.2570 C.3       1 RES1    0.0000
     44 H21        3.4905    6.6604   20.0471 H         1 RES1    0.0000
     45 H22        2.3763    6.5737   21.1926 H         1 RES1    0.0000
     46 H23        1.9430    6.8207   19.6720 H         1 RES1    0.0000
     47 H24        0.4218    3.6821   12.0881 H         1 RES1    0.0000
     48 H25        4.7360   -1.2593   11.7953 H         1 RES1    0.0000
@<TRIPOS>BOND
     1    1    2 2
     2    2    4 2
     3    3    5 ar
     4    5    2 1
     5    6    9 1
     6    7    5 ar
     7    8   10 1
     8    9    7 ar
     9   10    9 ar
    10   11    3 ar
    11   12   11 1
    12   13    3 1
    13   14   13 3
    14   15    6 1
    15   16   15 1
    16   17   15 1
    17   18   15 1
    18   19   18 1
    19   20   18 1
    20   21   18 1
    21   22   21 1
    22   23   21 1
    23   24   21 1
    24   25   24 1
    25   26   24 1
    26   27   24 1
    27   28   27 1
    28   29   27 1
    29   30   27 1
    30   31    8 1
    31   32   31 1
    32   33   31 1
    33   34   31 1
    34   35   34 1
    35   36   34 1
    36   37   34 1
    37   38   37 1
    38   39   37 1
    39   40   37 1
    40   41   40 1
    41   42   40 1
    42   43   40 1
    43   44   43 1
    44   45   43 1
    45   46   43 1
    46   47    7 1
    47   48   14 1
    48   10   11 ar
@<TRIPOS>SUBSTRUCTURE
     1 RES1 1

@<TRIPOS>CRYSIN
   4.5700    9.4150   20.9680  94.0030  90.7580  93.4350   2 1

