# MOL2 file generated by ConQuest
# Please check atom types

@<TRIPOS>MOLECULE
ACOWOE
    17    17     1
SMALL
NO_CHARGES
****
Generated from CSD

@<TRIPOS>ATOM
      1 O1        10.3128    4.1915    1.5412 O.2       1 RES1    0.0000
      2 C1         9.2809    3.5702    1.3467 C.2       1 RES1    0.0000
      3 H1         9.1105    3.0532    0.5526 H         1 RES1    0.0000
      4 N1         8.2560    3.5666    2.1666 N.am      1 RES1    0.0000
      5 C2         8.1471    4.1218    3.5162 C.3       1 RES1    0.0000
      6 H2         8.8652    3.7975    4.1009 H         1 RES1    0.0000
      7 H3         8.0749    5.1044    3.5383 H         1 RES1    0.0000
      8 C3         6.8302    3.3496    3.6496 C.3       1 RES1    0.0000
      9 N2         5.6247    4.2424    3.7665 N.pl3     1 RES1    0.0000
     10 O2         4.9361    4.1758    4.7554 O.2       1 RES1    0.0000
     11 O3         5.4533    5.0074    2.8453 O.2       1 RES1    0.0000
     12 N3         6.7597    2.3828    4.7964 N.pl3     1 RES1    0.0000
     13 O4         6.2328    1.3172    4.6017 O.2       1 RES1    0.0000
     14 O5         7.2509    2.7501    5.8460 O.2       1 RES1    0.0000
     15 C4         7.0513    2.7483    2.2559 C.3       1 RES1    0.0000
     16 H4         7.2000    1.8148    2.2847 H         1 RES1    0.0000
     17 H5         6.3287    2.9780    1.6501 H         1 RES1    0.0000
@<TRIPOS>BOND
     1    1    2 2
     2    2    3 1
     3    4    2 1
     4    5    4 1
     5    6    5 1
     6    7    5 1
     7    8    5 1
     8    9    8 1
     9   10    9 2
    10   11    9 2
    11   12    8 1
    12   13   12 2
    13   14   12 2
    14   15    4 1
    15   16   15 1
    16   17   15 1
    17    8   15 1
@<TRIPOS>SUBSTRUCTURE
     1 RES1 1

@<TRIPOS>CRYSIN
  10.3270    6.0615   11.2514  90.0000 100.1720  90.0000  14 1

