# MOL2 file generated by ConQuest
# Please check atom types

@<TRIPOS>MOLECULE
ACPIXZ
    40    42     1
SMALL
NO_CHARGES
****
Generated from CSD

@<TRIPOS>ATOM
      1 C1         2.4468   -1.5273    3.2411 C.ar      1 RES1    0.0000
      2 C2         1.9593   -0.7077    2.2376 C.ar      1 RES1    0.0000
      3 C3         0.8119   -0.6163   -0.7922 C.ar      1 RES1    0.0000
      4 C4         0.3521   -1.9058   -0.5065 C.ar      1 RES1    0.0000
      5 C5         0.8414   -3.0023   -1.1788 C.ar      1 RES1    0.0000
      6 C6         1.8128   -2.8420   -2.1461 C.ar      1 RES1    0.0000
      7 C7         2.3077   -1.5711   -2.4299 C.ar      1 RES1    0.0000
      8 C8         1.8183   -0.4634   -1.7596 C.ar      1 RES1    0.0000
      9 C9        -1.8819    1.0210   -2.4832 C.2       1 RES1    0.0000
     10 C10       -0.0083    2.7515   -2.6565 C.2       1 RES1    0.0000
     11 C11       -2.6616    0.2601   -1.5139 C.3       1 RES1    0.0000
     12 C12       -0.4129    3.1375   -4.0638 C.3       1 RES1    0.0000
     13 C13        0.2580    0.8177    1.3197 C.2       1 RES1    0.0000
     14 C14        0.2875    0.5315   -0.0800 C.2       1 RES1    0.0000
     15 C15       -0.4156    1.5683   -0.6113 C.2       1 RES1    0.0000
     16 C16        0.7898    0.0186    2.4070 C.ar      1 RES1    0.0000
     17 C17        0.1309   -0.0662    3.6353 C.ar      1 RES1    0.0000
     18 C18        0.6341   -0.8690    4.6370 C.ar      1 RES1    0.0000
     19 C19        1.7824   -1.6121    4.4503 C.ar      1 RES1    0.0000
     20 H1        -0.7281    0.4848    3.6563 H         1 RES1    0.0000
     21 H2         0.2212   -0.8951    5.4844 H         1 RES1    0.0000
     22 H3         2.2579   -2.1725    5.2368 H         1 RES1    0.0000
     23 H4         3.2072   -2.1725    3.1992 H         1 RES1    0.0000
     24 H5         2.4607   -0.6807    1.3330 H         1 RES1    0.0000
     25 H6        -0.2580   -2.0699    0.0952 H         1 RES1    0.0000
     26 H7         0.4700   -3.9441   -1.0093 H         1 RES1    0.0000
     27 H8         2.3132   -3.5897   -2.6089 H         1 RES1    0.0000
     28 H9         3.0874   -1.3800   -3.1421 H         1 RES1    0.0000
     29 H10        2.1842    0.3730   -1.9614 H         1 RES1    0.0000
     30 H11       -2.7648    0.9138   -0.7236 H         1 RES1    0.0000
     31 H12       -2.2856   -0.6527   -1.1235 H         1 RES1    0.0000
     32 H13       -3.5205    0.0280   -2.0757 H         1 RES1    0.0000
     33 H14       -0.0184    3.7482   -4.4370 H         1 RES1    0.0000
     34 H15       -0.1751    2.3403   -4.6274 H         1 RES1    0.0000
     35 H16       -1.3640    3.4033   -4.1704 H         1 RES1    0.0000
     36 N1        -0.8276    1.8172   -1.9424 N.am      1 RES1    0.0000
     37 N2        -0.3972    1.9515    1.5730 N.2       1 RES1    0.0000
     38 O1        -0.8313    2.4448    0.3294 O.3       1 RES1    0.0000
     39 O2        -2.0561    0.9800   -3.6696 O.2       1 RES1    0.0000
     40 O3         0.9520    3.1935   -2.0985 O.2       1 RES1    0.0000
@<TRIPOS>BOND
     1    1    2 ar
     2    2   16 ar
     3    3    4 ar
     4    4    5 ar
     5    5    6 ar
     6    6    7 ar
     7    7    8 ar
     8    8    3 ar
     9    9   11 1
    10   10   12 1
    11   11   30 1
    12   12   33 1
    13   13   14 1
    14   14    3 1
    15   15   14 2
    16   16   13 1
    17   17   16 ar
    18   18   17 ar
    19   19    1 ar
    20   20   17 1
    21   21   18 1
    22   22   19 1
    23   23    1 1
    24   24    2 1
    25   25    4 1
    26   26    5 1
    27   27    6 1
    28   28    7 1
    29   29    8 1
    30   31   11 1
    31   32   11 1
    32   34   12 1
    33   35   12 1
    34   36    9 1
    35   37   13 2
    36   38   15 1
    37   39    9 2
    38   40   10 2
    39   10   36 1
    40   15   36 1
    41   18   19 ar
    42   37   38 1
@<TRIPOS>SUBSTRUCTURE
     1 RES1 1

@<TRIPOS>CRYSIN
   9.2160    9.3240   19.0430  90.0000  90.0000  90.0000  19 1

