# MOL2 file generated by ConQuest
# Please check atom types

@<TRIPOS>MOLECULE
ACUMAP
    35    36     1
SMALL
NO_CHARGES
****
Generated from CSD

@<TRIPOS>ATOM
      1 N1         1.5696    8.8987    2.3052 N.pl3     1 RES1    0.0000
      2 C1         0.5792    7.3745    4.6403 C.3       1 RES1    0.0000
      3 H1         2.1319    9.2158    1.7764 H         1 RES1    0.0000
      4 C2         3.1185    6.6900    4.4450 C.3       1 RES1    0.0000
      5 C3         2.0492    7.6349    5.0466 C.3       1 RES1    0.0000
      6 C4         4.3992    6.7396    2.1170 C.3       1 RES1    0.0000
      7 C5         4.1562    7.3629    3.4971 C.3       1 RES1    0.0000
      8 N2        -0.1506    3.7615    1.3795 N.pl3     1 RES1    0.0000
      9 O1        -1.0991    3.3367    2.0523 O.2       1 RES1    0.0000
     10 C6         2.0452    6.7450    1.3437 C.ar      1 RES1    0.0000
     11 C7         0.4944    6.9246    3.1991 C.ar      1 RES1    0.0000
     12 H2         3.5771    8.0680    0.7541 H         1 RES1    0.0000
     13 H3         3.7558    6.6089    0.1961 H         1 RES1    0.0000
     14 H4         5.2672    7.0362    1.8141 H         1 RES1    0.0000
     15 H5         4.4054    5.7721    2.1858 H         1 RES1    0.0000
     16 H6         5.0649    7.3213    3.9374 H         1 RES1    0.0000
     17 H7         3.8942    8.3668    3.3395 H         1 RES1    0.0000
     18 H8         3.6388    6.2800    5.2032 H         1 RES1    0.0000
     19 H9         2.6588    5.9037    3.9665 H         1 RES1    0.0000
     20 H10        2.3007    8.5724    4.7798 H         1 RES1    0.0000
     21 H11        2.1009    7.5919    6.0003 H         1 RES1    0.0000
     22 H12        0.0412    8.1721    4.8466 H         1 RES1    0.0000
     23 H13        0.2291    6.6861    5.1805 H         1 RES1    0.0000
     24 C8         0.6729    9.8826    2.8687 C.3       1 RES1    0.0000
     25 H14        0.7395   10.6997    2.3689 H         1 RES1    0.0000
     26 H15        0.9128   10.0466    3.7844 H         1 RES1    0.0000
     27 H16       -0.2282    9.5547    2.8289 H         1 RES1    0.0000
     28 C9         1.3261    7.5726    2.2467 C.ar      1 RES1    0.0000
     29 O2         0.3101    3.1460    0.4157 O.2       1 RES1    0.0000
     30 C10        3.4521    7.1222    0.9717 C.3       1 RES1    0.0000
     31 C11       -0.0079    5.6765    2.8845 C.ar      1 RES1    0.0000
     32 H17       -0.5850    5.2419    3.4839 H         1 RES1    0.0000
     33 C12        0.4330    5.0225    1.7433 C.ar      1 RES1    0.0000
     34 C13        1.5419    5.4978    1.0500 C.ar      1 RES1    0.0000
     35 H18        1.9978    4.9376    0.4137 H         1 RES1    0.0000
@<TRIPOS>BOND
     1    1    3 1
     2    2    5 1
     3    4    5 1
     4    5   20 1
     5    6    7 1
     6    7    4 1
     7    8    9 2
     8   10   28 ar
     9   11    2 1
    10   12   30 1
    11   13   30 1
    12   14    6 1
    13   15    6 1
    14   16    7 1
    15   17    7 1
    16   18    4 1
    17   19    4 1
    18   21    5 1
    19   22    2 1
    20   23    2 1
    21   24    1 1
    22   25   24 1
    23   26   24 1
    24   27   24 1
    25   28    1 1
    26   29    8 2
    27   30    6 1
    28   31   11 ar
    29   32   31 1
    30   33    8 1
    31   34   10 ar
    32   35   34 1
    33   10   30 1
    34   11   28 ar
    35   31   33 ar
    36   33   34 ar
@<TRIPOS>SUBSTRUCTURE
     1 RES1 1

@<TRIPOS>CRYSIN
   7.5944    7.7999   11.5179 107.4380  94.5440 109.1940   2 1

