# MOL2 file generated by ConQuest
# Please check atom types

@<TRIPOS>MOLECULE
ACUPEV
    44    47     1
SMALL
NO_CHARGES
****
Generated from CSD

@<TRIPOS>ATOM
      1 O1        -0.0060   -0.3414   19.3160 O.2       1 RES1    0.0000
      2 O2        -0.3417   -0.1151   21.4420 O.2       1 RES1    0.0000
      3 O3         3.3524    4.9482   28.3924 O.3       1 RES1    0.0000
      4 O4         5.1868    3.7788   22.1126 O.3       1 RES1    0.0000
      5 N1         5.6892    3.5721   19.8206 N.2       1 RES1    0.0000
      6 N2         0.3105    0.0819   20.4204 N.pl3     1 RES1    0.0000
      7 C1         4.9756    3.3126   20.8368 C.2       1 RES1    0.0000
      8 C2         6.2343    4.6587   22.3782 C.2       1 RES1    0.0000
      9 C3         7.1416    4.9295   21.2533 C.ar      1 RES1    0.0000
     10 C4         8.2986    5.6983   21.3885 C.ar      1 RES1    0.0000
     11 C5         9.1084    5.9456   20.2862 C.ar      1 RES1    0.0000
     12 C6         8.7630    5.4217   19.0529 C.ar      1 RES1    0.0000
     13 C7         7.6283    4.6457   18.9102 C.ar      1 RES1    0.0000
     14 C8         6.8179    4.3911   20.0076 C.ar      1 RES1    0.0000
     15 C9         6.3324    5.1785   23.6072 C.2       1 RES1    0.0000
     16 C10        5.5129    5.0495   24.8094 C.ar      1 RES1    0.0000
     17 C11        4.3204    4.3157   24.8922 C.ar      1 RES1    0.0000
     18 C12        3.5702    4.2589   26.0661 C.ar      1 RES1    0.0000
     19 C13        4.0040    4.9433   27.1853 C.ar      1 RES1    0.0000
     20 C14        5.1724    5.6861   27.1227 C.ar      1 RES1    0.0000
     21 C15        5.9070    5.7339   25.9588 C.ar      1 RES1    0.0000
     22 C16        3.7784    2.4554   20.7533 C.ar      1 RES1    0.0000
     23 C17        3.4318    1.8935   19.5104 C.ar      1 RES1    0.0000
     24 C18        2.2965    1.1069   19.3957 C.ar      1 RES1    0.0000
     25 C19        1.5336    0.8888   20.5235 C.ar      1 RES1    0.0000
     26 C20        1.8609    1.4037   21.7557 C.ar      1 RES1    0.0000
     27 C21        2.9884    2.1846   21.8506 C.ar      1 RES1    0.0000
     28 C22        2.2610    4.0375   28.5401 C.3       1 RES1    0.0000
     29 H1         8.5332    6.0543   22.2369 H         1 RES1    0.0000
     30 H2         9.8941    6.4711   20.3779 H         1 RES1    0.0000
     31 H3         9.3111    5.5977   18.2959 H         1 RES1    0.0000
     32 H4         7.4033    4.2865   18.0586 H         1 RES1    0.0000
     33 H5         4.0154    3.8437   24.1278 H         1 RES1    0.0000
     34 H6         2.7670    3.7529   26.0965 H         1 RES1    0.0000
     35 H7         5.4684    6.1662   27.8882 H         1 RES1    0.0000
     36 H8         6.7054    6.2473   25.9372 H         1 RES1    0.0000
     37 H9         3.9769    2.0540   18.7491 H         1 RES1    0.0000
     38 H10        2.0504    0.7274   18.5615 H         1 RES1    0.0000
     39 H11        1.3242    1.2245   22.5202 H         1 RES1    0.0000
     40 H12        3.2291    2.5479   22.6937 H         1 RES1    0.0000
     41 H13        1.8753    4.1316   29.4356 H         1 RES1    0.0000
     42 H14        2.5823    3.1196   28.4158 H         1 RES1    0.0000
     43 H15        1.5763    4.2362   27.8670 H         1 RES1    0.0000
     44 H16        7.0868    5.7445   23.7206 H         1 RES1    0.0000
@<TRIPOS>BOND
     1    1    6 2
     2    2    6 2
     3    3   19 1
     4    4    7 1
     5    5    7 2
     6    6   25 1
     7    7   22 1
     8    8    4 1
     9    9    8 1
    10   10    9 ar
    11   11   10 ar
    12   12   11 ar
    13   13   12 ar
    14   14    5 1
    15   15    8 2
    16   16   15 1
    17   17   16 ar
    18   18   17 ar
    19   19   18 ar
    20   20   19 ar
    21   21   16 ar
    22   22   23 ar
    23   23   24 ar
    24   24   25 ar
    25   25   26 ar
    26   26   27 ar
    27   27   22 ar
    28   28    3 1
    29   29   10 1
    30   30   11 1
    31   31   12 1
    32   32   13 1
    33   33   17 1
    34   34   18 1
    35   35   20 1
    36   36   21 1
    37   37   23 1
    38   38   24 1
    39   39   26 1
    40   40   27 1
    41   41   28 1
    42   42   28 1
    43   43   28 1
    44   44   15 1
    45    9   14 ar
    46   13   14 ar
    47   20   21 ar
@<TRIPOS>SUBSTRUCTURE
     1 RES1 1

@<TRIPOS>CRYSIN
   6.0165    8.1091   35.4091  90.0000  90.0000  90.0000  19 1

