# MOL2 file generated by ConQuest
# Please check atom types

@<TRIPOS>MOLECULE
ACXHTZ
    24    24     1
SMALL
NO_CHARGES
****
Generated from CSD

@<TRIPOS>ATOM
      1 N1         7.2084    5.1769    4.7769 N.3       1 RES1    0.0000
      2 C1         6.7083    5.2081    6.1423 C.3       1 RES1    0.0000
      3 N2         5.3597    4.6936    6.3843 N.3       1 RES1    0.0000
      4 C2         4.4236    5.2133    5.3972 C.3       1 RES1    0.0000
      5 N3         4.8255    5.2198    3.9948 N.3       1 RES1    0.0000
      6 C3         6.2128    5.6589    3.8310 C.3       1 RES1    0.0000
      7 O1         7.5360    3.7791    4.4683 O.3       1 RES1    0.0000
      8 O2         9.6922    4.4416    4.5010 O.2       1 RES1    0.0000
      9 C4         8.8719    3.5790    4.4440 C.2       1 RES1    0.0000
     10 C5         9.1764    2.1149    4.3499 C.3       1 RES1    0.0000
     11 O3         5.3612    3.2335    6.1983 O.3       1 RES1    0.0000
     12 O4         5.8286    3.0555    8.3870 O.2       1 RES1    0.0000
     13 C6         5.5983    2.5462    7.3407 C.2       1 RES1    0.0000
     14 C7         5.5179    1.0822    7.0723 C.3       1 RES1    0.0000
     15 O5         4.7226    3.8362    3.5171 O.3       1 RES1    0.0000
     16 O6         4.1037    4.7430    1.5483 O.2       1 RES1    0.0000
     17 C8         4.3104    3.7726    2.2183 C.2       1 RES1    0.0000
     18 C9         4.1716    2.3436    1.8146 C.3       1 RES1    0.0000
     19 H1         7.3353    4.7287    6.6580 H         1 RES1    0.0000
     20 H2         3.5592    4.7547    5.4638 H         1 RES1    0.0000
     21 H3         6.4972    5.4562    2.9486 H         1 RES1    0.0000
     22 H4         6.6992    6.1577    6.3832 H         1 RES1    0.0000
     23 H5         4.2940    6.1967    5.6329 H         1 RES1    0.0000
     24 H6         6.1784    6.6124    3.9842 H         1 RES1    0.0000
@<TRIPOS>BOND
     1    1    2 1
     2    2    3 1
     3    3    4 1
     4    4    5 1
     5    5    6 1
     6    6    1 1
     7    7    1 1
     8    8    9 2
     9    9    7 1
    10   10    9 1
    11   11    3 1
    12   12   13 2
    13   13   11 1
    14   14   13 1
    15   15    5 1
    16   16   17 2
    17   17   15 1
    18   18   17 1
    19   19    2 1
    20   20    4 1
    21   21    6 1
    22   22    2 1
    23   23    4 1
    24   24    6 1
@<TRIPOS>SUBSTRUCTURE
     1 RES1 1

@<TRIPOS>CRYSIN
  18.4480   12.9910   10.8600  90.0000 103.3100  90.0000  15 1

