# MOL2 file generated by ConQuest
# Please check atom types

@<TRIPOS>MOLECULE
ADADUG
    44    48     1
SMALL
NO_CHARGES
****
Generated from CSD

@<TRIPOS>ATOM
      1 O1         0.6215    2.7806   10.6091 O.2       1 RES1    0.0000
      2 O2         2.1147    1.2527   10.9584 O.2       1 RES1    0.0000
      3 N1         3.0543    4.6835    3.2405 N.pl3     1 RES1    0.0000
      4 N2         1.7165    2.2735   10.3970 N.pl3     1 RES1    0.0000
      5 C1         5.1691    5.2445    3.8568 C.ar      1 RES1    0.0000
      6 C2         6.4349    5.7769    3.6258 C.ar      1 RES1    0.0000
      7 H1         7.0745    5.8185    4.3275 H         1 RES1    0.0000
      8 C3         6.7535    6.2492    2.3521 C.ar      1 RES1    0.0000
      9 H2         7.6218    6.5989    2.1896 H         1 RES1    0.0000
     10 C4         5.8330    6.2182    1.3232 C.ar      1 RES1    0.0000
     11 H3         6.0768    6.5530    0.4683 H         1 RES1    0.0000
     12 C5         4.5547    5.7046    1.5182 C.ar      1 RES1    0.0000
     13 H4         3.9149    5.6820    0.8160 H         1 RES1    0.0000
     14 C6         4.2596    5.2282    2.7814 C.ar      1 RES1    0.0000
     15 C7         1.8661    4.2495    2.7055 C.2       1 RES1    0.0000
     16 H5         1.5788    4.3467    1.8053 H         1 RES1    0.0000
     17 C8         1.1737    3.6467    3.7298 C.2       1 RES1    0.0000
     18 H6         0.3113    3.2532    3.6590 H         1 RES1    0.0000
     19 C9         1.9589    3.7100    4.9069 C.2       1 RES1    0.0000
     20 H7         1.7232    3.3660    5.7604 H         1 RES1    0.0000
     21 C10        3.1321    4.3645    4.5825 C.2       1 RES1    0.0000
     22 C11        4.4797    4.7045    5.0623 C.2       1 RES1    0.0000
     23 C12        4.1485    4.0218    7.4158 C.ar      1 RES1    0.0000
     24 C13        5.0008    4.4709    6.2940 C.2       1 RES1    0.0000
     25 C14        6.5051    4.4722    6.5394 C.3       1 RES1    0.0000
     26 H8         6.8056    5.4013    6.7034 H         1 RES1    0.0000
     27 H9         6.9660    4.1435    5.7270 H         1 RES1    0.0000
     28 C15        6.9078    3.5997    7.7293 C.3       1 RES1    0.0000
     29 H10        7.8434    3.2950    7.6173 H         1 RES1    0.0000
     30 H11        6.8546    4.1296    8.5636 H         1 RES1    0.0000
     31 C16        5.9824    2.3894    7.8301 C.3       1 RES1    0.0000
     32 H12        5.9817    1.8887    6.9757 H         1 RES1    0.0000
     33 H13        6.2925    1.7827    8.5485 H         1 RES1    0.0000
     34 C17        4.6011    2.8885    8.1363 C.ar      1 RES1    0.0000
     35 C18        3.8117    2.3184    9.1169 C.ar      1 RES1    0.0000
     36 H14        4.0962    1.5381    9.5777 H         1 RES1    0.0000
     37 C19        2.5998    2.9104    9.4098 C.ar      1 RES1    0.0000
     38 C20        2.1850    4.0867    8.8123 C.ar      1 RES1    0.0000
     39 H15        1.3734    4.4985    9.0857 H         1 RES1    0.0000
     40 C21        2.9586    4.6679    7.8090 C.ar      1 RES1    0.0000
     41 C22        2.4902    5.9821    7.2393 C.3       1 RES1    0.0000
     42 H16        2.2156    6.5753    7.9694 H         1 RES1    0.0000
     43 H17        1.7295    5.8265    6.6410 H         1 RES1    0.0000
     44 H18        3.2211    6.3996    6.7368 H         1 RES1    0.0000
@<TRIPOS>BOND
     1    1    4 2
     2    2    4 2
     3    3   14 1
     4    4   37 1
     5    5    6 ar
     6    6    7 1
     7    8    6 ar
     8    9    8 1
     9   10    8 ar
    10   11   10 1
    11   12   10 ar
    12   13   12 1
    13   14    5 ar
    14   15    3 1
    15   16   15 1
    16   17   15 2
    17   18   17 1
    18   19   17 1
    19   20   19 1
    20   21    3 1
    21   22    5 1
    22   23   24 1
    23   24   22 2
    24   25   24 1
    25   26   25 1
    26   27   25 1
    27   28   25 1
    28   29   28 1
    29   30   28 1
    30   31   28 1
    31   32   31 1
    32   33   31 1
    33   34   23 ar
    34   35   34 ar
    35   36   35 1
    36   37   35 ar
    37   38   37 ar
    38   39   38 1
    39   40   23 ar
    40   41   40 1
    41   42   41 1
    42   43   41 1
    43   44   41 1
    44   12   14 ar
    45   19   21 2
    46   21   22 1
    47   31   34 1
    48   38   40 ar
@<TRIPOS>SUBSTRUCTURE
     1 RES1 1

@<TRIPOS>CRYSIN
   8.1416    9.8400   11.8161  67.3370  77.4620  79.0750   2 1

