# MOL2 file generated by ConQuest
# Please check atom types

@<TRIPOS>MOLECULE
ADAFUI
    91    94     1
SMALL
NO_CHARGES
****
Generated from CSD

@<TRIPOS>ATOM
      1 O1        16.9393    8.4582    5.5140 O.2       1 RES1    0.0000
      2 O2        12.8015   11.3486    7.5308 O.3       1 RES1    0.0000
      3 O3        12.4495   13.2930    6.4693 O.2       1 RES1    0.0000
      4 O4         7.0604   12.3208    9.7980 O.3       1 RES1    0.0000
      5 O5         7.8591   13.3145   11.6603 O.2       1 RES1    0.0000
      6 O6         1.3548   12.9872   14.3191 O.2       1 RES1    0.0000
      7 O7         0.8982   11.4605   12.7245 O.3       1 RES1    0.0000
      8 O8        -3.3304    8.4356   14.3884 O.2       1 RES1    0.0000
      9 N1        15.9899    9.2222    5.9634 N.3       1 RES1    0.0000
     10 N2        -2.3788    9.2222   14.0271 N.3       1 RES1    0.0000
     11 C1        16.1565    9.7505    7.3318 C.3       1 RES1    0.0000
     12 C2        14.8320   10.2444    7.8552 C.3       1 RES1    0.0000
     13 C3        14.0816   11.1273    6.8850 C.3       1 RES1    0.0000
     14 C4        13.8322   10.3669    5.5960 C.3       1 RES1    0.0000
     15 C5        15.1347    9.8552    4.9300 C.3       1 RES1    0.0000
     16 C6        15.8906   10.9762    4.2290 C.3       1 RES1    0.0000
     17 C7        14.7242    8.7676    3.9451 C.3       1 RES1    0.0000
     18 C8        17.2329   10.8620    7.3452 C.3       1 RES1    0.0000
     19 C9        16.6356    8.5915    8.2211 C.3       1 RES1    0.0000
     20 C10       12.0666   12.4196    7.2174 C.2       1 RES1    0.0000
     21 C11       10.7657   12.3815    7.9197 C.ar      1 RES1    0.0000
     22 C12        9.9446   13.4965    7.8861 C.ar      1 RES1    0.0000
     23 C13        8.7210   13.5179    8.5454 C.ar      1 RES1    0.0000
     24 C14        8.3597   12.3613    9.2343 C.ar      1 RES1    0.0000
     25 C15        9.1410   11.2404    9.2855 C.ar      1 RES1    0.0000
     26 C16       10.3582   11.2618    8.6127 C.ar      1 RES1    0.0000
     27 C17        7.8401   14.7400    8.5373 C.3       1 RES1    0.0000
     28 C18        8.6591   10.0004   10.0147 C.3       1 RES1    0.0000
     29 C19        6.9620   12.8194   11.0710 C.2       1 RES1    0.0000
     30 C20        5.5457   12.6636   11.5782 C.ar      1 RES1    0.0000
     31 C21        4.5660   12.0138   10.8947 C.ar      1 RES1    0.0000
     32 C22        3.2831   11.8937   11.4504 C.ar      1 RES1    0.0000
     33 C23        3.0135   12.4625   12.6856 C.ar      1 RES1    0.0000
     34 C24        4.0171   13.1407   13.3516 C.ar      1 RES1    0.0000
     35 C25        5.3053   13.2276   12.8336 C.ar      1 RES1    0.0000
     36 C26        1.6767   12.3637   13.3395 C.2       1 RES1    0.0000
     37 C27       -0.4324   11.1761   13.2938 C.3       1 RES1    0.0000
     38 C28       -1.0776   10.2932   12.2644 C.3       1 RES1    0.0000
     39 C29       -2.4597    9.7577   12.6372 C.3       1 RES1    0.0000
     40 C30       -1.6078    9.8814   15.1250 C.3       1 RES1    0.0000
     41 C31       -0.3056   10.4133   14.5855 C.3       1 RES1    0.0000
     42 C32       -3.5642   10.8025   12.5403 C.3       1 RES1    0.0000
     43 C33       -2.7939    8.5784   11.7235 C.3       1 RES1    0.0000
     44 C34       -2.4788   10.9905   15.7547 C.3       1 RES1    0.0000
     45 C35       -1.3232    8.8390   16.1920 C.3       1 RES1    0.0000
     46 H1        13.4730   10.8358    4.9704 H         1 RES1    0.0000
     47 H2        13.3156    9.6458    5.8450 H         1 RES1    0.0000
     48 H3        14.5397   11.9448    6.7276 H         1 RES1    0.0000
     49 H4        14.9917   10.7418    8.6504 H         1 RES1    0.0000
     50 H5        14.2886    9.4923    8.0570 H         1 RES1    0.0000
     51 H6        16.0338   11.6914    4.8385 H         1 RES1    0.0000
     52 H7        15.3806   11.2892    3.4889 H         1 RES1    0.0000
     53 H8        16.7265   10.6490    3.9209 H         1 RES1    0.0000
     54 H9        14.3869    8.0168    4.4214 H         1 RES1    0.0000
     55 H10       14.0507    9.1032    3.3652 H         1 RES1    0.0000
     56 H11       15.4814    8.5046    3.4338 H         1 RES1    0.0000
     57 H12       17.2674   11.2594    8.2077 H         1 RES1    0.0000
     58 H13       17.0107   11.5236    6.7007 H         1 RES1    0.0000
     59 H14       -2.1133   11.2404   16.5957 H         1 RES1    0.0000
     60 H15       17.5855    8.5522    8.2037 H         1 RES1    0.0000
     61 H16       16.3429    8.7355    9.1132 H         1 RES1    0.0000
     62 H17       16.2774    7.7728    7.8969 H         1 RES1    0.0000
     63 H18       10.2237   14.2641    7.4004 H         1 RES1    0.0000
     64 H19       10.9173   10.4931    8.6302 H         1 RES1    0.0000
     65 H20        8.1093   15.3898    7.8632 H         1 RES1    0.0000
     66 H21        6.9426   14.4140    8.3880 H         1 RES1    0.0000
     67 H22        7.8075   15.0685    9.4644 H         1 RES1    0.0000
     68 H23        8.1774    9.4447    9.4119 H         1 RES1    0.0000
     69 H24        9.4075    9.5256   10.3578 H         1 RES1    0.0000
     70 H25        8.0902   10.2551   10.7319 H         1 RES1    0.0000
     71 H26        4.7523   11.6449   10.0389 H         1 RES1    0.0000
     72 H27        2.6017   11.4212   10.9835 H         1 RES1    0.0000
     73 H28        3.8226   13.5584   14.1832 H         1 RES1    0.0000
     74 H29        6.0026   13.6560   13.3180 H         1 RES1    0.0000
     75 H30       -0.9277   11.9758   13.4176 H         1 RES1    0.0000
     76 H31       -0.5047    9.5506   12.1137 H         1 RES1    0.0000
     77 H32       -1.1651   10.7941   11.4625 H         1 RES1    0.0000
     78 H33        0.0742   10.9929   15.2354 H         1 RES1    0.0000
     79 H34        0.2785    9.6779   14.4388 H         1 RES1    0.0000
     80 H35       -3.2017   11.6640   12.7125 H         1 RES1    0.0000
     81 H36       -3.9392   10.7870   11.6684 H         1 RES1    0.0000
     82 H37       -4.2380   10.6109   13.1821 H         1 RES1    0.0000
     83 H38       -3.0401    8.9021   10.8651 H         1 RES1    0.0000
     84 H39       -3.5158    8.0834   12.0949 H         1 RES1    0.0000
     85 H40       -2.0306    8.0168   11.6442 H         1 RES1    0.0000
     86 H41       -3.3649   10.6692   15.8772 H         1 RES1    0.0000
     87 H42       -2.4923   11.7461   15.1788 H         1 RES1    0.0000
     88 H43       -0.4856    8.4261   16.0117 H         1 RES1    0.0000
     89 H44       -1.2927    9.2567   17.0437 H         1 RES1    0.0000
     90 H45       -2.0067    8.1810   16.1853 H         1 RES1    0.0000
     91 H46       18.0774   10.4859    7.1340 H         1 RES1    0.0000
@<TRIPOS>BOND
     1    1    9 1
     2    2   13 1
     3    3   20 2
     4    4   24 1
     5    5   29 2
     6    6   36 2
     7    7   36 1
     8    8   10 1
     9    9   11 1
    10   10   39 1
    11   11   12 1
    12   12   13 1
    13   13   14 1
    14   14   15 1
    15   15    9 1
    16   16   15 1
    17   17   15 1
    18   18   11 1
    19   19   11 1
    20   20    2 1
    21   21   20 1
    22   22   21 ar
    23   23   22 ar
    24   24   23 ar
    25   25   24 ar
    26   26   21 ar
    27   27   23 1
    28   28   25 1
    29   29    4 1
    30   30   29 1
    31   31   30 ar
    32   32   31 ar
    33   33   32 ar
    34   34   33 ar
    35   35   30 ar
    36   36   33 1
    37   37    7 1
    38   38   37 1
    39   39   38 1
    40   40   10 1
    41   41   37 1
    42   42   39 1
    43   43   39 1
    44   44   40 1
    45   45   40 1
    46   46   14 1
    47   47   14 1
    48   48   13 1
    49   49   12 1
    50   50   12 1
    51   51   16 1
    52   52   16 1
    53   53   16 1
    54   54   17 1
    55   55   17 1
    56   56   17 1
    57   57   18 1
    58   58   18 1
    59   59   44 1
    60   60   19 1
    61   61   19 1
    62   62   19 1
    63   63   22 1
    64   64   26 1
    65   65   27 1
    66   66   27 1
    67   67   27 1
    68   68   28 1
    69   69   28 1
    70   70   28 1
    71   71   31 1
    72   72   32 1
    73   73   34 1
    74   74   35 1
    75   75   37 1
    76   76   38 1
    77   77   38 1
    78   78   41 1
    79   79   41 1
    80   80   42 1
    81   81   42 1
    82   82   42 1
    83   83   43 1
    84   84   43 1
    85   85   43 1
    86   86   44 1
    87   87   44 1
    88   88   45 1
    89   89   45 1
    90   90   45 1
    91   91   18 1
    92   25   26 ar
    93   34   35 ar
    94   40   41 1
@<TRIPOS>SUBSTRUCTURE
     1 RES1 1

@<TRIPOS>CRYSIN
  42.2120   11.8996   14.3610  90.0000 110.4580  90.0000  15 1

