# MOL2 file generated by ConQuest
# Please check atom types

@<TRIPOS>MOLECULE
ADAMIB
    62    65     1
SMALL
NO_CHARGES
****
Generated from CSD

@<TRIPOS>ATOM
      1 N1         8.6946    3.5692   23.6874 N.3       1 RES1    0.0000
      2 C1         7.5328    4.0423   24.4142 C.3       1 RES1    0.0000
      3 H1         6.7787    3.4033   24.3107 H         1 RES1    0.0000
      4 H2         7.7703    4.1422   25.4055 H         1 RES1    0.0000
      5 C2         7.2301    5.4414   23.7901 C.3       1 RES1    0.0000
      6 C3         8.6265    5.8776   23.2698 C.3       1 RES1    0.0000
      7 H3         8.8656    6.7595   23.6181 H         1 RES1    0.0000
      8 H4         8.5621    6.0600   22.3164 H         1 RES1    0.0000
      9 C4         9.5553    4.7458   23.6328 C.3       1 RES1    0.0000
     10 H5        10.0348    4.8731   24.5018 H         1 RES1    0.0000
     11 H6        10.2864    4.6924   22.9732 H         1 RES1    0.0000
     12 C5         6.7668    6.2746   24.9891 C.2       1 RES1    0.0000
     13 O1         7.4965    6.9356   25.6722 O.2       1 RES1    0.0000
     14 O2         5.4688    6.0553   25.2415 O.3       1 RES1    0.0000
     15 C6         4.9086    6.5819   26.4894 C.3       1 RES1    0.0000
     16 H7         5.6686    7.0503   26.9580 H         1 RES1    0.0000
     17 C7         3.8082    7.5494   26.1371 C.3       1 RES1    0.0000
     18 H8         4.2478    8.2686   25.6284 H         1 RES1    0.0000
     19 H9         3.1081    7.1289   25.5567 H         1 RES1    0.0000
     20 C8         3.0963    8.0407   27.4006 C.3       1 RES1    0.0000
     21 H10        2.3533    8.6066   27.0495 H         1 RES1    0.0000
     22 H11        3.7594    8.6380   27.8537 H         1 RES1    0.0000
     23 C9         2.5812    6.8853   28.2187 C.3       1 RES1    0.0000
     24 H12        2.2127    7.2625   29.0559 H         1 RES1    0.0000
     25 H13        1.9093    6.3508   27.7024 H         1 RES1    0.0000
     26 C10        3.7187    5.9334   28.5738 C.3       1 RES1    0.0000
     27 H14        4.3884    6.3980   29.1434 H         1 RES1    0.0000
     28 H15        3.5003    5.1247   29.1196 H         1 RES1    0.0000
     29 C11        4.4246    5.4021   27.3159 C.3       1 RES1    0.0000
     30 H16        3.7520    4.9046   26.8306 H         1 RES1    0.0000
     31 C12        5.5436    4.4338   27.6363 C.ar      1 RES1    0.0000
     32 C13        6.6395    4.8236   28.3831 C.ar      1 RES1    0.0000
     33 H17        6.6825    5.6827   28.6737 H         1 RES1    0.0000
     34 C14        7.6497    3.9417   28.6805 C.ar      1 RES1    0.0000
     35 H18        8.3475    4.2129   29.1912 H         1 RES1    0.0000
     36 C15        7.5912    2.6496   28.2215 C.ar      1 RES1    0.0000
     37 H19        8.2957    2.0907   28.4070 H         1 RES1    0.0000
     38 C16        6.5367    2.2456   27.4715 C.ar      1 RES1    0.0000
     39 H20        6.4827    1.4069   27.1132 H         1 RES1    0.0000
     40 C17        5.5006    3.1204   27.1901 C.ar      1 RES1    0.0000
     41 H21        4.8398    2.8689   26.6196 H         1 RES1    0.0000
     42 C18        6.2237    5.3628   22.6360 C.ar      1 RES1    0.0000
     43 C19        5.3956    6.3752   22.1639 C.ar      1 RES1    0.0000
     44 C20        4.5371    6.2007   21.0728 C.ar      1 RES1    0.0000
     45 H22        4.0332    6.8853   20.8037 H         1 RES1    0.0000
     46 C21        4.5356    4.9816   20.4060 C.ar      1 RES1    0.0000
     47 H23        3.9518    4.8496   19.7328 H         1 RES1    0.0000
     48 C22        5.3386    3.9598   20.8431 C.ar      1 RES1    0.0000
     49 C23        6.1356    4.1555   21.9402 C.ar      1 RES1    0.0000
     50 H24        6.7047    3.4898   22.2129 H         1 RES1    0.0000
     51 N2         5.4111    7.7216   22.7415 N.pl3     1 RES1    0.0000
     52 O3         6.4575    8.1523   23.1882 O.2       1 RES1    0.0000
     53 O4         4.3691    8.3621   22.7292 O.2       1 RES1    0.0000
     54 O5         5.4696    2.7038   20.2428 O.3       1 RES1    0.0000
     55 C24        4.8975    2.4751   19.0123 C.3       1 RES1    0.0000
     56 H25        5.0559    1.5657   18.7496 H         1 RES1    0.0000
     57 H26        5.2853    3.0677   18.3634 H         1 RES1    0.0000
     58 H27        3.9518    2.6331   19.0641 H         1 RES1    0.0000
     59 C25        9.3288    2.4256   24.3430 C.3       1 RES1    0.0000
     60 H28       10.1118    2.1678   23.8490 H         1 RES1    0.0000
     61 H29        8.7124    1.6907   24.3705 H         1 RES1    0.0000
     62 H30        9.5797    2.6684   25.2383 H         1 RES1    0.0000
@<TRIPOS>BOND
     1    1    2 1
     2    2    3 1
     3    4    2 1
     4    5    2 1
     5    6    5 1
     6    7    6 1
     7    8    6 1
     8    9    1 1
     9   10    9 1
    10   11    9 1
    11   12    5 1
    12   13   12 2
    13   14   12 1
    14   15   14 1
    15   16   15 1
    16   17   15 1
    17   18   17 1
    18   19   17 1
    19   20   17 1
    20   21   20 1
    21   22   20 1
    22   23   20 1
    23   24   23 1
    24   25   23 1
    25   26   23 1
    26   27   26 1
    27   28   26 1
    28   29   15 1
    29   30   29 1
    30   31   29 1
    31   32   31 ar
    32   33   32 1
    33   34   32 ar
    34   35   34 1
    35   36   34 ar
    36   37   36 1
    37   38   36 ar
    38   39   38 1
    39   40   31 ar
    40   41   40 1
    41   42    5 1
    42   43   42 ar
    43   44   43 ar
    44   45   44 1
    45   46   44 ar
    46   47   46 1
    47   48   46 ar
    48   49   42 ar
    49   50   49 1
    50   51   43 1
    51   52   51 2
    52   53   51 2
    53   54   48 1
    54   55   54 1
    55   56   55 1
    56   57   55 1
    57   58   55 1
    58   59    1 1
    59   60   59 1
    60   61   59 1
    61   62   59 1
    62    6    9 1
    63   26   29 1
    64   38   40 ar
    65   48   49 ar
@<TRIPOS>SUBSTRUCTURE
     1 RES1 1

@<TRIPOS>CRYSIN
   7.4003    7.8599   39.8080  90.0000  90.0000  90.0000  19 1

