# MOL2 file generated by ConQuest
# Please check atom types

@<TRIPOS>MOLECULE
ADAVIL
    38    39     1
SMALL
NO_CHARGES
****
Generated from CSD

@<TRIPOS>ATOM
      1 O1         4.4722   -1.4323    0.3151 O.2       1 RES1    0.0000
      2 O2         5.9197   -2.2925   -0.9744 O.2       1 RES1    0.0000
      3 O3        -0.5195    5.9180    5.7502 O.3       1 RES1    0.0000
      4 N1         5.6112   -1.7226    0.0580 N.pl3     1 RES1    0.0000
      5 N2         3.8829    2.7611    4.4637 N.2       1 RES1    0.0000
      6 C1         6.6827   -1.4317    1.0262 C.ar      1 RES1    0.0000
      7 C2         7.8251   -2.1984    0.9020 C.ar      1 RES1    0.0000
      8 H1         7.8872   -2.8343    0.2253 H         1 RES1    0.0000
      9 C3         8.8578   -2.0241    1.7675 C.ar      1 RES1    0.0000
     10 H2         9.6234   -2.5461    1.6941 H         1 RES1    0.0000
     11 C4         8.7647   -1.0712    2.7520 C.ar      1 RES1    0.0000
     12 H3         9.4714   -0.9389    3.3416 H         1 RES1    0.0000
     13 C5         7.6258   -0.3163    2.8627 C.ar      1 RES1    0.0000
     14 H4         7.5851    0.3219    3.5369 H         1 RES1    0.0000
     15 C6         6.5230   -0.4551    2.0169 C.ar      1 RES1    0.0000
     16 C7         5.3641    0.4214    2.1942 C.2       1 RES1    0.0000
     17 H5         4.7418    0.4409    1.5034 H         1 RES1    0.0000
     18 C8         5.1195    1.1825    3.2344 C.2       1 RES1    0.0000
     19 H6         5.7458    1.1630    3.9214 H         1 RES1    0.0000
     20 C9         3.9888    2.0409    3.4238 C.2       1 RES1    0.0000
     21 H7         3.3224    2.0707    2.7754 H         1 RES1    0.0000
     22 C10        2.7507    3.5793    4.6971 C.ar      1 RES1    0.0000
     23 C11        2.9191    4.6398    5.5567 C.ar      1 RES1    0.0000
     24 H8         3.7638    4.8102    5.9053 H         1 RES1    0.0000
     25 C12        1.8647    5.4591    5.9163 C.ar      1 RES1    0.0000
     26 H9         2.0079    6.1788    6.4865 H         1 RES1    0.0000
     27 C13        0.6038    5.2060    5.4280 C.ar      1 RES1    0.0000
     28 C14        0.4239    4.1517    4.5494 C.ar      1 RES1    0.0000
     29 H10       -0.4221    3.9793    4.2052 H         1 RES1    0.0000
     30 C15        1.4813    3.3599    4.1825 C.ar      1 RES1    0.0000
     31 H11        1.3455    2.6651    3.5804 H         1 RES1    0.0000
     32 C16       -0.4057    6.9587    6.7223 C.3       1 RES1    0.0000
     33 H12        0.1904    7.6524    6.3994 H         1 RES1    0.0000
     34 H13       -0.0447    6.6045    7.5499 H         1 RES1    0.0000
     35 C17       -1.7709    7.5214    6.9551 C.3       1 RES1    0.0000
     36 H14       -1.7187    8.2330    7.5964 H         1 RES1    0.0000
     37 H15       -2.3485    6.8311    7.2885 H         1 RES1    0.0000
     38 H16       -2.1221    7.8611    6.1291 H         1 RES1    0.0000
@<TRIPOS>BOND
     1    1    4 2
     2    2    4 2
     3    3   27 1
     4    4    6 1
     5    5   20 2
     6    6    7 ar
     7    7    8 1
     8    9    7 ar
     9   10    9 1
    10   11    9 ar
    11   12   11 1
    12   13   11 ar
    13   14   13 1
    14   15    6 ar
    15   16   15 1
    16   17   16 1
    17   18   16 2
    18   19   18 1
    19   20   18 1
    20   21   20 1
    21   22    5 1
    22   23   22 ar
    23   24   23 1
    24   25   23 ar
    25   26   25 1
    26   27   25 ar
    27   28   27 ar
    28   29   28 1
    29   30   22 ar
    30   31   30 1
    31   32    3 1
    32   33   32 1
    33   34   32 1
    34   35   32 1
    35   36   35 1
    36   37   35 1
    37   38   35 1
    38   13   15 ar
    39   28   30 ar
@<TRIPOS>SUBSTRUCTURE
     1 RES1 1

@<TRIPOS>CRYSIN
   7.1103    7.6318   15.4560  76.8030  81.7670  67.5530   2 1

