# MOL2 file generated by ConQuest
# Please check atom types

@<TRIPOS>MOLECULE
ADAXIN
    50    52     1
SMALL
NO_CHARGES
****
Generated from CSD

@<TRIPOS>ATOM
      1 O1         7.8943    9.1685    1.8276 O.2       1 RES1    0.0000
      2 O2         9.4859    8.9175    3.2219 O.2       1 RES1    0.0000
      3 O3         7.9968    6.8133    4.7824 O.2       1 RES1    0.0000
      4 O4        13.5560    4.4545    6.8676 O.2       1 RES1    0.0000
      5 O5        14.2254    1.3984    8.9505 O.2       1 RES1    0.0000
      6 O6        12.2630    2.1093    8.6986 O.2       1 RES1    0.0000
      7 N1         8.7891    8.5143    2.3252 N.pl3     1 RES1    0.0000
      8 N2        10.1756    6.1731    4.9234 N.am      1 RES1    0.0000
      9 H1        10.8518    5.8902    4.4732 H         1 RES1    0.0000
     10 N3        11.3560    4.1315    6.4586 N.am      1 RES1    0.0000
     11 H2        10.7761    3.6368    6.0603 H         1 RES1    0.0000
     12 N4        13.2373    1.6202    8.2601 N.pl3     1 RES1    0.0000
     13 C1         8.9804    7.1413    1.8369 C.ar      1 RES1    0.0000
     14 C2         9.0531    6.8872    0.4665 C.ar      1 RES1    0.0000
     15 C3         9.1775    5.5650    0.0902 C.ar      1 RES1    0.0000
     16 H3         9.2080    5.3563   -0.8158 H         1 RES1    0.0000
     17 C4         9.2574    4.5446    1.0118 C.ar      1 RES1    0.0000
     18 H4         9.3119    3.6624    0.7215 H         1 RES1    0.0000
     19 C5         9.2561    4.8232    2.3563 C.ar      1 RES1    0.0000
     20 H5         9.3481    4.1342    2.9752 H         1 RES1    0.0000
     21 C6         9.1167    6.1342    2.7907 C.ar      1 RES1    0.0000
     22 C7         9.0373    6.4252    4.2606 C.2       1 RES1    0.0000
     23 C8        10.3318    6.3454    6.3246 C.ar      1 RES1    0.0000
     24 C9         9.9298    7.5280    6.9476 C.ar      1 RES1    0.0000
     25 H6         9.5547    8.2152    6.4459 H         1 RES1    0.0000
     26 C10       10.0879    7.6746    8.3098 C.ar      1 RES1    0.0000
     27 H7         9.8204    8.4634    8.7234 H         1 RES1    0.0000
     28 C11       10.6415    6.6606    9.0655 C.ar      1 RES1    0.0000
     29 H8        10.7314    6.7600    9.9850 H         1 RES1    0.0000
     30 C12       11.0611    5.4983    8.4498 C.ar      1 RES1    0.0000
     31 H9        11.4419    4.8191    8.9577 H         1 RES1    0.0000
     32 C13       10.9197    5.3385    7.0824 C.ar      1 RES1    0.0000
     33 C14       12.6402    3.7425    6.4729 C.2       1 RES1    0.0000
     34 C15       12.9347    2.3635    5.9494 C.ar      1 RES1    0.0000
     35 C16       13.3072    1.3356    6.8181 C.ar      1 RES1    0.0000
     36 C17       13.7187    0.0820    6.3847 C.ar      1 RES1    0.0000
     37 C18       13.7706   -0.1084    5.0122 C.ar      1 RES1    0.0000
     38 H10       14.0528   -0.9296    4.6795 H         1 RES1    0.0000
     39 C19       13.4134    0.8862    4.1290 C.ar      1 RES1    0.0000
     40 H11       13.4577    0.7271    3.2136 H         1 RES1    0.0000
     41 C20       12.9893    2.1203    4.5903 C.ar      1 RES1    0.0000
     42 H12       12.7409    2.7831    3.9870 H         1 RES1    0.0000
     43 C21        9.0768    7.9996   -0.5650 C.3       1 RES1    0.0000
     44 H13        9.1399    7.6194   -1.4441 H         1 RES1    0.0000
     45 H14        9.8358    8.5676   -0.4064 H         1 RES1    0.0000
     46 H15        8.2710    8.5171   -0.4966 H         1 RES1    0.0000
     47 C22       14.0625   -1.0419    7.3302 C.3       1 RES1    0.0000
     48 H16       13.9781   -0.7356    8.2352 H         1 RES1    0.0000
     49 H17       14.9652   -1.3275    7.1716 H         1 RES1    0.0000
     50 H18       13.4630   -1.7768    7.1840 H         1 RES1    0.0000
@<TRIPOS>BOND
     1    1    7 2
     2    2    7 2
     3    3   22 2
     4    4   33 2
     5    5   12 2
     6    6   12 2
     7    7   13 1
     8    8    9 1
     9   10   11 1
    10   12   35 1
    11   13   14 ar
    12   14   15 ar
    13   15   16 1
    14   17   15 ar
    15   18   17 1
    16   19   17 ar
    17   20   19 1
    18   21   13 ar
    19   22    8 1
    20   23    8 1
    21   24   23 ar
    22   25   24 1
    23   26   24 ar
    24   27   26 1
    25   28   26 ar
    26   29   28 1
    27   30   28 ar
    28   31   30 1
    29   32   10 1
    30   33   10 1
    31   34   33 1
    32   35   34 ar
    33   36   35 ar
    34   37   36 ar
    35   38   37 1
    36   39   37 ar
    37   40   39 1
    38   41   34 ar
    39   42   41 1
    40   43   14 1
    41   44   43 1
    42   45   43 1
    43   46   43 1
    44   47   36 1
    45   48   47 1
    46   49   47 1
    47   50   47 1
    48   19   21 ar
    49   21   22 1
    50   23   32 ar
    51   30   32 ar
    52   39   41 ar
@<TRIPOS>SUBSTRUCTURE
     1 RES1 1

@<TRIPOS>CRYSIN
   9.6070   10.5420   11.4080  86.3010  65.3940  77.0290   2 1

