# MOL2 file generated by ConQuest
# Please check atom types

@<TRIPOS>MOLECULE
ADEQIK
    64    69     1
SMALL
NO_CHARGES
****
Generated from CSD

@<TRIPOS>ATOM
      1 O1        -0.7537    1.7501   11.0883 O.2       1 RES1    0.0000
      2 O2         1.2216    2.4840   11.2899 O.2       1 RES1    0.0000
      3 O3         4.4681    1.9042    7.4660 O.2       1 RES1    0.0000
      4 N1         0.3505    1.9359   10.6599 N.pl3     1 RES1    0.0000
      5 C1         3.9648   -0.4490    8.8501 C.ar      1 RES1    0.0000
      6 H1         4.7864   -0.3599    8.4243 H         1 RES1    0.0000
      7 C2         3.7020   -1.5669    9.5771 C.ar      1 RES1    0.0000
      8 H2         4.3373   -2.2433    9.6319 H         1 RES1    0.0000
      9 C3         2.4945   -1.7035   10.2364 C.ar      1 RES1    0.0000
     10 H3         2.3268   -2.4632   10.7473 H         1 RES1    0.0000
     11 C4         1.5373   -0.7089   10.1357 C.ar      1 RES1    0.0000
     12 H4         0.7257   -0.8013   10.5795 H         1 RES1    0.0000
     13 C5         1.7845    0.4257    9.3750 C.ar      1 RES1    0.0000
     14 C6         0.2224    3.7843    8.3940 C.ar      1 RES1    0.0000
     15 H5        -0.6061    3.7202    8.8108 H         1 RES1    0.0000
     16 C7         0.5437    4.9297    7.7095 C.ar      1 RES1    0.0000
     17 H6        -0.0589    5.6369    7.6802 H         1 RES1    0.0000
     18 C8         1.7544    5.0322    7.0679 C.ar      1 RES1    0.0000
     19 H7         1.9663    5.8018    6.5909 H         1 RES1    0.0000
     20 C9         2.6441    4.0026    7.1331 C.ar      1 RES1    0.0000
     21 H8         3.4615    4.0750    6.6968 H         1 RES1    0.0000
     22 C10        2.3464    2.8364    7.8472 C.ar      1 RES1    0.0000
     23 C11        3.3584    1.7710    7.9646 C.2       1 RES1    0.0000
     24 C12        3.0185    0.5639    8.7364 C.ar      1 RES1    0.0000
     25 C13        0.6936    1.4636    9.2116 C.3       1 RES1    0.0000
     26 C14        1.1081    2.7214    8.4764 C.ar      1 RES1    0.0000
     27 C15       -0.5640    0.8438    8.5847 C.3       1 RES1    0.0000
     28 H9        -0.8721    0.1141    9.1450 H         1 RES1    0.0000
     29 H10       -1.2660    1.5119    8.5536 H         1 RES1    0.0000
     30 C16       -0.3096    0.3190    7.1778 C.3       1 RES1    0.0000
     31 H11       -0.0202    1.0521    6.6115 H         1 RES1    0.0000
     32 H12        0.4039   -0.3365    7.2057 H         1 RES1    0.0000
     33 O1B       -1.1128   -1.7501    2.6657 O.2       1 RES1    0.0000
     34 O2B       -3.0880   -2.4840    2.4640 O.2       1 RES1    0.0000
     35 O3B       -6.3345   -1.9042    6.2879 O.2       1 RES1    0.0000
     36 N1B       -2.2170   -1.9359    3.0941 N.pl3     1 RES1    0.0000
     37 C1B       -5.8312    0.4490    4.9038 C.ar      1 RES1    0.0000
     38 H1B       -6.6528    0.3599    5.3297 H         1 RES1    0.0000
     39 C2B       -5.5685    1.5669    4.1768 C.ar      1 RES1    0.0000
     40 H2B       -6.2038    2.2433    4.1221 H         1 RES1    0.0000
     41 C3B       -4.3610    1.7035    3.5176 C.ar      1 RES1    0.0000
     42 H3B       -4.1932    2.4632    3.0066 H         1 RES1    0.0000
     43 C4B       -3.4037    0.7089    3.6182 C.ar      1 RES1    0.0000
     44 H4B       -2.5921    0.8013    3.1744 H         1 RES1    0.0000
     45 C5B       -3.6509   -0.4257    4.3790 C.ar      1 RES1    0.0000
     46 C6B       -2.0889   -3.7843    5.3599 C.ar      1 RES1    0.0000
     47 H5B       -1.2604   -3.7202    4.9432 H         1 RES1    0.0000
     48 C7B       -2.4101   -4.9297    6.0444 C.ar      1 RES1    0.0000
     49 H6B       -1.8076   -5.6369    6.0737 H         1 RES1    0.0000
     50 C8B       -3.6209   -5.0322    6.6861 C.ar      1 RES1    0.0000
     51 H7B       -3.8327   -5.8018    7.1631 H         1 RES1    0.0000
     52 C9B       -4.5105   -4.0026    6.6209 C.ar      1 RES1    0.0000
     53 H8B       -5.3279   -4.0750    7.0571 H         1 RES1    0.0000
     54 C10B      -4.2129   -2.8364    5.9068 C.ar      1 RES1    0.0000
     55 C11B      -5.2249   -1.7710    5.7893 C.2       1 RES1    0.0000
     56 C12B      -4.8849   -0.5639    5.0176 C.ar      1 RES1    0.0000
     57 C13B      -2.5600   -1.4636    4.5424 C.3       1 RES1    0.0000
     58 C14B      -2.9745   -2.7214    5.2775 C.ar      1 RES1    0.0000
     59 C15B      -1.3025   -0.8438    5.1693 C.3       1 RES1    0.0000
     60 H9B       -0.9943   -0.1141    4.6089 H         1 RES1    0.0000
     61 H10B      -0.6005   -1.5119    5.2004 H         1 RES1    0.0000
     62 C16B      -1.5569   -0.3190    6.5762 C.3       1 RES1    0.0000
     63 H11B      -1.8462   -1.0521    7.1424 H         1 RES1    0.0000
     64 H12B      -2.2703    0.3365    6.5482 H         1 RES1    0.0000
@<TRIPOS>BOND
     1    1    4 2
     2    2    4 2
     3    3   23 2
     4    4   25 1
     5    5    6 1
     6    7    5 ar
     7    8    7 1
     8    9    7 ar
     9   10    9 1
    10   11    9 ar
    11   12   11 1
    12   13   11 ar
    13   14   15 1
    14   16   14 ar
    15   17   16 1
    16   18   16 ar
    17   19   18 1
    18   20   18 ar
    19   21   20 1
    20   22   20 ar
    21   23   22 1
    22   24    5 ar
    23   25   13 1
    24   26   14 ar
    25   27   25 1
    26   28   27 1
    27   29   27 1
    28   30   27 1
    29   31   30 1
    30   32   30 1
    31   33   36 2
    32   34   36 2
    33   35   55 2
    34   36   57 1
    35   37   38 1
    36   39   37 ar
    37   40   39 1
    38   41   39 ar
    39   42   41 1
    40   43   41 ar
    41   44   43 1
    42   45   43 ar
    43   46   47 1
    44   48   46 ar
    45   49   48 1
    46   50   48 ar
    47   51   50 1
    48   52   50 ar
    49   53   52 1
    50   54   52 ar
    51   55   54 1
    52   56   37 ar
    53   57   45 1
    54   58   46 ar
    55   59   57 1
    56   60   59 1
    57   61   59 1
    58   62   30 1
    59   63   62 1
    60   64   62 1
    61   13   24 ar
    62   22   26 ar
    63   23   24 1
    64   25   26 1
    65   45   56 ar
    66   54   58 ar
    67   55   56 1
    68   57   58 1
    69   59   62 1
@<TRIPOS>SUBSTRUCTURE
     1 RES1 1

@<TRIPOS>CRYSIN
  11.3160    8.3300   13.8800  90.0000  97.7280  90.0000  14 1

