# MOL2 file generated by ConQuest
# Please check atom types

@<TRIPOS>MOLECULE
ADEWEM
    36    37     1
SMALL
NO_CHARGES
****
Generated from CSD

@<TRIPOS>ATOM
      1 N1         8.9362   11.5298    4.9921 N.pl3     1 RES1    0.0000
      2 N2         4.6747   10.2497    3.1343 N.pl3     1 RES1    0.0000
      3 N3         8.0781    6.8081    4.5554 N.pl3     1 RES1    0.0000
      4 N4         5.6733    6.1350    3.7120 N.2       1 RES1    0.0000
      5 C1         4.8135    5.2893    3.2434 C.2       1 RES1    0.0000
      6 O1        10.0400   11.2044    5.4146 O.2       1 RES1    0.0000
      7 O2         8.5529   12.6847    4.8973 O.2       1 RES1    0.0000
      8 O3         4.4897   11.4368    2.9784 O.2       1 RES1    0.0000
      9 O4         3.8173    9.4060    2.8530 O.2       1 RES1    0.0000
     10 O5         8.0534    6.3473    5.6433 O.2       1 RES1    0.0000
     11 O6         8.5168    6.2531    3.5950 O.2       1 RES1    0.0000
     12 C2         6.2621    8.4208    3.8225 C.ar      1 RES1    0.0000
     13 C3         5.9530    9.8005    3.6695 C.ar      1 RES1    0.0000
     14 C4         6.8203   10.8044    4.0455 C.ar      1 RES1    0.0000
     15 H1         6.5859   11.6963    3.9297 H         1 RES1    0.0000
     16 C5         8.0262   10.4727    4.5885 C.ar      1 RES1    0.0000
     17 C6         8.4063    9.1583    4.7569 C.ar      1 RES1    0.0000
     18 H2         9.2333    8.9485    5.1263 H         1 RES1    0.0000
     19 C7         7.5490    8.1750    4.3720 C.ar      1 RES1    0.0000
     20 N5         5.3996    7.4566    3.4654 N.pl3     1 RES1    0.0000
     21 H3         4.6638    7.6701    3.0760 H         1 RES1    0.0000
     22 C8         5.1010    3.8714    3.5022 C.ar      1 RES1    0.0000
     23 C9         6.3216    3.4787    4.0664 C.ar      1 RES1    0.0000
     24 H4         6.9592    4.1231    4.2757 H         1 RES1    0.0000
     25 C10        6.5872    2.1621    4.3140 C.ar      1 RES1    0.0000
     26 H5         7.4044    1.9182    4.6870 H         1 RES1    0.0000
     27 C11        5.6564    1.1946    4.0167 C.ar      1 RES1    0.0000
     28 H6         5.8356    0.3005    4.2011 H         1 RES1    0.0000
     29 C12        4.4739    1.5536    3.4500 C.ar      1 RES1    0.0000
     30 H7         3.8455    0.9003    3.2407 H         1 RES1    0.0000
     31 C13        4.2001    2.8712    3.1858 C.ar      1 RES1    0.0000
     32 H8         3.3909    3.0969    2.7869 H         1 RES1    0.0000
     33 C14        3.6020    5.7059    2.4647 C.3       1 RES1    0.0000
     34 H9         3.0300    6.2380    3.0231 H         1 RES1    0.0000
     35 H10        3.1270    4.9251    2.1705 H         1 RES1    0.0000
     36 H11        3.8734    6.2214    1.7022 H         1 RES1    0.0000
@<TRIPOS>BOND
     1    1    6 2
     2    2    8 2
     3    3   10 2
     4    4    5 2
     5    5   22 1
     6    7    1 2
     7    9    2 2
     8   11    3 2
     9   12   13 ar
    10   13    2 1
    11   14   13 ar
    12   15   14 1
    13   16    1 1
    14   17   16 ar
    15   18   17 1
    16   19    3 1
    17   20    4 1
    18   21   20 1
    19   22   23 ar
    20   23   24 1
    21   25   23 ar
    22   26   25 1
    23   27   25 ar
    24   28   27 1
    25   29   27 ar
    26   30   29 1
    27   31   22 ar
    28   32   31 1
    29   33    5 1
    30   34   33 1
    31   35   33 1
    32   36   33 1
    33   12   19 ar
    34   12   20 1
    35   14   16 ar
    36   17   19 ar
    37   29   31 ar
@<TRIPOS>SUBSTRUCTURE
     1 RES1 1

@<TRIPOS>CRYSIN
  10.3180   13.8500   10.3850  90.0000  93.9520  90.0000 231 1

