# MOL2 file generated by ConQuest
# Please check atom types

@<TRIPOS>MOLECULE
ADEZUF
    15    14     1
SMALL
NO_CHARGES
****
Generated from CSD

@<TRIPOS>ATOM
      1 O1         9.1698    4.7301    4.0257 O.2       1 RES1    0.0000
      2 O2         7.6739    3.5201    4.9655 O.2       1 RES1    0.0000
      3 O3         6.5126    6.6672    5.1094 O.3       1 RES1    0.0000
      4 H1         6.0126    6.3663    5.7254 H         1 RES1    0.0000
      5 O4        10.2494    4.2655    7.0316 O.3       1 RES1    0.0000
      6 H2         9.7628    3.8564    7.7021 H         1 RES1    0.0000
      7 N1         8.4053    4.4905    4.9356 N.pl3     1 RES1    0.0000
      8 C1         7.8361    6.7709    5.5806 C.3       1 RES1    0.0000
      9 H3         7.8712    7.4233    6.2971 H         1 RES1    0.0000
     10 H4         8.4074    7.0851    4.8624 H         1 RES1    0.0000
     11 C2         8.3578    5.4432    6.0884 C.3       1 RES1    0.0000
     12 H5         7.7410    5.0955    6.7657 H         1 RES1    0.0000
     13 C3         9.7452    5.5343    6.6848 C.3       1 RES1    0.0000
     14 H6        10.3413    5.9522    6.0441 H         1 RES1    0.0000
     15 H7         9.7163    6.0950    7.4763 H         1 RES1    0.0000
@<TRIPOS>BOND
     1    1    7 2
     2    2    7 2
     3    3    4 1
     4    5    6 1
     5    7   11 1
     6    8    3 1
     7    9    8 1
     8   10    8 1
     9   11    8 1
    10   12   11 1
    11   13    5 1
    12   14   13 1
    13   15   13 1
    14   11   13 1
@<TRIPOS>SUBSTRUCTURE
     1 RES1 1

@<TRIPOS>CRYSIN
  10.3310    6.3220    8.5200  90.0000  90.0000  90.0000  33 1

