# MOL2 file generated by ConQuest
# Please check atom types

@<TRIPOS>MOLECULE
ADICUM
    48    51     1
SMALL
USER_CHARGES
****
Generated from CSD

@<TRIPOS>ATOM
      1 O1         1.0730    5.3193   -3.0664 O.3       1 RES1    0.0000
      2 O2        -0.4276    3.2410   -2.7260 O.3       1 RES1    0.0000
      3 O3         7.3300    0.5225    2.0478 O.2       1 RES1   -1.0000
      4 O4         7.1960    1.0181    4.2757 O.3       1 RES1    0.0000
      5 N1         3.8016    1.6473    1.4634 N.3       1 RES1    0.0000
      6 N2         6.5839    0.7228    3.0205 N.pl3     1 RES1    1.0000
      7 N3         6.1805    1.1992    5.1971 N.2       1 RES1    0.0000
      8 C1         2.0112    6.2638   -3.5462 C.3       1 RES1    0.0000
      9 H1         1.5919    6.8255   -4.2037 H         1 RES1    0.0000
     10 H2         2.7534    5.8039   -3.9460 H         1 RES1    0.0000
     11 H3         2.3233    6.8035   -2.8171 H         1 RES1    0.0000
     12 C2        -1.2350    2.0817   -2.6437 C.3       1 RES1    0.0000
     13 H4        -1.9826    2.1698   -3.2381 H         1 RES1    0.0000
     14 H5        -1.5517    1.9757   -1.7447 H         1 RES1    0.0000
     15 H6        -0.7168    1.3128   -2.8925 H         1 RES1    0.0000
     16 C3         0.6965    3.2816   -1.9512 C.ar      1 RES1    0.0000
     17 C4         1.0860    2.3192   -1.0546 C.ar      1 RES1    0.0000
     18 H7         0.5555    1.5640   -0.9404 H         1 RES1    0.0000
     19 C5         2.2598    2.4473   -0.3110 C.ar      1 RES1    0.0000
     20 C6         2.6810    1.3107    0.5915 C.3       1 RES1    0.0000
     21 H8         1.9251    1.0484    1.1394 H         1 RES1    0.0000
     22 H9         2.9267    0.5493    0.0440 H         1 RES1    0.0000
     23 C7         4.8403    2.3674    0.7276 C.3       1 RES1    0.0000
     24 H10        5.0977    1.8594   -0.0566 H         1 RES1    0.0000
     25 H11        5.6235    2.4776    1.2881 H         1 RES1    0.0000
     26 C8         4.3158    3.7249    0.3098 C.3       1 RES1    0.0000
     27 H12        4.1519    4.2660    1.0975 H         1 RES1    0.0000
     28 H13        4.9804    4.1765   -0.2325 H         1 RES1    0.0000
     29 C9         3.0407    3.5776   -0.4738 C.ar      1 RES1    0.0000
     30 C10        2.6456    4.5558   -1.3891 C.ar      1 RES1    0.0000
     31 H14        3.1708    5.3151   -1.4976 H         1 RES1    0.0000
     32 C11        1.5044    4.4195   -2.1272 C.ar      1 RES1    0.0000
     33 C12        4.3436    0.4261    2.0727 C.3       1 RES1    0.0000
     34 H15        4.8161   -0.0867    1.3970 H         1 RES1    0.0000
     35 H16        3.6125   -0.1184    2.4045 H         1 RES1    0.0000
     36 C13        5.2735    0.7387    3.1929 C.2       1 RES1    0.0000
     37 C14        5.0483    1.0285    4.5553 C.2       1 RES1    0.0000
     38 C15        3.7738    1.1097    5.2704 C.ar      1 RES1    0.0000
     39 C16        3.7268    0.7965    6.6276 C.ar      1 RES1    0.0000
     40 H17        4.5085    0.5741    7.0794 H         1 RES1    0.0000
     41 C17        2.5321    0.8158    7.2994 C.ar      1 RES1    0.0000
     42 H18        2.5081    0.5996    8.2042 H         1 RES1    0.0000
     43 C18        1.3738    1.1517    6.6471 C.ar      1 RES1    0.0000
     44 H19        0.5651    1.1510    7.1067 H         1 RES1    0.0000
     45 C19        1.4053    1.4883    5.3182 C.ar      1 RES1    0.0000
     46 H20        0.6211    1.7306    4.8802 H         1 RES1    0.0000
     47 C20        2.6048    1.4670    4.6301 C.ar      1 RES1    0.0000
     48 H21        2.6239    1.6962    3.7282 H         1 RES1    0.0000
@<TRIPOS>BOND
     1    1    8 1
     2    2   12 1
     3    3    6 1
     4    4    6 1
     5    5   20 1
     6    6   36 2
     7    7    4 1
     8    8    9 1
     9   10    8 1
    10   11    8 1
    11   12   13 1
    12   14   12 1
    13   15   12 1
    14   16    2 1
    15   17   16 ar
    16   18   17 1
    17   19   17 ar
    18   20   19 1
    19   21   20 1
    20   22   20 1
    21   23    5 1
    22   24   23 1
    23   25   23 1
    24   26   23 1
    25   27   26 1
    26   28   26 1
    27   29   19 ar
    28   30   29 ar
    29   31   30 1
    30   32    1 1
    31   33    5 1
    32   34   33 1
    33   35   33 1
    34   36   33 1
    35   37    7 2
    36   38   37 1
    37   39   38 ar
    38   40   39 1
    39   41   39 ar
    40   42   41 1
    41   43   41 ar
    42   44   43 1
    43   45   43 ar
    44   46   45 1
    45   47   38 ar
    46   48   47 1
    47   16   32 ar
    48   26   29 1
    49   30   32 ar
    50   36   37 1
    51   45   47 ar
@<TRIPOS>SUBSTRUCTURE
     1 RES1 1

@<TRIPOS>CRYSIN
  12.8500    6.8840   21.7230  90.0000 105.3800  90.0000  14 1

