# MOL2 file generated by ConQuest
# Please check atom types

@<TRIPOS>MOLECULE
ADIDUN
    35    37     1
SMALL
NO_CHARGES
****
Generated from CSD

@<TRIPOS>ATOM
      1 O1         0.6391    4.7446    5.1510 O.2       1 RES1    0.0000
      2 O2         1.0573    7.4614    7.4670 O.2       1 RES1    0.0000
      3 O3         2.6458    8.9118    7.5941 O.2       1 RES1    0.0000
      4 N1         1.2226    4.3691    7.3059 N.am      1 RES1    0.0000
      5 N2         1.6409    3.9074    9.4669 N.2       1 RES1    0.0000
      6 N3         2.1803    7.8551    7.1896 N.pl3     1 RES1    0.0000
      7 N4         4.6122    6.3131    5.0196 N.2       1 RES1    0.0000
      8 N5         3.6112    5.3995    5.0878 N.3       1 RES1    0.0000
      9 C1         1.3876    4.9442    6.0656 C.2       1 RES1    0.0000
     10 C2         2.0137    4.5796    8.4371 C.2       1 RES1    0.0000
     11 C3         0.5211    3.1796    9.0379 C.ar      1 RES1    0.0000
     12 C4        -0.2647    2.2937    9.7598 C.ar      1 RES1    0.0000
     13 C5        -1.3322    1.7164    9.1154 C.ar      1 RES1    0.0000
     14 C6        -1.6117    2.0060    7.7979 C.ar      1 RES1    0.0000
     15 C7        -0.8377    2.8763    7.0481 C.ar      1 RES1    0.0000
     16 C8         0.2333    3.4542    7.7052 C.ar      1 RES1    0.0000
     17 C9         2.6119    5.7919    5.8874 C.2       1 RES1    0.0000
     18 C10        2.9876    7.0307    6.3511 C.2       1 RES1    0.0000
     19 C11        4.2426    7.3252    5.7876 C.2       1 RES1    0.0000
     20 C12        5.1074    8.5288    5.9544 C.3       1 RES1    0.0000
     21 C13        6.1714    8.6705    4.9305 C.3       1 RES1    0.0000
     22 C14        3.7749    4.1373    4.3847 C.3       1 RES1    0.0000
     23 H1         2.7449    5.1545    8.4446 H         1 RES1    0.0000
     24 H2        -0.0757    2.0974   10.6493 H         1 RES1    0.0000
     25 H3        -1.8762    1.1195    9.5767 H         1 RES1    0.0000
     26 H4        -2.3469    1.6022    7.3975 H         1 RES1    0.0000
     27 H5        -1.0272    3.0610    6.1564 H         1 RES1    0.0000
     28 H6         4.5421    9.3153    5.9146 H         1 RES1    0.0000
     29 H7         5.5310    8.4784    6.8255 H         1 RES1    0.0000
     30 H8         6.7843    7.9352    5.0020 H         1 RES1    0.0000
     31 H9         5.7756    8.6729    4.0554 H         1 RES1    0.0000
     32 H10        6.6426    9.4948    5.0718 H         1 RES1    0.0000
     33 H11        2.9810    3.6074    4.4896 H         1 RES1    0.0000
     34 H12        4.5255    3.6633    4.7484 H         1 RES1    0.0000
     35 H13        3.9257    4.3081    3.4527 H         1 RES1    0.0000
@<TRIPOS>BOND
     1    1    9 2
     2    2    6 2
     3    3    6 2
     4    4    9 1
     5    5   10 2
     6    6   18 1
     7    7    8 1
     8    8   17 1
     9    9   17 1
    10   10    4 1
    11   11    5 1
    12   12   11 ar
    13   13   12 ar
    14   14   13 ar
    15   15   14 ar
    16   16    4 1
    17   17   18 2
    18   18   19 1
    19   19    7 2
    20   20   19 1
    21   21   20 1
    22   22    8 1
    23   23   10 1
    24   24   12 1
    25   25   13 1
    26   26   14 1
    27   27   15 1
    28   28   20 1
    29   29   20 1
    30   30   21 1
    31   31   21 1
    32   32   21 1
    33   33   22 1
    34   34   22 1
    35   35   22 1
    36   11   16 ar
    37   15   16 ar
@<TRIPOS>SUBSTRUCTURE
     1 RES1 1

@<TRIPOS>CRYSIN
  10.4420    7.8730   17.3800  90.0000 101.5950  90.0000 231 1

