# MOL2 file generated by ConQuest
# Please check atom types

@<TRIPOS>MOLECULE
ADIFEA
    49    52     1
SMALL
NO_CHARGES
****
Generated from CSD

@<TRIPOS>ATOM
      1 O1         1.2249    8.9943   -2.0801 O.2       1 RES1    0.0000
      2 O2         2.2311    7.2175   -1.4038 O.2       1 RES1    0.0000
      3 O3         3.7118    4.2083    2.0564 O.2       1 RES1    0.0000
      4 O4         4.4915    6.2814    1.7125 O.3       1 RES1    0.0000
      5 N1         1.9197    8.3920   -1.2810 N.pl3     1 RES1    0.0000
      6 N2         0.3940    7.1987    1.1934 N.2       1 RES1    0.0000
      7 N3        -0.0158    5.9646    1.4171 N.2       1 RES1    0.0000
      8 N4         1.0564    5.2150    1.6840 N.3       1 RES1    0.0000
      9 C1         2.4481    8.5248    1.1310 C.ar      1 RES1    0.0000
     10 C2         2.4397    9.1299   -0.1230 C.ar      1 RES1    0.0000
     11 C3         2.9549   10.3859   -0.3781 C.ar      1 RES1    0.0000
     12 C4         3.5504   11.0692    0.6599 C.ar      1 RES1    0.0000
     13 C5         3.5873   10.5021    1.9220 C.ar      1 RES1    0.0000
     14 C6         3.0307    9.2457    2.1893 C.ar      1 RES1    0.0000
     15 C7         3.0418    8.7517    3.5900 C.ar      1 RES1    0.0000
     16 C8         4.2189    8.7970    4.3307 C.ar      1 RES1    0.0000
     17 C9         4.2356    8.4177    5.6598 C.ar      1 RES1    0.0000
     18 C10        3.0711    7.9900    6.2750 C.ar      1 RES1    0.0000
     19 C11        1.8923    7.9464    5.5554 C.ar      1 RES1    0.0000
     20 C12        1.8761    8.3231    4.2201 C.ar      1 RES1    0.0000
     21 C13        1.7466    7.2351    1.3339 C.2       1 RES1    0.0000
     22 C14        2.1902    5.9698    1.6437 C.2       1 RES1    0.0000
     23 C15        3.5235    5.3736    1.8346 C.2       1 RES1    0.0000
     24 C16        5.8369    5.7626    1.8968 C.3       1 RES1    0.0000
     25 C17        0.8486    3.8110    2.0560 C.3       1 RES1    0.0000
     26 C18        0.9929    3.5743    3.5421 C.ar      1 RES1    0.0000
     27 C19        0.9109    4.6052    4.4679 C.ar      1 RES1    0.0000
     28 C20        0.9903    4.3386    5.8262 C.ar      1 RES1    0.0000
     29 C21        1.1484    3.0399    6.2724 C.ar      1 RES1    0.0000
     30 C22        1.2437    2.0043    5.3548 C.ar      1 RES1    0.0000
     31 C23        1.1615    2.2698    3.9983 C.ar      1 RES1    0.0000
     32 H1         2.9259   10.7484   -1.2676 H         1 RES1    0.0000
     33 H2         3.9287   11.9162    0.5408 H         1 RES1    0.0000
     34 H3         3.9733   11.0121    2.6469 H         1 RES1    0.0000
     35 H4         5.0454    9.0914    3.8904 H         1 RES1    0.0000
     36 H5         5.0530    8.4431    6.1432 H         1 RES1    0.0000
     37 H6         3.0712    7.7176    7.1963 H         1 RES1    0.0000
     38 H7         1.0630    7.6786    5.9834 H         1 RES1    0.0000
     39 H8         1.0653    8.3347    3.7393 H         1 RES1    0.0000
     40 H9         5.9590    5.4875    2.8439 H         1 RES1    0.0000
     41 H10        6.4382    6.4737    1.6704 H         1 RES1    0.0000
     42 H11        5.9590    4.9895    1.3552 H         1 RES1    0.0000
     43 H12       -0.0442    3.6157    1.7777 H         1 RES1    0.0000
     44 H13        1.4889    3.2398    1.5391 H         1 RES1    0.0000
     45 H14        0.7990    5.5285    4.1706 H         1 RES1    0.0000
     46 H15        0.9118    5.0696    6.4431 H         1 RES1    0.0000
     47 H16        1.1854    2.8677    7.2269 H         1 RES1    0.0000
     48 H17        1.3579    1.1170    5.6418 H         1 RES1    0.0000
     49 H18        1.1921    1.5564    3.3715 H         1 RES1    0.0000
@<TRIPOS>BOND
     1    1    5 2
     2    2    5 2
     3    3   23 2
     4    4   23 1
     5    5   10 1
     6    6    7 2
     7    7    8 1
     8    8   22 1
     9    9   10 ar
    10   10   11 ar
    11   11   12 ar
    12   12   13 ar
    13   13   14 ar
    14   14    9 ar
    15   15   14 1
    16   16   15 ar
    17   17   16 ar
    18   18   17 ar
    19   19   18 ar
    20   20   15 ar
    21   21    6 1
    22   22   21 2
    23   23   22 1
    24   24    4 1
    25   25    8 1
    26   26   25 1
    27   27   26 ar
    28   28   27 ar
    29   29   28 ar
    30   30   29 ar
    31   31   26 ar
    32   32   11 1
    33   33   12 1
    34   34   13 1
    35   35   16 1
    36   36   17 1
    37   37   18 1
    38   38   19 1
    39   39   20 1
    40   40   24 1
    41   41   24 1
    42   42   24 1
    43   43   25 1
    44   44   25 1
    45   45   27 1
    46   46   28 1
    47   47   29 1
    48   48   30 1
    49   49   31 1
    50    9   21 1
    51   19   20 ar
    52   30   31 ar
@<TRIPOS>SUBSTRUCTURE
     1 RES1 1

@<TRIPOS>CRYSIN
   9.3017    9.7642   21.9140  90.0000  92.5030  90.0000  14 1

