# MOL2 file generated by ConQuest
# Please check atom types

@<TRIPOS>MOLECULE
ADINAE
    61    63     1
SMALL
NO_CHARGES
****
Generated from CSD

@<TRIPOS>ATOM
      1 O1        11.1126   -0.5126    6.7229 O.2       1 RES1    0.0000
      2 O2        12.7477   -0.8836    5.4344 O.2       1 RES1    0.0000
      3 O3        15.7357    4.9193    7.8202 O.2       1 RES1    0.0000
      4 O4        14.0330    4.9891    9.2692 O.3       1 RES1    0.0000
      5 O5         8.7813    4.5727   14.3476 O.2       1 RES1    0.0000
      6 O6        11.7700    1.8986   15.6612 O.2       1 RES1    0.0000
      7 O7        10.0253    1.1157   16.7878 O.3       1 RES1    0.0000
      8 N1        12.1891   -0.2214    6.2692 N.pl3     1 RES1    0.0000
      9 N2         9.6241    2.7665   15.3636 N.am      1 RES1    0.0000
     10 C1        12.8421    0.9893    6.7675 C.ar      1 RES1    0.0000
     11 C2        12.2778    1.6471    7.8185 C.ar      1 RES1    0.0000
     12 C3        12.8908    2.7760    8.3033 C.ar      1 RES1    0.0000
     13 C4        14.0493    3.2388    7.7411 C.ar      1 RES1    0.0000
     14 C5        14.5934    2.5508    6.6768 C.ar      1 RES1    0.0000
     15 C6        14.0022    1.4207    6.1850 C.ar      1 RES1    0.0000
     16 C7        14.7265    4.4545    8.2433 C.2       1 RES1    0.0000
     17 C8        14.4975    6.1708    9.8572 C.2       1 RES1    0.0000
     18 C9        13.8523    6.6934   10.8588 C.2       1 RES1    0.0000
     19 C10       12.6011    6.0953   11.4461 C.3       1 RES1    0.0000
     20 C11       12.6676    5.8695   12.9560 C.3       1 RES1    0.0000
     21 C12       11.3542    5.3777   13.4655 C.2       1 RES1    0.0000
     22 C13       11.1244    4.2715   14.1345 C.2       1 RES1    0.0000
     23 C14        9.7699    3.9162   14.5893 C.2       1 RES1    0.0000
     24 C15       14.3235    7.9858   11.4339 C.3       1 RES1    0.0000
     25 C16       13.8293    4.9727   13.3329 C.3       1 RES1    0.0000
     26 C17       10.6046    1.9452   15.9011 C.2       1 RES1    0.0000
     27 C18        8.6616    1.5339   17.0204 C.3       1 RES1    0.0000
     28 C19        8.2913    2.3477   15.8249 C.3       1 RES1    0.0000
     29 C20        7.5501    1.5987   14.7370 C.3       1 RES1    0.0000
     30 C21        6.1285    1.2918   15.1417 C.ar      1 RES1    0.0000
     31 C22        5.7932    0.0906   15.7034 C.ar      1 RES1    0.0000
     32 C23        4.4916   -0.1522   16.1267 C.ar      1 RES1    0.0000
     33 C24        3.5349    0.8031   15.9816 C.ar      1 RES1    0.0000
     34 C25        3.8576    1.9936   15.4062 C.ar      1 RES1    0.0000
     35 C26        5.1454    2.2452   14.9930 C.ar      1 RES1    0.0000
     36 H1        11.4758    1.3396    8.2534 H         1 RES1    0.0000
     37 H2        12.5200    3.2766    9.0082 H         1 RES1    0.0000
     38 H3        15.4256    2.8992    6.3878 H         1 RES1    0.0000
     39 H4        14.4016    0.8867    5.4976 H         1 RES1    0.0000
     40 H5        15.2805    6.5720    9.3952 H         1 RES1    0.0000
     41 H6        11.8411    6.6915   11.2121 H         1 RES1    0.0000
     42 H7        12.4516    5.2262   11.0594 H         1 RES1    0.0000
     43 H8        12.8278    6.7355   13.3154 H         1 RES1    0.0000
     44 H9        10.6225    5.8802   13.1870 H         1 RES1    0.0000
     45 H10       11.7848    3.7168   14.3219 H         1 RES1    0.0000
     46 H11       14.6393    7.8864   12.3471 H         1 RES1    0.0000
     47 H12       13.6055    8.6285   11.4030 H         1 RES1    0.0000
     48 H13       15.0772    8.3832   10.9484 H         1 RES1    0.0000
     49 H14       13.7262    4.0627   12.8781 H         1 RES1    0.0000
     50 H15       14.6662    5.3205   13.0620 H         1 RES1    0.0000
     51 H16       13.8457    4.8300   14.3288 H         1 RES1    0.0000
     52 H17        8.1637    0.7610   17.1609 H         1 RES1    0.0000
     53 H18        8.7180    2.0502   17.8724 H         1 RES1    0.0000
     54 H19        7.8219    3.0879   16.0416 H         1 RES1    0.0000
     55 H20        7.9973    0.8301   14.5041 H         1 RES1    0.0000
     56 H21        7.5311    2.1571   13.9106 H         1 RES1    0.0000
     57 H22        6.4049   -0.6037   15.8004 H         1 RES1    0.0000
     58 H23        4.3196   -0.9622   16.5171 H         1 RES1    0.0000
     59 H24        2.6086    0.5723   16.2516 H         1 RES1    0.0000
     60 H25        3.1565    2.6791   15.2607 H         1 RES1    0.0000
     61 H26        5.3748    3.0187   14.5996 H         1 RES1    0.0000
@<TRIPOS>BOND
     1    1    8 2
     2    2    8 2
     3    3   16 2
     4    4   16 1
     5    5   23 2
     6    6   26 2
     7    7   26 1
     8    8   10 1
     9    9   23 1
    10   10   11 ar
    11   11   12 ar
    12   12   13 ar
    13   13   14 ar
    14   14   15 ar
    15   15   10 ar
    16   16   13 1
    17   17    4 1
    18   18   17 2
    19   19   18 1
    20   20   19 1
    21   21   20 1
    22   22   21 2
    23   23   22 1
    24   24   18 1
    25   25   20 1
    26   26    9 1
    27   27    7 1
    28   28    9 1
    29   29   28 1
    30   30   29 1
    31   31   30 ar
    32   32   31 ar
    33   33   32 ar
    34   34   33 ar
    35   35   30 ar
    36   36   11 1
    37   37   12 1
    38   38   14 1
    39   39   15 1
    40   40   17 1
    41   41   19 1
    42   42   19 1
    43   43   20 1
    44   44   21 1
    45   45   22 1
    46   46   24 1
    47   47   24 1
    48   48   24 1
    49   49   25 1
    50   50   25 1
    51   51   25 1
    52   52   27 1
    53   53   27 1
    54   54   28 1
    55   55   29 1
    56   56   29 1
    57   57   31 1
    58   58   32 1
    59   59   33 1
    60   60   34 1
    61   61   35 1
    62   27   28 1
    63   34   35 ar
@<TRIPOS>SUBSTRUCTURE
     1 RES1 1

@<TRIPOS>CRYSIN
  11.3130    6.2890   17.3747  90.0000  92.8260  90.0000   4 1

