# MOL2 file generated by ConQuest
# Please check atom types

@<TRIPOS>MOLECULE
ADINIL
    70    74     1
SMALL
NO_CHARGES
****
Generated from CSD

@<TRIPOS>ATOM
      1 O1         4.1746    5.5899    0.0926 O.3       1 RES1    0.0000
      2 O2         4.5499    6.8037    4.7365 O.3       1 RES1    0.0000
      3 O3         2.1630    6.0110   -1.5073 O.2       1 RES1    0.0000
      4 O4         2.1248    4.6826   -3.1594 O.2       1 RES1    0.0000
      5 O5         3.4988    8.3799    6.5001 O.2       1 RES1    0.0000
      6 O6         2.5238    7.6490    8.0292 O.2       1 RES1    0.0000
      7 N1         2.4367    4.9511   -2.0297 N.pl3     1 RES1    0.0000
      8 N2         3.1053    7.4718    7.0491 N.pl3     1 RES1    0.0000
      9 C1         4.9402    5.8830    1.2368 C.ar      1 RES1    0.0000
     10 C2         4.2949    6.1468    2.4192 C.ar      1 RES1    0.0000
     11 C3         5.1408    6.4396    3.4777 C.ar      1 RES1    0.0000
     12 C4         6.4921    6.4859    3.3893 C.ar      1 RES1    0.0000
     13 C5         7.0970    6.1982    2.1891 C.ar      1 RES1    0.0000
     14 C6         6.3055    5.9074    1.1071 C.ar      1 RES1    0.0000
     15 C7         4.1068    5.7955    5.5338 C.ar      1 RES1    0.0000
     16 C8         4.4007    4.4908    5.2711 C.ar      1 RES1    0.0000
     17 C9         3.9062    4.2840   -0.1256 C.ar      1 RES1    0.0000
     18 C10        3.1024    3.9528   -1.2161 C.ar      1 RES1    0.0000
     19 C11        2.9047    2.6404   -1.5260 C.ar      1 RES1    0.0000
     20 C12        3.3915    6.1080    6.6784 C.ar      1 RES1    0.0000
     21 C13        2.8223    6.0847    2.5372 C.3       1 RES1    0.0000
     22 C14        2.1226    7.4049    2.6139 C.3       1 RES1    0.0000
     23 C15        2.1957    8.0829    1.3306 C.3       1 RES1    0.0000
     24 H1         7.0068    6.7129    4.1535 H         1 RES1    0.0000
     25 H2         8.0456    6.1889    2.1159 H         1 RES1    0.0000
     26 H3         6.6974    5.7271    0.2660 H         1 RES1    0.0000
     27 H4         4.9418    4.2794    4.5192 H         1 RES1    0.0000
     28 H5         2.4056    2.4165   -2.3036 H         1 RES1    0.0000
     29 H6         2.4849    5.6182    1.7787 H         1 RES1    0.0000
     30 H7         2.6357    5.5871    3.3223 H         1 RES1    0.0000
     31 H8         1.2082    7.2727    2.8308 H         1 RES1    0.0000
     32 H9         2.5393    7.9336    3.2748 H         1 RES1    0.0000
     33 H10        2.9732    8.6069    1.3109 H         1 RES1    0.0000
     34 H11        1.4259    8.6380    1.2088 H         1 RES1    0.0000
     35 H12        2.2159    7.4298    0.6412 H         1 RES1    0.0000
     36 O1N        4.1746    2.1851    5.8444 O.3       1 RES1    0.0000
     37 O2N        4.5499    0.9713    1.2005 O.3       1 RES1    0.0000
     38 O3N        2.1630    1.7640    7.4443 O.2       1 RES1    0.0000
     39 O4N        2.1248    3.0924    9.0964 O.2       1 RES1    0.0000
     40 O5N        3.4988   -0.6049   -0.5631 O.2       1 RES1    0.0000
     41 O6N        2.5238    0.1260   -2.0922 O.2       1 RES1    0.0000
     42 N1N        2.4367    2.8239    7.9667 N.pl3     1 RES1    0.0000
     43 N2N        3.1053    0.3032   -1.1121 N.pl3     1 RES1    0.0000
     44 C1N        4.9402    1.8920    4.7002 C.ar      1 RES1    0.0000
     45 C2N        4.2949    1.6282    3.5178 C.ar      1 RES1    0.0000
     46 C3N        5.1408    1.3354    2.4593 C.ar      1 RES1    0.0000
     47 C4N        6.4921    1.2891    2.5477 C.ar      1 RES1    0.0000
     48 C5N        7.0970    1.5768    3.7479 C.ar      1 RES1    0.0000
     49 C6N        6.3055    1.8676    4.8299 C.ar      1 RES1    0.0000
     50 C7N        4.1068    1.9795    0.4032 C.ar      1 RES1    0.0000
     51 C8N        4.4007    3.2842    0.6659 C.ar      1 RES1    0.0000
     52 C9N        3.9062    3.4910    6.0626 C.ar      1 RES1    0.0000
     53 C10N       3.1024    3.8222    7.1531 C.ar      1 RES1    0.0000
     54 C11N       2.9047    5.1346    7.4630 C.ar      1 RES1    0.0000
     55 C12N       3.3915    1.6670   -0.7414 C.ar      1 RES1    0.0000
     56 C13N       2.8223    1.6903    3.3998 C.3       1 RES1    0.0000
     57 C14N       2.1226    0.3701    3.3231 C.3       1 RES1    0.0000
     58 C15N       2.1957   -0.3079    4.6064 C.3       1 RES1    0.0000
     59 H1N        7.0068    1.0621    1.7835 H         1 RES1    0.0000
     60 H2N        8.0456    1.5861    3.8211 H         1 RES1    0.0000
     61 H3N        6.6974    2.0479    5.6710 H         1 RES1    0.0000
     62 H4N        4.9418    3.4956    1.4178 H         1 RES1    0.0000
     63 H5N        2.4056    5.3585    8.2406 H         1 RES1    0.0000
     64 H6N        2.4849    2.1568    4.1583 H         1 RES1    0.0000
     65 H7N        2.6357    2.1879    2.6147 H         1 RES1    0.0000
     66 H8N        1.2082    0.5023    3.1062 H         1 RES1    0.0000
     67 H9N        2.5393   -0.1586    2.6622 H         1 RES1    0.0000
     68 H10N       2.9732   -0.8319    4.6261 H         1 RES1    0.0000
     69 H11N       1.4259   -0.8630    4.7282 H         1 RES1    0.0000
     70 H12N       2.2159    0.3452    5.2958 H         1 RES1    0.0000
@<TRIPOS>BOND
     1    1    9 1
     2    2   11 1
     3    3    7 2
     4    4    7 2
     5    5    8 2
     6    6    8 2
     7    7   18 1
     8    8   20 1
     9    9   10 ar
    10   10   11 ar
    11   11   12 ar
    12   12   13 ar
    13   13   14 ar
    14   14    9 ar
    15   15    2 1
    16   16   15 ar
    17   17    1 1
    18   18   17 ar
    19   19   18 ar
    20   20   15 ar
    21   21   10 1
    22   22   21 1
    23   23   22 1
    24   24   12 1
    25   25   13 1
    26   26   14 1
    27   27   16 1
    28   28   19 1
    29   29   21 1
    30   30   21 1
    31   31   22 1
    32   32   22 1
    33   33   23 1
    34   34   23 1
    35   35   23 1
    36   36   44 1
    37   37   46 1
    38   38   42 2
    39   39   42 2
    40   40   43 2
    41   41   43 2
    42   42   53 1
    43   43   55 1
    44   44   45 ar
    45   45   46 ar
    46   46   47 ar
    47   47   48 ar
    48   48   49 ar
    49   49   44 ar
    50   50   37 1
    51   51   17 ar
    52   52   16 ar
    53   53   52 ar
    54   54   20 ar
    55   55   19 ar
    56   56   45 1
    57   57   56 1
    58   58   57 1
    59   59   47 1
    60   60   48 1
    61   61   49 1
    62   62   51 1
    63   63   54 1
    64   64   56 1
    65   65   56 1
    66   66   57 1
    67   67   57 1
    68   68   58 1
    69   69   58 1
    70   70   58 1
    71   36   52 1
    72   50   51 ar
    73   50   55 ar
    74   53   54 ar
@<TRIPOS>SUBSTRUCTURE
     1 RES1 1

@<TRIPOS>CRYSIN
  15.5500   15.5500   23.7480  90.0000  90.0000  90.0000 122 1

