# MOL2 file generated by ConQuest
# Please check atom types

@<TRIPOS>MOLECULE
ADIPEJ
    19    19     1
SMALL
NO_CHARGES
****
Generated from CSD

@<TRIPOS>ATOM
      1 O1         1.7096    4.6309    2.8249 O.3       1 RES1    0.0000
      2 O2        -0.5054    5.7795    1.7420 O.3       1 RES1    0.0000
      3 H1        -0.0419    6.0362    2.3942 H         1 RES1    0.0000
      4 O3         2.1211    0.6009    2.5630 O.2       1 RES1    0.0000
      5 O4         3.2705    2.4283    2.5947 O.2       1 RES1    0.0000
      6 N1         2.2461    1.8047    2.3504 N.pl3     1 RES1    0.0000
      7 C1         0.9147    3.8750    2.0127 C.ar      1 RES1    0.0000
      8 C2         0.2035    1.7652    1.0232 C.ar      1 RES1    0.0000
      9 H2         0.3448    0.8353    0.8892 H         1 RES1    0.0000
     10 C3        -1.1252    3.7489    0.7132 C.ar      1 RES1    0.0000
     11 H3        -1.8899    4.1752    0.3441 H         1 RES1    0.0000
     12 C4         1.1007    2.5129    1.7684 C.ar      1 RES1    0.0000
     13 C5        -0.2363    4.4627    1.4817 C.ar      1 RES1    0.0000
     14 C6        -0.8958    2.3916    0.4793 C.ar      1 RES1    0.0000
     15 H4        -1.5019    1.8965   -0.0590 H         1 RES1    0.0000
     16 C7         2.7192    5.4006    2.1234 C.3       1 RES1    0.0000
     17 H5         3.3737    4.7912    1.7219 H         1 RES1    0.0000
     18 H6         3.1727    5.9968    2.7548 H         1 RES1    0.0000
     19 H7         2.2933    5.9325    1.4191 H         1 RES1    0.0000
@<TRIPOS>BOND
     1    1    7 1
     2    2    3 1
     3    4    6 2
     4    5    6 2
     5    6   12 1
     6    7   12 ar
     7    8    9 1
     8   10   11 1
     9   12    8 ar
    10   13    2 1
    11   14    8 ar
    12   15   14 1
    13   16    1 1
    14   17   16 1
    15   18   16 1
    16   19   16 1
    17    7   13 ar
    18   10   13 ar
    19   10   14 ar
@<TRIPOS>SUBSTRUCTURE
     1 RES1 1

@<TRIPOS>CRYSIN
  13.9581   13.1337    4.0110  90.0000  90.0000  90.0000  33 1

