# MOL2 file generated by ConQuest
# Please check atom types

@<TRIPOS>MOLECULE
ADOGUX
    49    51     1
SMALL
NO_CHARGES
****
Generated from CSD

@<TRIPOS>ATOM
      1 N1        -1.2136    5.3852    7.3784 N.am      1 RES1    0.0000
      2 N2        -0.0855    8.4130    7.5892 N.am      1 RES1    0.0000
      3 N3        -1.2503    8.8175   11.0342 N.am      1 RES1    0.0000
      4 N4        -5.0316    5.9203    7.3261 N.pl3     1 RES1    0.0000
      5 O1        -2.6987    3.8931    6.4441 O.2       1 RES1    0.0000
      6 O2         1.4465    7.1630    8.6696 O.2       1 RES1    0.0000
      7 O3        -1.4015    7.1233    9.5769 O.2       1 RES1    0.0000
      8 O4        -4.2281    6.4051    6.5354 O.2       1 RES1    0.0000
      9 O5        -6.2403    5.9331    7.1645 O.2       1 RES1    0.0000
     10 C1        -2.3657    4.6567    7.3279 C.2       1 RES1    0.0000
     11 C2        -0.1796    5.4062    6.4141 C.ar      1 RES1    0.0000
     12 C3         0.7820    6.4155    6.5062 C.ar      1 RES1    0.0000
     13 C4         1.8416    6.4785    5.5953 C.ar      1 RES1    0.0000
     14 C5         1.9369    5.5282    4.5871 C.ar      1 RES1    0.0000
     15 C6         0.9950    4.5198    4.5063 C.ar      1 RES1    0.0000
     16 C7        -0.0712    4.4429    5.4060 C.ar      1 RES1    0.0000
     17 C8         0.7512    7.3774    7.6658 C.2       1 RES1    0.0000
     18 C9        -0.4141    9.1987    8.7851 C.3       1 RES1    0.0000
     19 C10       -1.3803   10.2617    8.2361 C.3       1 RES1    0.0000
     20 C11       -2.0725    9.5492    7.0680 C.3       1 RES1    0.0000
     21 C12       -0.9441    8.7536    6.4293 C.3       1 RES1    0.0000
     22 C13       -1.0643    8.2771    9.8339 C.2       1 RES1    0.0000
     23 C14       -1.8456    8.0321   12.1080 C.3       1 RES1    0.0000
     24 C15       -3.2082    4.8223    8.5758 C.ar      1 RES1    0.0000
     25 C16       -4.5000    5.3333    8.5595 C.ar      1 RES1    0.0000
     26 C17       -5.3051    5.3753    9.6908 C.ar      1 RES1    0.0000
     27 C18       -4.7911    4.9087   10.8850 C.ar      1 RES1    0.0000
     28 C19       -3.5047    4.3902   10.9307 C.ar      1 RES1    0.0000
     29 C20       -2.7218    4.3473    9.7846 C.ar      1 RES1    0.0000
     30 H1        -1.1994    5.9537    7.9904 H         1 RES1    0.0000
     31 H2        -1.0744    9.5921   11.1573 H         1 RES1    0.0000
     32 H3         2.4730    7.1695    5.6688 H         1 RES1    0.0000
     33 H4         2.6581    5.5425    3.9629 H         1 RES1    0.0000
     34 H5         1.0561    3.8261    3.8622 H         1 RES1    0.0000
     35 H6        -0.7188    3.7099    5.3111 H         1 RES1    0.0000
     36 H7         0.3794    9.5921    9.1743 H         1 RES1    0.0000
     37 H8        -0.8739   10.9866    7.9733 H         1 RES1    0.0000
     38 H9        -1.9476   10.5486    8.9496 H         1 RES1    0.0000
     39 H10       -2.4629   10.2268    6.4487 H         1 RES1    0.0000
     40 H11       -2.7827    8.8590    7.3838 H         1 RES1    0.0000
     41 H12       -1.2176    8.0009    5.9953 H         1 RES1    0.0000
     42 H13       -0.4000    9.3239    5.7827 H         1 RES1    0.0000
     43 H14       -2.7033    7.7416   11.8294 H         1 RES1    0.0000
     44 H15       -1.9519    8.5283   12.8844 H         1 RES1    0.0000
     45 H16       -1.2661    7.1605   12.2929 H         1 RES1    0.0000
     46 H17       -6.1772    5.7749    9.5814 H         1 RES1    0.0000
     47 H18       -5.3145    4.9972   11.6782 H         1 RES1    0.0000
     48 H19       -3.1250    4.0496   11.8012 H         1 RES1    0.0000
     49 H20       -1.8453    3.9960    9.8514 H         1 RES1    0.0000
@<TRIPOS>BOND
     1    1   10 1
     2    2   17 1
     3    3   22 1
     4    4    8 2
     5    5   10 2
     6    6   17 2
     7    7   22 2
     8    9    4 2
     9   10   24 1
    10   11    1 1
    11   12   11 ar
    12   13   12 ar
    13   14   13 ar
    14   15   14 ar
    15   16   11 ar
    16   17   12 1
    17   18    2 1
    18   19   18 1
    19   20   19 1
    20   21    2 1
    21   22   18 1
    22   23    3 1
    23   24   25 ar
    24   25    4 1
    25   26   25 ar
    26   27   26 ar
    27   28   27 ar
    28   29   24 ar
    29   30    1 1
    30   31    3 1
    31   32   13 1
    32   33   14 1
    33   34   15 1
    34   35   16 1
    35   36   18 1
    36   37   19 1
    37   38   19 1
    38   39   20 1
    39   40   20 1
    40   41   21 1
    41   42   21 1
    42   43   23 1
    43   44   23 1
    44   45   23 1
    45   46   26 1
    46   47   27 1
    47   48   28 1
    48   49   29 1
    49   15   16 ar
    50   20   21 1
    51   28   29 ar
@<TRIPOS>SUBSTRUCTURE
     1 RES1 1

@<TRIPOS>CRYSIN
  10.9252    8.9395   11.2908  90.0000 116.8210  90.0000   4 1

