# MOL2 file generated by ConQuest
# Please check atom types

@<TRIPOS>MOLECULE
ADOHAE
    58    60     1
SMALL
NO_CHARGES
****
Generated from CSD

@<TRIPOS>ATOM
      1 O1         4.3796    5.8730   15.5720 O.2       1 RES1    0.0000
      2 O2         3.5460   11.3542   17.3631 O.2       1 RES1    0.0000
      3 O3         3.0649    8.8569   19.1296 O.2       1 RES1    0.0000
      4 O4         1.4720    6.1757   17.1635 O.2       1 RES1    0.0000
      5 O5         0.8631    6.3001   19.2445 O.2       1 RES1    0.0000
      6 N1         3.8054    7.9068   16.4460 N.am      1 RES1    0.0000
      7 N2         1.6830   10.0849   17.1473 N.am      1 RES1    0.0000
      8 N3         2.1815   10.2058   20.7349 N.am      1 RES1    0.0000
      9 N4         1.7027    6.1348   18.3711 N.pl3     1 RES1    0.0000
     10 C1         4.0717    6.5911   16.5061 C.2       1 RES1    0.0000
     11 C2         3.8054    8.7230   15.2828 C.ar      1 RES1    0.0000
     12 C3         3.3319   10.0346   15.3939 C.ar      1 RES1    0.0000
     13 C4         3.3342   10.8836   14.2939 C.ar      1 RES1    0.0000
     14 C5         3.7986   10.4274   13.0744 C.ar      1 RES1    0.0000
     15 C6         4.2873    9.1458   12.9666 C.ar      1 RES1    0.0000
     16 C7         4.3077    8.2924   14.0548 C.ar      1 RES1    0.0000
     17 C8         2.8547   10.5669   16.7125 C.2       1 RES1    0.0000
     18 C9         1.2420   10.3128   18.5253 C.3       1 RES1    0.0000
     19 H1         1.1074   11.2890   18.6955 H         1 RES1    0.0000
     20 C10       -0.1014    9.5583   18.5964 C.3       1 RES1    0.0000
     21 H2         0.0265    8.6440   18.9527 H         1 RES1    0.0000
     22 H3        -0.7466   10.0404   19.1721 H         1 RES1    0.0000
     23 C11       -0.5900    9.5141   17.1511 C.3       1 RES1    0.0000
     24 H4        -1.0469   10.3565   16.9044 H         1 RES1    0.0000
     25 H5        -1.2102    8.7557   17.0085 H         1 RES1    0.0000
     26 C12        0.7012    9.3304   16.3457 C.3       1 RES1    0.0000
     27 H6         0.9508    8.3751   16.2784 H         1 RES1    0.0000
     28 H7         0.6142    9.7086   15.4349 H         1 RES1    0.0000
     29 C13        2.2722    9.7311   19.4984 C.2       1 RES1    0.0000
     30 C14        3.0264    9.7923   21.8882 C.3       1 RES1    0.0000
     31 C15        2.5105   10.5703   23.0926 C.3       1 RES1    0.0000
     32 C16        4.4764   10.1610   21.6024 C.3       1 RES1    0.0000
     33 C17        2.9000    8.2960   22.1373 C.3       1 RES1    0.0000
     34 C18        4.1345    6.0156   17.9072 C.ar      1 RES1    0.0000
     35 C19        3.0763    5.8310   18.7910 C.ar      1 RES1    0.0000
     36 C20        3.2412    5.3007   20.0597 C.ar      1 RES1    0.0000
     37 C21        4.5089    4.9230   20.4607 C.ar      1 RES1    0.0000
     38 C22        5.5732    5.0836   19.6081 C.ar      1 RES1    0.0000
     39 C23        5.3969    5.6291   18.3460 C.ar      1 RES1    0.0000
     40 H8         3.5778    8.2792   17.2127 H         1 RES1    0.0000
     41 H9         1.5733   10.8062   20.8800 H         1 RES1    0.0000
     42 H10        3.0256   11.8048   14.4174 H         1 RES1    0.0000
     43 H11        3.7896   11.0374   12.3464 H         1 RES1    0.0000
     44 H12        4.6443    8.8642   12.1213 H         1 RES1    0.0000
     45 H13        4.6443    7.4080   13.9540 H         1 RES1    0.0000
     46 H14        2.4432    5.2144   20.6606 H         1 RES1    0.0000
     47 H15        4.5611    4.5492   21.2771 H         1 RES1    0.0000
     48 H16        6.4218    4.8622   19.8587 H         1 RES1    0.0000
     49 H17        6.1495    5.7601   17.7158 H         1 RES1    0.0000
     50 H18        3.0785   10.3549   23.8909 H         1 RES1    0.0000
     51 H19        2.6247   11.5296   22.9642 H         1 RES1    0.0000
     52 H20        1.5431   10.4100   23.2857 H         1 RES1    0.0000
     53 H21        5.0301    9.9524   22.3703 H         1 RES1    0.0000
     54 H22        4.5762   11.1852   21.4152 H         1 RES1    0.0000
     55 H23        4.8485    9.6300   20.8081 H         1 RES1    0.0000
     56 H24        3.4870    8.1094   22.9604 H         1 RES1    0.0000
     57 H25        2.0045    8.0685   22.2984 H         1 RES1    0.0000
     58 H26        3.2450    7.8185   21.3660 H         1 RES1    0.0000
@<TRIPOS>BOND
     1    1   10 2
     2    2   17 2
     3    3   29 2
     4    4    9 2
     5    5    9 2
     6    6   10 1
     7    7   17 1
     8    8   29 1
     9    9   35 1
    10   10   34 1
    11   11    6 1
    12   12   11 ar
    13   13   12 ar
    14   14   13 ar
    15   15   14 ar
    16   16   11 ar
    17   17   12 1
    18   18    7 1
    19   19   18 1
    20   20   18 1
    21   21   20 1
    22   22   20 1
    23   23   20 1
    24   24   23 1
    25   25   23 1
    26   26    7 1
    27   27   26 1
    28   28   26 1
    29   29   18 1
    30   30    8 1
    31   31   30 1
    32   32   30 1
    33   33   30 1
    34   34   35 ar
    35   35   36 ar
    36   36   37 ar
    37   37   38 ar
    38   38   39 ar
    39   39   34 ar
    40   40    6 1
    41   41    8 1
    42   42   13 1
    43   43   14 1
    44   44   15 1
    45   45   16 1
    46   46   36 1
    47   47   37 1
    48   48   38 1
    49   49   39 1
    50   50   31 1
    51   51   31 1
    52   52   31 1
    53   53   32 1
    54   54   32 1
    55   55   32 1
    56   56   33 1
    57   57   33 1
    58   58   33 1
    59   15   16 ar
    60   23   26 1
@<TRIPOS>SUBSTRUCTURE
     1 RES1 1

@<TRIPOS>CRYSIN
   7.5640   15.7250   18.9130  90.0000  90.0000  90.0000  19 1

