# MOL2 file generated by ConQuest
# Please check atom types

@<TRIPOS>MOLECULE
ADOKEJ
    33    34     1
SMALL
NO_CHARGES
****
Generated from CSD

@<TRIPOS>ATOM
      1 C1         5.3986    6.0575    0.4480 C.2       1 RES1    0.0000
      2 C2         4.5037    6.3439   -0.6944 C.2       1 RES1    0.0000
      3 C3         3.3742    7.0345   -0.4829 C.2       1 RES1    0.0000
      4 C4         2.8946    7.5153    0.8534 C.3       1 RES1    0.0000
      5 C5         3.5884    6.8021    1.9930 C.3       1 RES1    0.0000
      6 C6         5.0888    6.7287    1.7608 C.3       1 RES1    0.0000
      7 C7         4.8707    5.8902   -2.0667 C.ar      1 RES1    0.0000
      8 C8         3.9104    5.3028   -2.8896 C.ar      1 RES1    0.0000
      9 C9         4.1936    4.8901   -4.1911 C.ar      1 RES1    0.0000
     10 C10        5.4892    5.0660   -4.6955 C.ar      1 RES1    0.0000
     11 C11        6.4427    5.6584   -3.8782 C.ar      1 RES1    0.0000
     12 C12        6.1491    6.0683   -2.5899 C.ar      1 RES1    0.0000
     13 C13        3.1138    4.2662   -5.0327 C.3       1 RES1    0.0000
     14 C14        5.8559    4.6219   -6.0935 C.3       1 RES1    0.0000
     15 N1         6.3810    5.2558    0.2498 N.2       1 RES1    0.0000
     16 O1         7.1687    5.0617    1.4039 O.3       1 RES1    0.0000
     17 H1         2.8068    7.2774   -1.2828 H         1 RES1    0.0000
     18 H2         1.9008    7.4188    0.9172 H         1 RES1    0.0000
     19 H3         3.0383    8.4961    0.8994 H         1 RES1    0.0000
     20 H4         3.2112    5.8344    2.0495 H         1 RES1    0.0000
     21 H5         3.4094    7.2697    2.8465 H         1 RES1    0.0000
     22 H6         5.5449    6.2626    2.4893 H         1 RES1    0.0000
     23 H7         5.4717    7.6432    1.7204 H         1 RES1    0.0000
     24 H8         3.4067    3.4408   -5.4340 H         1 RES1    0.0000
     25 H9         2.2770    4.0684   -4.4782 H         1 RES1    0.0000
     26 H10        2.8673    4.8314   -5.7766 H         1 RES1    0.0000
     27 H11        5.7338    3.6586   -6.1840 H         1 RES1    0.0000
     28 H12        6.8173    4.8456   -6.3407 H         1 RES1    0.0000
     29 H13        5.2494    5.0323   -6.7481 H         1 RES1    0.0000
     30 H14        3.0158    5.1383   -2.5227 H         1 RES1    0.0000
     31 H15        7.3826    5.8010   -4.2254 H         1 RES1    0.0000
     32 H16        6.8471    6.4838   -2.0359 H         1 RES1    0.0000
     33 H17        7.7958    4.5178    1.0697 H         1 RES1    0.0000
@<TRIPOS>BOND
     1    1    2 1
     2    2    3 2
     3    3    4 1
     4    4    5 1
     5    5    6 1
     6    6    1 1
     7    7    2 1
     8    8    7 ar
     9    9    8 ar
    10   10    9 ar
    11   11   10 ar
    12   12    7 ar
    13   13    9 1
    14   14   10 1
    15   15    1 2
    16   16   15 1
    17   17    3 1
    18   18    4 1
    19   19    4 1
    20   20    5 1
    21   21    5 1
    22   22    6 1
    23   23    6 1
    24   24   13 1
    25   25   13 1
    26   26   13 1
    27   27   14 1
    28   28   14 1
    29   29   14 1
    30   30    8 1
    31   31   11 1
    32   32   12 1
    33   33   16 1
    34   11   12 ar
@<TRIPOS>SUBSTRUCTURE
     1 RES1 1

@<TRIPOS>CRYSIN
   6.7310    8.7570   11.3480  67.6900  80.7100  79.2900   2 1

