# MOL2 file generated by ConQuest
# Please check atom types

@<TRIPOS>MOLECULE
ADOMAK
    32    34     1
SMALL
NO_CHARGES
****
Generated from CSD

@<TRIPOS>ATOM
      1 O1         4.6371    0.5064  -11.3767 O.2       1 RES1    0.0000
      2 O2         6.0592   -0.6947  -10.2893 O.2       1 RES1    0.0000
      3 O3         2.0729   -1.8146   -4.7477 O.2       1 RES1    0.0000
      4 N1         4.9538   -0.1790  -10.4090 N.pl3     1 RES1    0.0000
      5 N2         1.0072   -0.9917   -6.5686 N.am      1 RES1    0.0000
      6 C1         3.9532   -0.4142   -9.3751 C.ar      1 RES1    0.0000
      7 C2         2.7221    0.2063   -9.4839 C.ar      1 RES1    0.0000
      8 H1         2.5249    0.7643  -10.2012 H         1 RES1    0.0000
      9 C3         1.8007   -0.0328   -8.4895 C.ar      1 RES1    0.0000
     10 C4         2.1168   -0.8690   -7.4189 C.ar      1 RES1    0.0000
     11 C5         1.0314   -1.4950   -5.2955 C.2       1 RES1    0.0000
     12 C6        -0.2925   -1.6341   -4.6039 C.ar      1 RES1    0.0000
     13 C7        -1.2924   -2.4453   -5.1194 C.ar      1 RES1    0.0000
     14 H2        -1.1630   -2.8860   -5.9278 H         1 RES1    0.0000
     15 C8        -2.4853   -2.5992   -4.4298 C.ar      1 RES1    0.0000
     16 H3        -3.1517   -3.1533   -4.7682 H         1 RES1    0.0000
     17 C9        -2.6801   -1.9295   -3.2414 C.ar      1 RES1    0.0000
     18 H4        -3.4903   -2.0131   -2.7912 H         1 RES1    0.0000
     19 C10        0.4193    0.5291   -8.2975 C.3       1 RES1    0.0000
     20 H5        -0.0981    0.4705   -9.1158 H         1 RES1    0.0000
     21 H6         0.4564    1.4551   -8.0116 H         1 RES1    0.0000
     22 C11       -0.1741   -0.3587   -7.2082 C.3       1 RES1    0.0000
     23 H7        -0.6737    0.1688   -6.5650 H         1 RES1    0.0000
     24 H8        -0.7622   -1.0292   -7.5891 H         1 RES1    0.0000
     25 C12       -1.6846   -1.1394   -2.7170 C.ar      1 RES1    0.0000
     26 H9        -1.8192   -0.6955   -1.9106 H         1 RES1    0.0000
     27 C13       -0.4775   -1.0027   -3.3938 C.ar      1 RES1    0.0000
     28 H10        0.2042   -0.4861   -3.0287 H         1 RES1    0.0000
     29 C14        3.3603   -1.4723   -7.3111 C.ar      1 RES1    0.0000
     30 H11        3.5685   -2.0147   -6.5848 H         1 RES1    0.0000
     31 C15        4.2818   -1.2441   -8.3173 C.ar      1 RES1    0.0000
     32 H12        5.1195   -1.6474   -8.2827 H         1 RES1    0.0000
@<TRIPOS>BOND
     1    1    4 2
     2    2    4 2
     3    3   11 2
     4    4    6 1
     5    5   10 1
     6    6    7 ar
     7    7    8 1
     8    9    7 ar
     9   10    9 ar
    10   11    5 1
    11   12   11 1
    12   13   12 ar
    13   14   13 1
    14   15   13 ar
    15   16   15 1
    16   17   15 ar
    17   18   17 1
    18   19    9 1
    19   20   19 1
    20   21   19 1
    21   22    5 1
    22   23   22 1
    23   24   22 1
    24   25   17 ar
    25   26   25 1
    26   27   12 ar
    27   28   27 1
    28   29   10 ar
    29   30   29 1
    30   31    6 ar
    31   32   31 1
    32   19   22 1
    33   25   27 ar
    34   29   31 ar
@<TRIPOS>SUBSTRUCTURE
     1 RES1 1

@<TRIPOS>CRYSIN
   8.1122    7.8149   10.1296  90.0000 102.3680  90.0000   4 1

