# MOL2 file generated by ConQuest
# Please check atom types

@<TRIPOS>MOLECULE
ADOXID
    17    17     1
SMALL
NO_CHARGES
****
Generated from CSD

@<TRIPOS>ATOM
      1 N1         3.0629    6.8269    1.2106 N.3       1 RES1    0.0000
      2 N2         3.3037    5.7891    2.0203 N.2       1 RES1    0.0000
      3 C1         4.1371    6.3095    2.9254 C.2       1 RES1    0.0000
      4 C2         4.4425    7.6640    2.7235 C.2       1 RES1    0.0000
      5 C3         3.7078    7.9518    1.5912 C.2       1 RES1    0.0000
      6 H1         3.6638    8.7941    1.1544 H         1 RES1    0.0000
      7 C4         2.1475    6.6681    0.0843 C.3       1 RES1    0.0000
      8 H2         2.2651    7.4140   -0.5404 H         1 RES1    0.0000
      9 H3         1.2240    6.6602    0.4132 H         1 RES1    0.0000
     10 H4         2.3375    5.8236   -0.3746 H         1 RES1    0.0000
     11 N3         4.6226    5.4587    3.9727 N.pl3     1 RES1    0.0000
     12 O1         4.2844    4.2792    3.9972 O.2       1 RES1    0.0000
     13 O2         5.3660    5.9644    4.8115 O.2       1 RES1    0.0000
     14 C5         5.3470    8.5892    3.4690 C.3       1 RES1    0.0000
     15 H5         5.3883    9.4502    3.0037 H         1 RES1    0.0000
     16 H6         6.2455    8.2000    3.5162 H         1 RES1    0.0000
     17 H7         5.0014    8.7240    4.3762 H         1 RES1    0.0000
@<TRIPOS>BOND
     1    1    2 1
     2    2    3 2
     3    3    4 1
     4    4    5 2
     5    5    1 1
     6    6    5 1
     7    7    1 1
     8    8    7 1
     9    9    7 1
    10   10    7 1
    11   11    3 1
    12   12   11 2
    13   13   11 2
    14   14    4 1
    15   15   14 1
    16   16   14 1
    17   17   14 1
@<TRIPOS>SUBSTRUCTURE
     1 RES1 1

@<TRIPOS>CRYSIN
   8.0120   11.4910    7.7899  90.0000 113.4180  90.0000  14 1

