# MOL2 file generated by ConQuest
# Please check atom types

@<TRIPOS>MOLECULE
AFEPUX
    25    25     1
SMALL
NO_CHARGES
****
Generated from CSD

@<TRIPOS>ATOM
      1 O1         3.2151   -0.1813    6.6949 O.2       1 RES1    0.0000
      2 O2         3.5670   -2.2249    7.3543 O.2       1 RES1    0.0000
      3 O3         6.4861   -2.2122   11.2662 O.2       1 RES1    0.0000
      4 O4         8.1539   -0.8144   11.3458 O.2       1 RES1    0.0000
      5 O5         8.8189    2.2739    7.5025 O.2       1 RES1    0.0000
      6 O6         8.5042    1.1282    5.6792 O.2       1 RES1    0.0000
      7 N1         5.7734    0.8242    5.7510 N.2       1 RES1    0.0000
      8 N2         3.9258   -1.0523    7.2009 N.pl3     1 RES1    0.0000
      9 N3         7.1734   -1.2951   10.7842 N.pl3     1 RES1    0.0000
     10 N4         8.2758    1.3693    6.8577 N.pl3     1 RES1    0.0000
     11 N5         5.1293   -1.0432    4.4888 N.3       1 RES1    0.0000
     12 N6         4.3655    1.0719    3.9773 N.3       1 RES1    0.0000
     13 C1         6.0745    0.2053    6.8976 C.ar      1 RES1    0.0000
     14 C2         5.2603   -0.6883    7.6658 C.ar      1 RES1    0.0000
     15 C3         5.6121   -1.2000    8.8970 C.ar      1 RES1    0.0000
     16 C4         6.8037   -0.7903    9.4728 C.ar      1 RES1    0.0000
     17 C5         7.6633    0.0844    8.8147 C.ar      1 RES1    0.0000
     18 C6         7.3044    0.5197    7.5713 C.ar      1 RES1    0.0000
     19 C7         5.0869    0.2786    4.7637 C.2       1 RES1    0.0000
     20 H1         5.0479   -1.8219    9.3419 H         1 RES1    0.0000
     21 H2         8.4743    0.3692    9.2187 H         1 RES1    0.0000
     22 H3         5.7963   -1.4680    4.7949 H         1 RES1    0.0000
     23 H4         4.7703   -1.3514    3.7371 H         1 RES1    0.0000
     24 H5         4.2059    1.9330    4.2140 H         1 RES1    0.0000
     25 H6         3.9810    0.8085    3.3122 H         1 RES1    0.0000
@<TRIPOS>BOND
     1    1    8 2
     2    2    8 2
     3    3    9 2
     4    4    9 2
     5    5   10 2
     6    6   10 2
     7    7   13 1
     8    8   14 1
     9    9   16 1
    10   10   18 1
    11   11   19 1
    12   12   19 1
    13   13   14 ar
    14   14   15 ar
    15   15   16 ar
    16   16   17 ar
    17   17   18 ar
    18   18   13 ar
    19   19    7 2
    20   20   15 1
    21   21   17 1
    22   22   11 1
    23   23   11 1
    24   24   12 1
    25   25   12 1
@<TRIPOS>SUBSTRUCTURE
     1 RES1 1

@<TRIPOS>CRYSIN
   7.6596    7.7316    9.0411 104.0450  95.0040 103.1210   2 1

