# MOL2 file generated by ConQuest
# Please check atom types

@<TRIPOS>MOLECULE
AFEXEP
    24    24     1
SMALL
NO_CHARGES
****
Generated from CSD

@<TRIPOS>ATOM
      1 N1         1.7922    8.8726    6.0566 N.am      1 RES1    0.0000
      2 H1         0.9880    9.1064    5.8341 H         1 RES1    0.0000
      3 N2         2.3421    5.4304   10.4567 N.pl3     1 RES1    0.0000
      4 O1         3.8923    9.0813    5.2288 O.2       1 RES1    0.0000
      5 O2         1.3268    5.0695   11.0257 O.2       1 RES1    0.0000
      6 O3         3.4444    5.1094   10.8231 O.2       1 RES1    0.0000
      7 C1         1.9936    8.0013    7.1380 C.ar      1 RES1    0.0000
      8 C2         3.2462    7.7072    7.6668 C.ar      1 RES1    0.0000
      9 H2         4.0097    8.0848    7.2957 H         1 RES1    0.0000
     10 C3         3.3497    6.8546    8.7433 C.ar      1 RES1    0.0000
     11 H3         4.1844    6.6468    9.0949 H         1 RES1    0.0000
     12 C4         2.2162    6.3137    9.2948 C.ar      1 RES1    0.0000
     13 C5         0.9695    6.6032    8.8015 C.ar      1 RES1    0.0000
     14 H4         0.2080    6.2422    9.1958 H         1 RES1    0.0000
     15 C6         0.8670    7.4345    7.7152 C.ar      1 RES1    0.0000
     16 H5         0.0273    7.6209    7.3595 H         1 RES1    0.0000
     17 C7         2.7014    9.3726    5.1796 C.2       1 RES1    0.0000
     18 C8         2.1147   10.2902    4.1497 C.3       1 RES1    0.0000
     19 H6         1.5631   10.9499    4.5989 H         1 RES1    0.0000
     20 H7         1.5386    9.7734    3.5655 H         1 RES1    0.0000
     21 C9         3.1388   11.0065    3.3111 C.3       1 RES1    0.0000
     22 H8         3.7197   11.5159    3.8805 H         1 RES1    0.0000
     23 H9         2.6946   11.5956    2.6968 H         1 RES1    0.0000
     24 H10        3.6562   10.3635    2.8203 H         1 RES1    0.0000
@<TRIPOS>BOND
     1    1    2 1
     2    3    5 2
     3    4   17 2
     4    6    3 2
     5    7    1 1
     6    8    7 ar
     7    9    8 1
     8   10    8 ar
     9   11   10 1
    10   12    3 1
    11   13   12 ar
    12   14   13 1
    13   15    7 ar
    14   16   15 1
    15   17    1 1
    16   18   17 1
    17   19   18 1
    18   20   18 1
    19   21   18 1
    20   22   21 1
    21   23   21 1
    22   24   21 1
    23   10   12 ar
    24   13   15 ar
@<TRIPOS>SUBSTRUCTURE
     1 RES1 1

@<TRIPOS>CRYSIN
   9.7630    9.2780   20.5860  90.0000  90.0000  90.0000  61 1

