# MOL2 file generated by ConQuest
# Please check atom types

@<TRIPOS>MOLECULE
AFIMOT
    20    21     1
SMALL
NO_CHARGES
****
Generated from CSD

@<TRIPOS>ATOM
      1 O1         3.6263    5.2080    5.8032 O.2       1 RES1    0.0000
      2 O2         7.3214    7.7803    6.1237 O.2       1 RES1    0.0000
      3 O3         6.1952    5.4460    6.2959 O.3       1 RES1    0.0000
      4 N1         5.4373    6.5336    5.8806 N.am      1 RES1    0.0000
      5 C1         3.3096    7.4695    5.0924 C.3       1 RES1    0.0000
      6 C2         6.1610    7.7317    5.7729 C.2       1 RES1    0.0000
      7 C3         5.4018    8.8730    5.2129 C.ar      1 RES1    0.0000
      8 C4         4.0486    8.7589    4.8868 C.ar      1 RES1    0.0000
      9 C5         6.0878   10.0815    5.0085 C.ar      1 RES1    0.0000
     10 C6         4.1086    6.3152    5.6100 C.2       1 RES1    0.0000
     11 C7         5.4158   11.1756    4.4917 C.ar      1 RES1    0.0000
     12 C8         3.3847    9.8697    4.3582 C.ar      1 RES1    0.0000
     13 C9         4.0571   11.0697    4.1673 C.ar      1 RES1    0.0000
     14 H1         2.5656    7.6373    5.7238 H         1 RES1    0.0000
     15 H2         2.9081    7.2032    4.2279 H         1 RES1    0.0000
     16 H3         5.7074    4.9102    6.7199 H         1 RES1    0.0000
     17 H4         7.0108   10.1479    5.2240 H         1 RES1    0.0000
     18 H5         5.8743   11.9963    4.3571 H         1 RES1    0.0000
     19 H6         2.4660    9.8030    4.1274 H         1 RES1    0.0000
     20 H7         3.5946   11.8213    3.8156 H         1 RES1    0.0000
@<TRIPOS>BOND
     1    1   10 2
     2    2    6 2
     3    3    4 1
     4    4    6 1
     5    5    8 1
     6    6    7 1
     7    7    8 ar
     8    8   12 ar
     9    9    7 ar
    10   10    4 1
    11   11    9 ar
    12   12   13 ar
    13   13   11 ar
    14   14    5 1
    15   15    5 1
    16   16    3 1
    17   17    9 1
    18   18   11 1
    19   19   12 1
    20   20   13 1
    21    5   10 1
@<TRIPOS>SUBSTRUCTURE
     1 RES1 1

@<TRIPOS>CRYSIN
  12.3360    8.6660    7.0520  90.0000 104.1900  90.0000 231 1

