# MOL2 file generated by ConQuest
# Please check atom types

@<TRIPOS>MOLECULE
AFITIU
    65    68     1
SMALL
NO_CHARGES
****
Generated from CSD

@<TRIPOS>ATOM
      1 C1         8.5358   -1.0206    3.4374 C.3       1 RES1    0.0000
      2 H1         9.3578   -1.4712    3.7219 H         1 RES1    0.0000
      3 C2         7.9058   -0.3282    4.6737 C.3       1 RES1    0.0000
      4 H2         7.1163    0.1464    4.3407 H         1 RES1    0.0000
      5 C3         8.8711    0.7384    5.1138 C.2       1 RES1    0.0000
      6 C4         9.1238    1.7550    4.0527 C.3       1 RES1    0.0000
      7 H3         9.7268    2.4372    4.3870 H         1 RES1    0.0000
      8 H4         8.2909    2.1822    3.7987 H         1 RES1    0.0000
      9 C5         9.7441    1.0612    2.8388 C.3       1 RES1    0.0000
     10 H5        10.6122    0.6903    3.1011 H         1 RES1    0.0000
     11 C6         7.6024   -2.0599    2.8476 C.ar      1 RES1    0.0000
     12 C7         8.0021   -3.3712    2.6772 C.ar      1 RES1    0.0000
     13 H6         8.8467   -3.6343    2.9643 H         1 RES1    0.0000
     14 C8         7.1622   -4.3006    2.0839 C.ar      1 RES1    0.0000
     15 H7         7.4511   -5.1764    1.9625 H         1 RES1    0.0000
     16 C9         5.9101   -3.9357    1.6775 C.ar      1 RES1    0.0000
     17 H8         5.3462   -4.5606    1.2827 H         1 RES1    0.0000
     18 C10        5.4897   -2.6449    1.8546 C.ar      1 RES1    0.0000
     19 H9         4.6327   -2.3979    1.5921 H         1 RES1    0.0000
     20 C11        6.3335   -1.7076    2.4226 C.ar      1 RES1    0.0000
     21 H10        6.0443   -0.8288    2.5202 H         1 RES1    0.0000
     22 C12        7.3883   -1.2979    5.7511 C.3       1 RES1    0.0000
     23 H11        6.7336   -1.8757    5.3066 H         1 RES1    0.0000
     24 C13        6.6229   -0.5430    6.8360 C.3       1 RES1    0.0000
     25 H12        5.9658    0.0253    6.4273 H         1 RES1    0.0000
     26 H13        7.2346   -0.0069    7.3460 H         1 RES1    0.0000
     27 H14        6.1865   -1.1709    7.4165 H         1 RES1    0.0000
     28 C14        8.4302   -2.2228    6.3533 C.3       1 RES1    0.0000
     29 H15        8.8826   -2.6946    5.6507 H         1 RES1    0.0000
     30 H16        8.0009   -2.8522    6.9366 H         1 RES1    0.0000
     31 H17        9.0657   -1.7056    6.8535 H         1 RES1    0.0000
     32 C15       10.8361    1.8784    7.6596 C.2       1 RES1    0.0000
     33 C16       11.7271    3.0653    7.7276 C.ar      1 RES1    0.0000
     34 C17       12.0090    3.5967    8.9760 C.ar      1 RES1    0.0000
     35 H18       11.6746    3.1937    9.7452 H         1 RES1    0.0000
     36 C18       12.7919    4.7324    9.0664 C.ar      1 RES1    0.0000
     37 H19       12.9685    5.1042    9.8998 H         1 RES1    0.0000
     38 C19       13.3073    5.3118    7.9479 C.ar      1 RES1    0.0000
     39 H20       13.8353    6.0731    8.0310 H         1 RES1    0.0000
     40 C20       13.0634    4.7914    6.6851 C.ar      1 RES1    0.0000
     41 C21       12.2506    3.6682    6.5975 C.ar      1 RES1    0.0000
     42 H21       12.0532    3.3144    5.7602 H         1 RES1    0.0000
     43 C22       13.6281    5.4238    5.4371 C.3       1 RES1    0.0000
     44 H22       14.1687    6.1794    5.6781 H         1 RES1    0.0000
     45 H23       12.9088    5.7128    4.8710 H         1 RES1    0.0000
     46 H24       14.1668    4.7811    4.9689 H         1 RES1    0.0000
     47 C23        9.9683    2.1000    1.7591 C.ar      1 RES1    0.0000
     48 C24       11.2175    2.6578    1.5817 C.ar      1 RES1    0.0000
     49 H25       11.9308    2.3640    2.1003 H         1 RES1    0.0000
     50 C25       11.4185    3.6527    0.6366 C.ar      1 RES1    0.0000
     51 H26       12.2686    4.0130    0.5219 H         1 RES1    0.0000
     52 C26       10.3874    4.1067   -0.1231 C.ar      1 RES1    0.0000
     53 H27       10.5269    4.7766   -0.7524 H         1 RES1    0.0000
     54 C27        9.1449    3.5673    0.0484 C.ar      1 RES1    0.0000
     55 H28        8.4359    3.8752   -0.4693 H         1 RES1    0.0000
     56 C28        8.9238    2.5656    0.9856 C.ar      1 RES1    0.0000
     57 H29        8.0712    2.2084    1.0912 H         1 RES1    0.0000
     58 C29        9.5770   -0.7372    1.2917 C.3       1 RES1    0.0000
     59 H30        9.0313   -1.4624    0.9797 H         1 RES1    0.0000
     60 H31       10.4132   -1.0815    1.6142 H         1 RES1    0.0000
     61 H32        9.7401   -0.1252    0.5693 H         1 RES1    0.0000
     62 N1         8.8850   -0.0380    2.3768 N.3       1 RES1    0.0000
     63 N2         9.4343    0.6371    6.2519 N.2       1 RES1    0.0000
     64 O1        10.3530    1.7510    6.4087 O.3       1 RES1    0.0000
     65 O2        10.5561    1.1636    8.5652 O.2       1 RES1    0.0000
@<TRIPOS>BOND
     1    1    2 1
     2    3    1 1
     3    4    3 1
     4    5    3 1
     5    6    5 1
     6    7    6 1
     7    8    6 1
     8    9    6 1
     9   10    9 1
    10   11    1 1
    11   12   11 ar
    12   13   12 1
    13   14   12 ar
    14   15   14 1
    15   16   14 ar
    16   17   16 1
    17   18   16 ar
    18   19   18 1
    19   20   11 ar
    20   21   20 1
    21   22    3 1
    22   23   22 1
    23   24   22 1
    24   25   24 1
    25   26   24 1
    26   27   24 1
    27   28   22 1
    28   29   28 1
    29   30   28 1
    30   31   28 1
    31   32   33 1
    32   33   34 ar
    33   34   35 1
    34   36   34 ar
    35   37   36 1
    36   38   36 ar
    37   39   38 1
    38   40   38 ar
    39   41   33 ar
    40   42   41 1
    41   43   40 1
    42   44   43 1
    43   45   43 1
    44   46   43 1
    45   47    9 1
    46   48   47 ar
    47   49   48 1
    48   50   48 ar
    49   51   50 1
    50   52   50 ar
    51   53   52 1
    52   54   52 ar
    53   55   54 1
    54   56   47 ar
    55   57   56 1
    56   58   59 1
    57   60   58 1
    58   61   58 1
    59   62    1 1
    60   63    5 2
    61   64   32 1
    62   65   32 2
    63    9   62 1
    64   18   20 ar
    65   40   41 ar
    66   54   56 ar
    67   58   62 1
    68   63   64 1
@<TRIPOS>SUBSTRUCTURE
     1 RES1 1

@<TRIPOS>CRYSIN
  10.7837   11.7075   12.0586 114.3520  96.2450 109.5300   2 1

