# MOL2 file generated by ConQuest
# Please check atom types

@<TRIPOS>MOLECULE
AFIYAQ
    79    80     2
SMALL
NO_CHARGES
****
Generated from CSD

@<TRIPOS>ATOM
      1 O1         3.3593    9.7869   -0.5492 O.3       1 RES1    0.0000
      2 O2         3.2606    3.0865    4.4750 O.3       1 RES1    0.0000
      3 O3        -1.3387    3.1084    9.0650 O.3       1 RES1    0.0000
      4 O4         1.5946    0.1906   -2.7500 O.2       1 RES1    0.0000
      5 O5        -0.3253    1.0112   -3.3005 O.2       1 RES1    0.0000
      6 O6         3.4819    1.0101    3.4822 Du        2 SUP2    0.0000
      7 O7         3.9769    1.5696    3.0867 O.2       1 RES1    0.0000
      8 N1         1.4263    5.3685    2.2676 N.pl3     1 RES1    0.0000
      9 N2         0.5806    0.8295   -2.4907 N.pl3     1 RES1    0.0000
     10 C1         2.3486    4.5876    2.9611 C.2       1 RES1    0.0000
     11 C2         2.1519    3.4627    3.6425 C.2       1 RES1    0.0000
     12 C3         0.9462    2.6042    3.8724 C.3       1 RES1    0.0000
     13 C4        -0.1633    2.8699    2.8435 C.3       1 RES1    0.0000
     14 C5        -0.6877    4.3043    2.8916 C.2       1 RES1    0.0000
     15 C6         0.0479    5.3507    2.5402 C.2       1 RES1    0.0000
     16 C7         1.9442    6.5178    1.5554 C.ar      1 RES1    0.0000
     17 C8         2.3164    6.3603    0.2151 C.ar      1 RES1    0.0000
     18 C9         2.8080    7.4744   -0.4690 C.ar      1 RES1    0.0000
     19 C10        2.8993    8.6990    0.1523 C.ar      1 RES1    0.0000
     20 C11        2.5358    8.8410    1.4805 C.ar      1 RES1    0.0000
     21 C12        2.0594    7.7523    2.2061 C.ar      1 RES1    0.0000
     22 C13        2.1884    5.0417   -0.4744 C.3       1 RES1    0.0000
     23 C14        1.6466    7.9452    3.6452 C.3       1 RES1    0.0000
     24 C15        3.9387    1.9652    4.2412 C.2       1 RES1    0.0000
     25 C16        4.8619    1.5608    5.3516 C.3       1 RES1    0.0000
     26 C17        5.3409    2.7315    6.1867 C.3       1 RES1    0.0000
     27 C18        6.0545    0.8330    4.7463 C.3       1 RES1    0.0000
     28 C19        4.0573    0.6023    6.2041 C.3       1 RES1    0.0000
     29 C20        0.3777    2.7255    5.2808 C.ar      1 RES1    0.0000
     30 C21        0.4419    3.9046    6.0224 C.ar      1 RES1    0.0000
     31 C22       -0.1419    4.0014    7.2637 C.ar      1 RES1    0.0000
     32 C23       -0.8075    2.9136    7.8076 C.ar      1 RES1    0.0000
     33 C24       -0.8857    1.7266    7.0980 C.ar      1 RES1    0.0000
     34 C25       -0.2812    1.6539    5.8433 C.ar      1 RES1    0.0000
     35 C26       -1.9545    1.9801    9.6622 C.3       1 RES1    0.0000
     36 C27        0.1280    2.4105    1.4177 C.ar      1 RES1    0.0000
     37 C28        1.2983    1.7469    1.0503 C.ar      1 RES1    0.0000
     38 C29        1.4620    1.2391   -0.2352 C.ar      1 RES1    0.0000
     39 C30        0.4470    1.4034   -1.1478 C.ar      1 RES1    0.0000
     40 C31       -0.7144    2.0777   -0.8191 C.ar      1 RES1    0.0000
     41 C32       -0.8618    2.5702    0.4503 C.ar      1 RES1    0.0000
     42 C33       -2.1007    4.5047    3.3633 C.3       1 RES1    0.0000
     43 H1         3.2443    4.9030    2.9437 H         1 RES1    0.0000
     44 H2         1.2206    1.7015    3.7601 H         1 RES1    0.0000
     45 H3        -0.8944    2.3321    3.1294 H         1 RES1    0.0000
     46 H4        -0.4075    6.1809    2.4640 H         1 RES1    0.0000
     47 H5         3.0833    7.3867   -1.3736 H         1 RES1    0.0000
     48 H6         2.6111    9.6901    1.9001 H         1 RES1    0.0000
     49 H7         2.6478    4.3760    0.0254 H         1 RES1    0.0000
     50 H8         2.5668    5.1001   -1.3442 H         1 RES1    0.0000
     51 H9         1.2700    4.8079   -0.5438 H         1 RES1    0.0000
     52 H10        1.7714    7.1336    4.1223 H         1 RES1    0.0000
     53 H11        2.1788    8.6278    4.0381 H         1 RES1    0.0000
     54 H12        0.7312    8.1969    3.6813 H         1 RES1    0.0000
     55 H13        5.9099    2.4146    6.8789 H         1 RES1    0.0000
     56 H14        5.8208    3.3383    5.6362 H         1 RES1    0.0000
     57 H15        4.5931    3.1746    6.5702 H         1 RES1    0.0000
     58 H16        5.7537    0.0549    4.2920 H         1 RES1    0.0000
     59 H17        6.4968    1.4071    4.1329 H         1 RES1    0.0000
     60 H18        6.6571    0.5834    5.4371 H         1 RES1    0.0000
     61 H19        3.2895    1.0488    6.5435 H         1 RES1    0.0000
     62 H20        3.7845   -0.1392    5.6763 H         1 RES1    0.0000
     63 H21        4.5916    0.2974    6.9270 H         1 RES1    0.0000
     64 H22        0.8989    4.6563    5.6629 H         1 RES1    0.0000
     65 H23       -0.0890    4.8157    7.7488 H         1 RES1    0.0000
     66 H24       -1.3434    0.9758    7.4588 H         1 RES1    0.0000
     67 H25       -0.3251    0.8373    5.3596 H         1 RES1    0.0000
     68 H26       -1.3180    1.2812    9.7518 H         1 RES1    0.0000
     69 H27       -2.6737    1.6852    9.1157 H         1 RES1    0.0000
     70 H28       -2.2868    2.2179   10.5201 H         1 RES1    0.0000
     71 H29        1.9951    1.6404    1.6863 H         1 RES1    0.0000
     72 H30        2.2608    0.7874   -0.4784 H         1 RES1    0.0000
     73 H31       -1.4005    2.1971   -1.4658 H         1 RES1    0.0000
     74 H32       -1.6595    3.0342    0.6761 H         1 RES1    0.0000
     75 H33       -2.3473    5.4150    3.2484 H         1 RES1    0.0000
     76 H34       -2.1633    4.2738    4.2826 H         1 RES1    0.0000
     77 H35       -2.6845    3.9520    2.8582 H         1 RES1    0.0000
     78 H36        3.6835    9.6227   -1.5033 H         1 RES1    0.0000
     79 H37        3.0842   10.6273   -0.1029 Du        2 SUP2    0.0000
@<TRIPOS>BOND
     1    1   19 1
     2    2   11 1
     3    3   32 1
     4    4    9 2
     5    5    9 2
     6    7   24 2
     7    8   10 1
     8    9   39 1
     9   10   11 2
    10   11   12 1
    11   12   13 1
    12   13   14 1
    13   14   15 2
    14   15    8 1
    15   16    8 1
    16   17   16 ar
    17   18   17 ar
    18   19   18 ar
    19   20   19 ar
    20   21   16 ar
    21   22   17 1
    22   23   21 1
    23   24    2 1
    24   25   24 1
    25   26   25 1
    26   27   25 1
    27   28   25 1
    28   29   12 1
    29   30   29 ar
    30   31   30 ar
    31   32   31 ar
    32   33   32 ar
    33   34   29 ar
    34   35    3 1
    35   36   13 1
    36   37   36 ar
    37   38   37 ar
    38   39   38 ar
    39   40   39 ar
    40   41   36 ar
    41   42   14 1
    42   43   10 1
    43   44   12 1
    44   45   13 1
    45   46   15 1
    46   47   18 1
    47   48   20 1
    48   49   22 1
    49   50   22 1
    50   51   22 1
    51   52   23 1
    52   53   23 1
    53   54   23 1
    54   55   26 1
    55   56   26 1
    56   57   26 1
    57   58   27 1
    58   59   27 1
    59   60   27 1
    60   61   28 1
    61   62   28 1
    62   63   28 1
    63   64   30 1
    64   65   31 1
    65   66   33 1
    66   67   34 1
    67   68   35 1
    68   69   35 1
    69   70   35 1
    70   71   37 1
    71   72   38 1
    72   73   40 1
    73   74   41 1
    74   75   42 1
    75   76   42 1
    76   77   42 1
    77   78    1 1
    78   20   21 ar
    79   33   34 ar
    80   40   41 ar
@<TRIPOS>SUBSTRUCTURE
     1 RES1 1
     2 SUP2 6

@<TRIPOS>CRYSIN
  10.0090   11.1640   14.1520  91.1770 108.7350  99.2320   2 1

