# MOL2 file generated by ConQuest
# Please check atom types

@<TRIPOS>MOLECULE
AFIZIA
    33    35     1
SMALL
NO_CHARGES
****
Generated from CSD

@<TRIPOS>ATOM
      1 O1         2.7568    9.6360    5.1791 O.2       1 RES1    0.0000
      2 O2         1.2644    5.6162    3.7073 O.2       1 RES1    0.0000
      3 O3         2.2839    7.9628    3.1866 O.3       1 RES1    0.0000
      4 N1         2.0275    7.5991    4.5029 N.am      1 RES1    0.0000
      5 C1         2.2547    8.5473    5.4887 C.2       1 RES1    0.0000
      6 C2         1.3895    6.3484    4.6529 C.2       1 RES1    0.0000
      7 C3         0.9351    6.0123    6.0414 C.3       1 RES1    0.0000
      8 C4         1.1262    6.5728    8.4740 C.ar      1 RES1    0.0000
      9 C5         1.4709    7.4155    9.4890 C.ar      1 RES1    0.0000
     10 C6         2.0820    8.6458    9.2224 C.ar      1 RES1    0.0000
     11 C7         2.3300    8.9902    7.9311 C.ar      1 RES1    0.0000
     12 C8         1.3588    6.9125    7.1397 C.ar      1 RES1    0.0000
     13 C9         1.9761    8.1440    6.8828 C.ar      1 RES1    0.0000
     14 C10        3.6113    7.5355    2.8062 C.3       1 RES1    0.0000
     15 C11        3.6466    7.5535    1.3066 C.ar      1 RES1    0.0000
     16 C12        4.2377    8.5965    0.5984 C.ar      1 RES1    0.0000
     17 C13        4.2431    8.5977   -0.7734 C.ar      1 RES1    0.0000
     18 C14        3.6635    7.5547   -1.4801 C.ar      1 RES1    0.0000
     19 C15        3.0639    6.5056   -0.7956 C.ar      1 RES1    0.0000
     20 C16        3.0585    6.5104    0.5832 C.ar      1 RES1    0.0000
     21 H1        -0.0545    5.9799    6.0386 H         1 RES1    0.0000
     22 H2         1.2560    5.1001    6.2538 H         1 RES1    0.0000
     23 H3         0.7186    5.7398    8.6795 H         1 RES1    0.0000
     24 H4         1.2943    7.1634   10.3874 H         1 RES1    0.0000
     25 H5         2.3200    9.2303    9.9333 H         1 RES1    0.0000
     26 H6         2.7514    9.8197    7.7409 H         1 RES1    0.0000
     27 H7         3.7917    6.6233    3.1463 H         1 RES1    0.0000
     28 H8         4.2922    8.1512    3.1769 H         1 RES1    0.0000
     29 H9         4.6423    9.3143    1.0705 H         1 RES1    0.0000
     30 H10        4.6461    9.3191   -1.2427 H         1 RES1    0.0000
     31 H11        3.6765    7.5571   -2.4299 H         1 RES1    0.0000
     32 H12        2.6608    5.7902   -1.2733 H         1 RES1    0.0000
     33 H13        2.6478    5.7914    1.0497 H         1 RES1    0.0000
@<TRIPOS>BOND
     1    1    5 2
     2    2    6 2
     3    3    4 1
     4    4    5 1
     5    5   13 1
     6    6    4 1
     7    7    6 1
     8    8    9 ar
     9    9   10 ar
    10   10   11 ar
    11   11   13 ar
    12   12    7 1
    13   13   12 ar
    14   14    3 1
    15   15   14 1
    16   16   15 ar
    17   17   16 ar
    18   18   17 ar
    19   19   18 ar
    20   20   15 ar
    21   21    7 1
    22   22    7 1
    23   23    8 1
    24   24    9 1
    25   25   10 1
    26   26   11 1
    27   27   14 1
    28   28   14 1
    29   29   16 1
    30   30   17 1
    31   31   18 1
    32   32   19 1
    33   33   20 1
    34    8   12 ar
    35   19   20 ar
@<TRIPOS>SUBSTRUCTURE
     1 RES1 1

@<TRIPOS>CRYSIN
   7.6770   12.0030   13.8850  90.0000  90.0000  90.0000  33 1

