# MOL2 file generated by ConQuest
# Please check atom types

@<TRIPOS>MOLECULE
AFOPAM
    50    52     1
SMALL
USER_CHARGES
****
Generated from CSD

@<TRIPOS>ATOM
      1 O1         3.6814   -2.4380    4.7416 O.2       1 RES1   -1.0000
      2 O2         6.3186   -0.3681    9.9477 O.2       1 RES1    0.0000
      3 O3         5.2816    1.4318    9.3654 O.2       1 RES1    0.0000
      4 O4         4.8753    2.7629    4.6197 O.3       1 RES1    0.0000
      5 O5         6.2522    8.5126    2.6597 O.2       1 RES1    0.0000
      6 O6         4.8821    7.9116    1.1180 O.2       1 RES1    0.0000
      7 N1         2.4111   -0.3290    4.0728 N.pl3     1 RES1    1.0000
      8 N2         5.5794    0.2506    9.1878 N.pl3     1 RES1    0.0000
      9 N3         3.2202    2.1198    2.7727 N.2       1 RES1    0.0000
     10 N4         5.5000    7.6971    2.1533 N.pl3     1 RES1    0.0000
     11 C1         1.5342    0.3395    3.1066 C.3       1 RES1    0.0000
     12 C2         2.3616    1.1503    2.0882 C.3       1 RES1    0.0000
     13 C3         3.1911    0.2549    1.1871 C.3       1 RES1    0.0000
     14 C4         2.3106   -0.7626    0.4701 C.3       1 RES1    0.0000
     15 C5         1.5029   -1.5862    1.4547 C.3       1 RES1    0.0000
     16 C6         0.6854   -0.6951    2.3784 C.3       1 RES1    0.0000
     17 C7         2.7918    0.1971    5.1868 C.2       1 RES1    0.0000
     18 C8         3.6836   -0.4674    6.0696 C.ar      1 RES1    0.0000
     19 C9         4.1096   -1.8079    5.7760 C.ar      1 RES1    0.0000
     20 C10        5.0174   -2.4205    6.6984 C.ar      1 RES1    0.0000
     21 C11        5.4663   -1.7565    7.7870 C.ar      1 RES1    0.0000
     22 C12        5.0446   -0.4455    8.0379 C.ar      1 RES1    0.0000
     23 C13        4.1676    0.1885    7.2034 C.ar      1 RES1    0.0000
     24 C14        3.3749    3.2773    2.2605 C.2       1 RES1    0.0000
     25 C15        4.2801    4.2547    2.8537 C.ar      1 RES1    0.0000
     26 C16        4.9996    3.9574    4.0257 C.ar      1 RES1    0.0000
     27 C17        5.8698    4.9063    4.5712 C.ar      1 RES1    0.0000
     28 C18        6.0300    6.1198    3.9596 C.ar      1 RES1    0.0000
     29 C19        5.3266    6.3995    2.7997 C.ar      1 RES1    0.0000
     30 C20        4.4621    5.4954    2.2500 C.ar      1 RES1    0.0000
     31 H1         0.9881    0.9789    3.6190 H         1 RES1    0.0000
     32 H2         1.6888    1.6215    1.5445 H         1 RES1    0.0000
     33 H3         3.6552    0.8418    0.5281 H         1 RES1    0.0000
     34 H4         3.8671   -0.2163    1.7648 H         1 RES1    0.0000
     35 H5         1.7239   -0.2785   -0.1648 H         1 RES1    0.0000
     36 H6         2.8868   -1.3495   -0.0615 H         1 RES1    0.0000
     37 H7         0.8921   -2.1849    0.9747 H         1 RES1    0.0000
     38 H8         2.1399   -2.1956    2.0209 H         1 RES1    0.0000
     39 H9         0.2107   -1.1995    3.0234 H         1 RES1    0.0000
     40 H10        0.0055   -0.1607    1.8561 H         1 RES1    0.0000
     41 H11        2.8031   -1.2638    3.9783 H         1 RES1    0.0000
     42 H12        2.4486    1.0592    5.4036 H         1 RES1    0.0000
     43 H13        5.3101   -3.3416    6.5074 H         1 RES1    0.0000
     44 H14        6.0567   -2.1099    8.4449 H         1 RES1    0.0000
     45 H15        3.9012    1.0732    7.3531 H         1 RES1    0.0000
     46 H16        2.8786    3.5376    1.4154 H         1 RES1    0.0000
     47 H17        4.1912    2.2063    3.9525 H         1 RES1    0.0000
     48 H18        6.3622    4.6461    5.3738 H         1 RES1    0.0000
     49 H19        6.6041    6.7742    4.2880 H         1 RES1    0.0000
     50 H20        3.9699    5.6871    1.4670 H         1 RES1    0.0000
@<TRIPOS>BOND
     1    1   19 1
     2    2    8 2
     3    3    8 2
     4    4   26 1
     5    5   10 2
     6    6   10 2
     7    7   11 1
     8    8   22 1
     9    9   12 1
    10   10   29 1
    11   11   12 1
    12   12   13 1
    13   13   14 1
    14   14   15 1
    15   15   16 1
    16   16   11 1
    17   17    7 2
    18   18   17 1
    19   19   18 ar
    20   20   19 ar
    21   21   20 ar
    22   22   21 ar
    23   23   18 ar
    24   24    9 2
    25   25   24 1
    26   26   25 ar
    27   27   26 ar
    28   28   27 ar
    29   29   28 ar
    30   30   25 ar
    31   31   11 1
    32   32   12 1
    33   33   13 1
    34   34   13 1
    35   35   14 1
    36   36   14 1
    37   37   15 1
    38   38   15 1
    39   39   16 1
    40   40   16 1
    41   41    7 1
    42   42   17 1
    43   43   20 1
    44   44   21 1
    45   45   23 1
    46   46   24 1
    47   47    4 1
    48   48   27 1
    49   49   28 1
    50   50   30 1
    51   22   23 ar
    52   29   30 ar
@<TRIPOS>SUBSTRUCTURE
     1 RES1 1

@<TRIPOS>CRYSIN
   9.1865   10.7102   19.8650  90.0000  92.0990  90.0000 231 1

