# MOL2 file generated by ConQuest
# Please check atom types

@<TRIPOS>MOLECULE
AFURAW
    51    49     2
SMALL
NO_CHARGES
****
Generated from CSD

@<TRIPOS>ATOM
      1 O1         0.0533    7.8144    3.0985 O.3       1 RES1    0.0000
      2 N1         0.3867    6.4101    3.1528 N.3       1 RES1    0.0000
      3 C1        -0.4374    5.6461    2.1567 C.3       1 RES1    0.0000
      4 C2        -1.8098    6.2600    1.9273 C.ar      1 RES1    0.0000
      5 C3        -2.9471    6.2017    2.7242 C.ar      1 RES1    0.0000
      6 H1        -2.9446    5.7001    3.5068 H         1 RES1    0.0000
      7 C4        -4.0782    6.8926    2.3468 C.ar      1 RES1    0.0000
      8 H2        -4.8393    6.8545    2.8809 H         1 RES1    0.0000
      9 C5        -4.0952    7.6242    1.2105 C.ar      1 RES1    0.0000
     10 H3        -4.8582    8.1042    0.9847 H         1 RES1    0.0000
     11 C6        -2.9973    7.6651    0.3846 C.ar      1 RES1    0.0000
     12 H4        -3.0199    8.1501   -0.4083 H         1 RES1    0.0000
     13 C7        -1.8465    6.9669    0.7552 C.ar      1 RES1    0.0000
     14 C8        -0.5495    6.8512    0.0309 C.3       1 RES1    0.0000
     15 H5        -0.0447    7.6777    0.0856 H         1 RES1    0.0000
     16 H6        -0.6908    6.6294   -0.9032 H         1 RES1    0.0000
     17 C9         0.1739    5.7187    0.7587 C.3       1 RES1    0.0000
     18 H7         0.0481    4.8785    0.2897 H         1 RES1    0.0000
     19 H8         1.1244    5.9037    0.8135 H         1 RES1    0.0000
     20 C10       -0.4477    4.2504    2.8067 C.3       1 RES1    0.0000
     21 H9        -1.3387    3.8681    2.7695 H         1 RES1    0.0000
     22 H10        0.1617    3.6572    2.3396 H         1 RES1    0.0000
     23 C11       -0.0105    4.4283    4.2450 C.3       1 RES1    0.0000
     24 H11       -0.6307    3.9912    4.8493 H         1 RES1    0.0000
     25 H12        0.8751    4.0581    4.3832 H         1 RES1    0.0000
     26 C12       -0.0057    5.9166    4.4698 C.3       1 RES1    0.0000
     27 C13        1.2091    8.5660    2.7046 C.3       1 RES1    0.0000
     28 H13        1.5215    8.2744    1.8333 H         1 RES1    0.0000
     29 H14        1.9259    8.4447    3.3470 H         1 RES1    0.0000
     30 C14        0.7894   10.0062    2.6551 C.ar      1 RES1    0.0000
     31 C15       -0.2328   10.4223    1.8199 C.ar      1 RES1    0.0000
     32 H15       -0.6678    9.8000    1.2827 H         1 RES1    0.0000
     33 C16       -0.6156   11.7444    1.7735 C.ar      1 RES1    0.0000
     34 H16       -1.3015   12.0064    1.2033 H         1 RES1    0.0000
     35 C17        0.0088   12.6779    2.5592 C.ar      1 RES1    0.0000
     36 H17       -0.2508   13.5706    2.5262 H         1 RES1    0.0000
     37 C18        1.0135   12.2807    3.3913 C.ar      1 RES1    0.0000
     38 H18        1.4387   12.9083    3.9295 H         1 RES1    0.0000
     39 C19        1.4068   10.9642    3.4439 C.ar      1 RES1    0.0000
     40 H19        2.0953   10.7135    4.0172 H         1 RES1    0.0000
     41 N2         3.2171    5.5208    5.2617 N.1       1 RES1    0.0000
     42 C20        1.0834    6.6649    5.4906 C.3       1 RES1    0.0000
     43 H20        1.0354    7.6222    5.3452 H         1 RES1    0.0000
     44 H21        0.8131    6.4944    6.4073 H         1 RES1    0.0000
     45 C21        2.4911    6.2351    5.3277 C.1       1 RES1    0.0000
     46 H22       -0.8856    6.2878    4.6812 H         1 RES1    0.0000
     47 N3         3.5884    5.9526    5.1473 Du        2 SUP2    0.0000
     48 C22        0.7274    6.1166    5.6391 Du        2 SUP2    0.0000
     49 H23        0.3610    5.5756    6.3547 Du        2 SUP2    0.0000
     50 H24        0.6770    7.0478    5.9051 Du        2 SUP2    0.0000
     51 C23        2.0708    5.7571    5.4061 Du        2 SUP2    0.0000
@<TRIPOS>BOND
     1    1    2 1
     2    2    3 1
     3    3    4 1
     4    4    5 ar
     5    5    6 1
     6    7    5 ar
     7    8    7 1
     8    9    7 ar
     9   10    9 1
    10   11    9 ar
    11   12   11 1
    12   13    4 ar
    13   14   13 1
    14   15   14 1
    15   16   14 1
    16   17    3 1
    17   18   17 1
    18   19   17 1
    19   20    3 1
    20   21   20 1
    21   22   20 1
    22   23   20 1
    23   24   23 1
    24   25   23 1
    25   26    2 1
    26   27    1 1
    27   28   27 1
    28   29   27 1
    29   30   27 1
    30   31   30 ar
    31   32   31 1
    32   33   31 ar
    33   34   33 1
    34   35   33 ar
    35   36   35 1
    36   37   35 ar
    37   38   37 1
    38   39   30 ar
    39   40   39 1
    40   41   45 3
    41   42   26 1
    42   43   42 1
    43   44   42 1
    44   45   42 1
    45   46   26 1
    46   11   13 ar
    47   14   17 1
    48   23   26 1
    49   37   39 ar
@<TRIPOS>SUBSTRUCTURE
     1 RES1 1
     2 SUP2 47

@<TRIPOS>CRYSIN
   9.1688   10.0800   11.4141  98.8260 108.7770 110.4030   2 1

