# MOL2 file generated by ConQuest
# Please check atom types

@<TRIPOS>MOLECULE
AFUSEB
    43    44     1
SMALL
NO_CHARGES
****
Generated from CSD

@<TRIPOS>ATOM
      1 O1         7.6169    6.6998    6.9802 O.2       1 RES1    0.0000
      2 O2         9.5445    5.9358    7.6202 O.2       1 RES1    0.0000
      3 O3        10.3625    1.3137    8.1099 O.2       1 RES1    0.0000
      4 O4         8.8931   -0.1384    7.4478 O.2       1 RES1    0.0000
      5 O5         1.7405    7.3147    4.4869 O.3       1 RES1    0.0000
      6 O6        -0.9737    3.7411    2.6038 O.3       1 RES1    0.0000
      7 O7         0.7992    2.0100    3.2742 O.3       1 RES1    0.0000
      8 N1         5.7677    5.0805    6.0114 N.pl3     1 RES1    0.0000
      9 H1         5.8758    5.9289    6.2486 H         1 RES1    0.0000
     10 N2         4.5965    4.6432    5.4222 N.2       1 RES1    0.0000
     11 N3         8.4068    5.7578    7.1958 N.pl3     1 RES1    0.0000
     12 N4         9.3028    1.0243    7.5602 N.pl3     1 RES1    0.0000
     13 C1         6.7046    4.1415    6.2978 C.ar      1 RES1    0.0000
     14 C2         7.9604    4.4122    6.9130 C.ar      1 RES1    0.0000
     15 C3         8.8163    3.3939    7.2971 C.ar      1 RES1    0.0000
     16 H2         9.6221    3.5905    7.7183 H         1 RES1    0.0000
     17 C4         8.4662    2.0959    7.0501 C.ar      1 RES1    0.0000
     18 C5         7.2966    1.7900    6.3512 C.ar      1 RES1    0.0000
     19 H3         7.0997    0.9059    6.1400 H         1 RES1    0.0000
     20 C6         6.4461    2.7824    5.9798 C.ar      1 RES1    0.0000
     21 H4         5.6760    2.5657    5.5058 H         1 RES1    0.0000
     22 C7         3.6867    5.5238    5.1920 C.2       1 RES1    0.0000
     23 H5         3.8081    6.4120    5.4387 H         1 RES1    0.0000
     24 C8         2.4573    5.0867    4.5300 C.ar      1 RES1    0.0000
     25 C9         1.4749    6.0166    4.1757 C.ar      1 RES1    0.0000
     26 C10        0.3045    5.5991    3.5275 C.ar      1 RES1    0.0000
     27 H6        -0.3436    6.2223    3.2892 H         1 RES1    0.0000
     28 C11        0.1162    4.2569    3.2427 C.ar      1 RES1    0.0000
     29 C12        1.0923    3.3085    3.6084 C.ar      1 RES1    0.0000
     30 C13        2.2386    3.7330    4.2330 C.ar      1 RES1    0.0000
     31 H7         2.8871    3.1074    4.4652 H         1 RES1    0.0000
     32 C14        0.7713    8.3080    4.1581 C.3       1 RES1    0.0000
     33 H8         1.0721    9.1642    4.4692 H         1 RES1    0.0000
     34 H9        -0.0650    8.0913    4.5779 H         1 RES1    0.0000
     35 H10        0.6527    8.3366    3.2061 H         1 RES1    0.0000
     36 C15       -2.0127    4.6524    2.2095 C.3       1 RES1    0.0000
     37 H11       -2.6885    4.1758    1.7217 H         1 RES1    0.0000
     38 H12       -1.6403    5.3405    1.6520 H         1 RES1    0.0000
     39 H13       -2.4036    5.0501    2.9916 H         1 RES1    0.0000
     40 C16        1.6944    1.0064    3.7654 C.3       1 RES1    0.0000
     41 H14        1.3686    0.1384    3.5172 H         1 RES1    0.0000
     42 H15        1.7487    1.0669    4.7213 H         1 RES1    0.0000
     43 H16        2.5658    1.1421    3.3858 H         1 RES1    0.0000
@<TRIPOS>BOND
     1    1   11 2
     2    2   11 2
     3    3   12 2
     4    4   12 2
     5    5   25 1
     6    6   28 1
     7    7   29 1
     8    8    9 1
     9   10    8 1
    10   11   14 1
    11   12   17 1
    12   13    8 1
    13   14   13 ar
    14   15   14 ar
    15   16   15 1
    16   17   15 ar
    17   18   17 ar
    18   19   18 1
    19   20   13 ar
    20   21   20 1
    21   22   10 2
    22   23   22 1
    23   24   22 1
    24   25   24 ar
    25   26   25 ar
    26   27   26 1
    27   28   26 ar
    28   29   28 ar
    29   30   24 ar
    30   31   30 1
    31   32    5 1
    32   33   32 1
    33   34   32 1
    34   35   32 1
    35   36    6 1
    36   37   36 1
    37   38   36 1
    38   39   36 1
    39   40    7 1
    40   41   40 1
    41   42   40 1
    42   43   40 1
    43   18   20 ar
    44   29   30 ar
@<TRIPOS>SUBSTRUCTURE
     1 RES1 1

@<TRIPOS>CRYSIN
   8.0273   15.0480   13.6860  90.0000 101.5460  90.0000  14 1

