# MOL2 file generated by ConQuest
# Please check atom types

@<TRIPOS>MOLECULE
AFZPYM
    13    14     1
SMALL
NO_CHARGES
****
Generated from CSD

@<TRIPOS>ATOM
      1 C1         1.2188    4.4044   -2.5127 C.2       1 RES1    0.0000
      2 C2         1.9045    2.3480   -2.0141 C.2       1 RES1    0.0000
      3 C3         2.3525    2.7668   -0.7367 C.2       1 RES1    0.0000
      4 C4         2.1529    4.1714   -0.3895 C.2       1 RES1    0.0000
      5 H1         0.8608    5.0413   -3.1426 H         1 RES1    0.0000
      6 H2         2.3657    5.4725    0.8727 H         1 RES1    0.0000
      7 H3         2.7959    4.0717    1.2868 H         1 RES1    0.0000
      8 N1         1.6082    4.9416   -1.3173 N.2       1 RES1    0.0000
      9 N2         1.3280    3.1644   -2.9385 N.2       1 RES1    0.0000
     10 N3         2.4849    4.6313    0.7777 N.pl3     1 RES1    0.0000
     11 N4         2.8623    1.7710   -0.0821 N.2       1 RES1    0.0000
     12 N5         2.1626    0.6730   -2.1455 N.2       1 RES1    0.0000
     13 O1         2.7621    0.7104   -0.9455 O.3       1 RES1    0.0000
@<TRIPOS>BOND
     1    1    5 1
     2    2    3 1
     3    3    4 1
     4    4    8 2
     5    6   10 1
     6    7   10 1
     7    8    1 1
     8    9    1 2
     9   10    4 1
    10   11    3 2
    11   12    2 2
    12   13   11 1
    13    2    9 1
    14   12   13 1
@<TRIPOS>SUBSTRUCTURE
     1 RES1 1

@<TRIPOS>CRYSIN
   3.7030   12.4630   11.9890  90.0000 101.9200  90.0000  14 1

