# MOL2 file generated by ConQuest
# Please check atom types

@<TRIPOS>MOLECULE
AGESAG
    51    56     1
SMALL
NO_CHARGES
****
Generated from CSD

@<TRIPOS>ATOM
      1 O1         2.8420    6.0868   -0.2491 O.3       1 RES1    0.0000
      2 O2         0.8627    7.5795    1.3159 O.2       1 RES1    0.0000
      3 O3         4.2423   11.8694    5.7355 O.2       1 RES1    0.0000
      4 O4         2.3600   10.9878    6.3343 O.2       1 RES1    0.0000
      5 N1         3.5341    5.5978    1.8608 N.2       1 RES1    0.0000
      6 N2         3.3791   11.0003    5.6520 N.pl3     1 RES1    0.0000
      7 C1         3.1121    7.3778    0.3358 C.3       1 RES1    0.0000
      8 C2         3.0176    5.1820    0.7766 C.2       1 RES1    0.0000
      9 C3         3.9377    6.9939    1.5972 C.3       1 RES1    0.0000
     10 H1         4.8994    6.9764    1.3269 H         1 RES1    0.0000
     11 C4         3.7742    8.3289   -0.6213 C.ar      1 RES1    0.0000
     12 C5         4.9694    8.2880   -1.2784 C.ar      1 RES1    0.0000
     13 H2         5.5511    7.5431   -1.1804 H         1 RES1    0.0000
     14 C6         5.3265    9.3755   -2.1079 C.ar      1 RES1    0.0000
     15 H3         6.1501    9.3396   -2.5790 H         1 RES1    0.0000
     16 C7         4.5283   10.4793   -2.2572 C.ar      1 RES1    0.0000
     17 H4         4.8026   11.1867   -2.8294 H         1 RES1    0.0000
     18 C8         3.2960   10.5712   -1.5628 C.ar      1 RES1    0.0000
     19 C9         2.3644   11.6346   -1.5628 C.ar      1 RES1    0.0000
     20 H5         2.5472   12.4151   -2.0729 H         1 RES1    0.0000
     21 C10        1.2006   11.5617   -0.8396 C.ar      1 RES1    0.0000
     22 H6         0.6013   12.2987   -0.8583 H         1 RES1    0.0000
     23 C11        0.8640   10.4284   -0.0690 C.ar      1 RES1    0.0000
     24 H7         0.0438   10.3857    0.4073 H         1 RES1    0.0000
     25 C12        1.7587    9.3916   -0.0305 C.ar      1 RES1    0.0000
     26 C13        2.9534    9.4665   -0.7614 C.ar      1 RES1    0.0000
     27 C14        1.7404    8.0758    0.6517 C.2       1 RES1    0.0000
     28 C15        2.6314    3.8065    0.4288 C.ar      1 RES1    0.0000
     29 C16        2.4865    3.4419   -0.9069 C.ar      1 RES1    0.0000
     30 H8         2.6051    4.0955   -1.5867 H         1 RES1    0.0000
     31 C17        2.1722    2.1436   -1.2562 C.ar      1 RES1    0.0000
     32 H9         2.0942    1.9084   -2.1737 H         1 RES1    0.0000
     33 C18        1.9698    1.1821   -0.2826 C.ar      1 RES1    0.0000
     34 C19        2.0905    1.5547    1.0508 C.ar      1 RES1    0.0000
     35 H10        1.9314    0.9082    1.7290 H         1 RES1    0.0000
     36 C20        2.4363    2.8454    1.4158 C.ar      1 RES1    0.0000
     37 H11        2.5392    3.0724    2.3327 H         1 RES1    0.0000
     38 C21        1.6292   -0.2371   -0.6775 C.3       1 RES1    0.0000
     39 H12        1.5311   -0.7857    0.1288 H         1 RES1    0.0000
     40 H13        2.3468   -0.6019   -1.2355 H         1 RES1    0.0000
     41 H14        0.7892   -0.2435   -1.1814 H         1 RES1    0.0000
     42 C22        3.8125    7.9733    2.7351 C.ar      1 RES1    0.0000
     43 C23        2.8524    7.8430    3.7356 C.ar      1 RES1    0.0000
     44 H15        2.2893    7.0775    3.7542 H         1 RES1    0.0000
     45 C24        2.7144    8.8232    4.7026 C.ar      1 RES1    0.0000
     46 H16        2.0538    8.7423    5.3814 H         1 RES1    0.0000
     47 C25        3.5543    9.9230    4.6645 C.ar      1 RES1    0.0000
     48 C26        4.5298   10.0736    3.7042 C.ar      1 RES1    0.0000
     49 H17        5.1035   10.8299    3.7043 H         1 RES1    0.0000
     50 C27        4.6489    9.0881    2.7383 C.ar      1 RES1    0.0000
     51 H18        5.3138    9.1742    2.0646 H         1 RES1    0.0000
@<TRIPOS>BOND
     1    1    7 1
     2    2   27 2
     3    3    6 2
     4    4    6 2
     5    5    8 2
     6    6   47 1
     7    7    9 1
     8    8    1 1
     9    9    5 1
    10   10    9 1
    11   11    7 1
    12   12   11 ar
    13   13   12 1
    14   14   12 ar
    15   15   14 1
    16   16   14 ar
    17   17   16 1
    18   18   16 ar
    19   19   18 ar
    20   20   19 1
    21   21   19 ar
    22   22   21 1
    23   23   21 ar
    24   24   23 1
    25   25   23 ar
    26   26   11 ar
    27   27    7 1
    28   28    8 1
    29   29   28 ar
    30   30   29 1
    31   31   29 ar
    32   32   31 1
    33   33   31 ar
    34   34   33 ar
    35   35   34 1
    36   36   28 ar
    37   37   36 1
    38   38   33 1
    39   39   38 1
    40   40   38 1
    41   41   38 1
    42   42    9 1
    43   43   42 ar
    44   44   43 1
    45   45   43 ar
    46   46   45 1
    47   47   45 ar
    48   48   47 ar
    49   49   48 1
    50   50   42 ar
    51   51   50 1
    52   18   26 ar
    53   25   26 ar
    54   25   27 1
    55   34   36 ar
    56   48   50 ar
@<TRIPOS>SUBSTRUCTURE
     1 RES1 1

@<TRIPOS>CRYSIN
  12.9483   15.3159   11.5138  90.0000 115.5170  90.0000  14 1

