# MOL2 file generated by ConQuest
# Please check atom types

@<TRIPOS>MOLECULE
AGEXEQ
    52    54     1
SMALL
NO_CHARGES
****
Generated from CSD

@<TRIPOS>ATOM
      1 O1        10.3120    2.9430    9.9706 O.2       1 RES1    0.0000
      2 O2        11.3242    0.0618   11.6055 O.3       1 RES1    0.0000
      3 O3        13.4699   -0.3100   11.2404 O.2       1 RES1    0.0000
      4 O4        12.5439    2.6624   12.4252 O.2       1 RES1    0.0000
      5 N1        10.3522    1.0048   11.1744 N.am      1 RES1    0.0000
      6 N2        14.0191    4.3062   11.9069 N.am      1 RES1    0.0000
      7 H1        14.4565    4.6420   11.2420 H         1 RES1    0.0000
      8 C1        10.9186    1.9811   10.3849 C.2       1 RES1    0.0000
      9 C2        12.3431    1.5459   10.0828 C.3       1 RES1    0.0000
     10 H2        12.3626    1.2015    9.1656 H         1 RES1    0.0000
     11 C3        12.5279    0.3785   11.0134 C.2       1 RES1    0.0000
     12 C4        13.4047    2.6712   10.1874 C.3       1 RES1    0.0000
     13 C5        13.2722    3.2316   11.6148 C.2       1 RES1    0.0000
     14 C6        14.1263    4.9367   13.2452 C.3       1 RES1    0.0000
     15 C7        12.7776    5.5101   13.6570 C.3       1 RES1    0.0000
     16 H3        12.1421    4.7969   13.7504 H         1 RES1    0.0000
     17 H4        12.4724    6.1245   12.9840 H         1 RES1    0.0000
     18 H5        12.8677    5.9714   14.4934 H         1 RES1    0.0000
     19 C8        14.6376    3.9195   14.2507 C.3       1 RES1    0.0000
     20 H6        15.4858    3.5774   13.9577 H         1 RES1    0.0000
     21 H7        14.0100    3.1973   14.3233 H         1 RES1    0.0000
     22 H8        14.7410    4.3412   15.1073 H         1 RES1    0.0000
     23 C9        15.1400    6.0634   13.0867 C.3       1 RES1    0.0000
     24 H9        15.9877    5.6976   12.8237 H         1 RES1    0.0000
     25 H10       15.2375    6.5262   13.9225 H         1 RES1    0.0000
     26 H11       14.8337    6.6775   12.4151 H         1 RES1    0.0000
     27 C10       14.8407    2.1142    9.9917 C.3       1 RES1    0.0000
     28 H12       15.4805    2.8209   10.1765 H         1 RES1    0.0000
     29 H13       14.9924    1.4032   10.6340 H         1 RES1    0.0000
     30 C11       15.0893    1.5758    8.5871 C.3       1 RES1    0.0000
     31 H14       16.0100    1.2807    8.5107 H         1 RES1    0.0000
     32 H15       14.5140    0.8106    8.4266 H         1 RES1    0.0000
     33 C12       14.8117    2.6499    7.5439 C.3       1 RES1    0.0000
     34 H16       14.9136    2.2715    6.6572 H         1 RES1    0.0000
     35 H17       15.4581    3.3667    7.6406 H         1 RES1    0.0000
     36 C13       13.4036    3.2146    7.6940 C.3       1 RES1    0.0000
     37 H18       13.2779    3.9359    7.0580 H         1 RES1    0.0000
     38 H19       12.7569    2.5200    7.4921 H         1 RES1    0.0000
     39 C14       13.1585    3.7372    9.1033 C.3       1 RES1    0.0000
     40 H20       12.2422    4.0494    9.1696 H         1 RES1    0.0000
     41 H21       13.7425    4.4943    9.2654 H         1 RES1    0.0000
     42 C15        9.2279    1.0801   12.0456 C.ar      1 RES1    0.0000
     43 C16        9.2322    0.3860   13.2528 C.ar      1 RES1    0.0000
     44 H22        9.9683   -0.1261   13.5021 H         1 RES1    0.0000
     45 C17        8.1184    0.4710   14.0787 C.ar      1 RES1    0.0000
     46 H23        8.1089    0.0090   14.8864 H         1 RES1    0.0000
     47 C18        7.0268    1.2307   13.7182 C.ar      1 RES1    0.0000
     48 H24        6.2943    1.2988   14.2861 H         1 RES1    0.0000
     49 C19        7.0289    1.8928   12.5029 C.ar      1 RES1    0.0000
     50 H25        6.2889    2.3976   12.2548 H         1 RES1    0.0000
     51 C20        8.1149    1.8139   11.6524 C.ar      1 RES1    0.0000
     52 H26        8.1015    2.2462   10.8295 H         1 RES1    0.0000
@<TRIPOS>BOND
     1    1    8 2
     2    2    5 1
     3    3   11 2
     4    4   13 2
     5    5    8 1
     6    6    7 1
     7    8    9 1
     8    9   10 1
     9   11    2 1
    10   12    9 1
    11   13    6 1
    12   14    6 1
    13   15   14 1
    14   16   15 1
    15   17   15 1
    16   18   15 1
    17   19   14 1
    18   20   19 1
    19   21   19 1
    20   22   19 1
    21   23   14 1
    22   24   23 1
    23   25   23 1
    24   26   23 1
    25   27   12 1
    26   28   27 1
    27   29   27 1
    28   30   27 1
    29   31   30 1
    30   32   30 1
    31   33   30 1
    32   34   33 1
    33   35   33 1
    34   36   33 1
    35   37   36 1
    36   38   36 1
    37   39   12 1
    38   40   39 1
    39   41   39 1
    40   42    5 1
    41   43   42 ar
    42   44   43 1
    43   45   43 ar
    44   46   45 1
    45   47   45 ar
    46   48   47 1
    47   49   47 ar
    48   50   49 1
    49   51   42 ar
    50   52   51 1
    51    9   11 1
    52   12   13 1
    53   36   39 1
    54   49   51 ar
@<TRIPOS>SUBSTRUCTURE
     1 RES1 1

@<TRIPOS>CRYSIN
  10.6556   18.0132   19.5513  90.0000  90.0000  90.0000  61 1

