# MOL2 file generated by ConQuest
# Please check atom types

@<TRIPOS>MOLECULE
AGISUG
    84    89     1
SMALL
NO_CHARGES
****
Generated from CSD

@<TRIPOS>ATOM
      1 N1        -0.2843    8.2481    4.0561 N.3       1 RES1    0.0000
      2 N2         1.0065    9.8831    3.2215 N.2       1 RES1    0.0000
      3 O1         4.5812    9.2697   -0.0537 O.3       1 RES1    0.0000
      4 O2         0.5945    3.5587    2.0504 O.3       1 RES1    0.0000
      5 O3        -0.7711    7.0905    4.2526 O.2       1 RES1    0.0000
      6 C1         1.5164    4.0921    1.1781 C.ar      1 RES1    0.0000
      7 C2         1.8519    5.4884    1.3214 C.ar      1 RES1    0.0000
      8 C3         1.1628    6.3112    2.2294 C.ar      1 RES1    0.0000
      9 C4         1.4945    7.6689    2.3271 C.ar      1 RES1    0.0000
     10 C5         2.5316    8.2007    1.5545 C.ar      1 RES1    0.0000
     11 C6         3.2187    7.4085    0.6335 C.ar      1 RES1    0.0000
     12 C7         2.8608    6.0346    0.4925 C.ar      1 RES1    0.0000
     13 C8         4.2282    7.9520   -0.2363 C.ar      1 RES1    0.0000
     14 C9         4.1316   10.1459   -1.0963 C.3       1 RES1    0.0000
     15 C10       -0.7045    3.4204    1.4713 C.3       1 RES1    0.0000
     16 C11        0.7564    8.6143    3.1943 C.2       1 RES1    0.0000
     17 C12       -0.6151    9.4119    4.9386 C.3       1 RES1    0.0000
     18 C13        0.1474    9.1834    6.2464 C.3       1 RES1    0.0000
     19 C14       -2.1106    9.4716    5.2025 C.3       1 RES1    0.0000
     20 C15       -0.0129   10.5553    4.0718 C.3       1 RES1    0.0000
     21 C16       -1.0439   11.1533    3.1013 C.3       1 RES1    0.0000
     22 C17        0.6481   11.6691    4.8749 C.3       1 RES1    0.0000
     23 H1         0.4722    5.9471    2.7706 H         1 RES1    0.0000
     24 H2         2.7731    9.1138    1.6602 H         1 RES1    0.0000
     25 H3         4.4082   11.0346   -0.9044 H         1 RES1    0.0000
     26 H4         4.5037    9.8720   -1.9256 H         1 RES1    0.0000
     27 H5         3.1834   10.1130   -1.1486 H         1 RES1    0.0000
     28 H6        -1.2999    3.0496    2.1124 H         1 RES1    0.0000
     29 H7        -1.0220    4.2741    1.1995 H         1 RES1    0.0000
     30 H8        -0.6548    2.8468    0.7155 H         1 RES1    0.0000
     31 H9        -0.0317    9.8967    6.8489 H         1 RES1    0.0000
     32 H10        1.0796    9.1453    6.0676 H         1 RES1    0.0000
     33 H11       -0.1341    8.3635    6.6345 H         1 RES1    0.0000
     34 H12       -2.3060   10.2133    5.7640 H         1 RES1    0.0000
     35 H13       -2.5713    9.5689    4.3777 H         1 RES1    0.0000
     36 H14       -2.3904    8.6699    5.6282 H         1 RES1    0.0000
     37 H15       -1.7242   11.6001    3.5922 H         1 RES1    0.0000
     38 H16       -0.6121   11.7713    2.5243 H         1 RES1    0.0000
     39 H17       -1.4313   10.4555    2.5859 H         1 RES1    0.0000
     40 H18       -0.0008   12.0991    5.4201 H         1 RES1    0.0000
     41 H19        1.0323   12.3019    4.2800 H         1 RES1    0.0000
     42 H20        1.3281   11.2993    5.4243 H         1 RES1    0.0000
     43 N1B        6.6367    3.0174   -4.0561 N.3       1 RES1    0.0000
     44 N2B        5.3459    1.3824   -3.2215 N.2       1 RES1    0.0000
     45 O1B        1.7712    1.9958    0.0537 O.3       1 RES1    0.0000
     46 O2B        5.7579    7.7068   -2.0504 O.3       1 RES1    0.0000
     47 O3B        7.1235    4.1750   -4.2526 O.2       1 RES1    0.0000
     48 C1B        4.8360    7.1734   -1.1781 C.ar      1 RES1    0.0000
     49 C2B        4.5005    5.7771   -1.3214 C.ar      1 RES1    0.0000
     50 C3B        5.1896    4.9543   -2.2294 C.ar      1 RES1    0.0000
     51 C4B        4.8579    3.5966   -2.3271 C.ar      1 RES1    0.0000
     52 C5B        3.8208    3.0648   -1.5545 C.ar      1 RES1    0.0000
     53 C6B        3.1337    3.8570   -0.6335 C.ar      1 RES1    0.0000
     54 C7B        3.4916    5.2309   -0.4925 C.ar      1 RES1    0.0000
     55 C8B        2.1242    3.3135    0.2363 C.ar      1 RES1    0.0000
     56 C9B        2.2208    1.1196    1.0963 C.3       1 RES1    0.0000
     57 C10B       7.0569    7.8451   -1.4713 C.3       1 RES1    0.0000
     58 C11B       5.5960    2.6512   -3.1943 C.2       1 RES1    0.0000
     59 C12B       6.9675    1.8536   -4.9386 C.3       1 RES1    0.0000
     60 C13B       6.2050    2.0821   -6.2464 C.3       1 RES1    0.0000
     61 C14B       8.4630    1.7939   -5.2025 C.3       1 RES1    0.0000
     62 C15B       6.3653    0.7102   -4.0718 C.3       1 RES1    0.0000
     63 C16B       7.3963    0.1122   -3.1013 C.3       1 RES1    0.0000
     64 C17B       5.7043   -0.4036   -4.8749 C.3       1 RES1    0.0000
     65 H1B        5.8802    5.3184   -2.7706 H         1 RES1    0.0000
     66 H2B        3.5793    2.1517   -1.6602 H         1 RES1    0.0000
     67 H3B        1.9442    0.2309    0.9044 H         1 RES1    0.0000
     68 H4B        1.8487    1.3935    1.9256 H         1 RES1    0.0000
     69 H5B        3.1690    1.1525    1.1486 H         1 RES1    0.0000
     70 H6B        7.6523    8.2159   -2.1124 H         1 RES1    0.0000
     71 H7B        7.3744    6.9914   -1.1995 H         1 RES1    0.0000
     72 H8B        7.0072    8.4187   -0.7155 H         1 RES1    0.0000
     73 H9B        6.3841    1.3688   -6.8489 H         1 RES1    0.0000
     74 H10B       5.2728    2.1202   -6.0676 H         1 RES1    0.0000
     75 H11B       6.4865    2.9020   -6.6345 H         1 RES1    0.0000
     76 H12B       8.6584    1.0522   -5.7640 H         1 RES1    0.0000
     77 H13B       8.9237    1.6966   -4.3777 H         1 RES1    0.0000
     78 H14B       8.7428    2.5956   -5.6282 H         1 RES1    0.0000
     79 H15B       8.0766   -0.3346   -3.5922 H         1 RES1    0.0000
     80 H16B       6.9645   -0.5058   -2.5243 H         1 RES1    0.0000
     81 H17B       7.7837    0.8100   -2.5859 H         1 RES1    0.0000
     82 H18B       6.3532   -0.8336   -5.4201 H         1 RES1    0.0000
     83 H19B       5.3201   -1.0364   -4.2800 H         1 RES1    0.0000
     84 H20B       5.0243   -0.0338   -5.4243 H         1 RES1    0.0000
@<TRIPOS>BOND
     1    1    5 1
     2    2   16 2
     3    3   13 1
     4    4    6 1
     5    6    7 ar
     6    7    8 ar
     7    8    9 ar
     8    9   10 ar
     9   10   11 ar
    10   11   12 ar
    11   12    7 ar
    12   13   11 ar
    13   14    3 1
    14   15    4 1
    15   16    1 1
    16   17    1 1
    17   18   17 1
    18   19   17 1
    19   20    2 1
    20   21   20 1
    21   22   20 1
    22   23    8 1
    23   24   10 1
    24   25   14 1
    25   26   14 1
    26   27   14 1
    27   28   15 1
    28   29   15 1
    29   30   15 1
    30   31   18 1
    31   32   18 1
    32   33   18 1
    33   34   19 1
    34   35   19 1
    35   36   19 1
    36   37   21 1
    37   38   21 1
    38   39   21 1
    39   40   22 1
    40   41   22 1
    41   42   22 1
    42   43   47 1
    43   44   58 2
    44   45   55 1
    45   46   48 1
    46   48   13 ar
    47   49   48 ar
    48   50   49 ar
    49   51   50 ar
    50   52   51 ar
    51   53   52 ar
    52   54   12 ar
    53   55    6 ar
    54   56   45 1
    55   57   46 1
    56   58   43 1
    57   59   43 1
    58   60   59 1
    59   61   59 1
    60   62   44 1
    61   63   62 1
    62   64   62 1
    63   65   50 1
    64   66   52 1
    65   67   56 1
    66   68   56 1
    67   69   56 1
    68   70   57 1
    69   71   57 1
    70   72   57 1
    71   73   60 1
    72   74   60 1
    73   75   60 1
    74   76   61 1
    75   77   61 1
    76   78   61 1
    77   79   63 1
    78   80   63 1
    79   81   63 1
    80   82   64 1
    81   83   64 1
    82   84   64 1
    83    9   16 1
    84   17   20 1
    85   49   54 ar
    86   51   58 1
    87   53   54 ar
    88   53   55 ar
    89   59   62 1
@<TRIPOS>SUBSTRUCTURE
     1 RES1 1

@<TRIPOS>CRYSIN
   6.3524   11.2655   21.2306  90.0000  90.2971  90.0000 231 1

