# MOL2 file generated by ConQuest
# Please check atom types

@<TRIPOS>MOLECULE
AGITAN
    86    91     1
SMALL
NO_CHARGES
****
Generated from CSD

@<TRIPOS>ATOM
      1 N1         3.3722    2.5398    4.1496 N.2       1 RES1    0.0000
      2 N2         2.1120    4.2096    3.4059 N.2       1 RES1    0.0000
      3 O1         2.6601   -2.0528    1.9688 O.3       1 RES1    0.0000
      4 O2        -1.5269    3.5823    0.1025 O.3       1 RES1    0.0000
      5 C1         1.7281   -1.5193    1.1097 C.2       1 RES1    0.0000
      6 C2         1.3452   -0.1437    1.3040 C.2       1 RES1    0.0000
      7 C3         1.6289    2.0082    2.3921 C.2       1 RES1    0.0000
      8 C4        -0.1010    1.7386    0.7083 C.2       1 RES1    0.0000
      9 C5         0.3047    0.3967    0.5036 C.2       1 RES1    0.0000
     10 C6        -1.1396    2.2858   -0.1363 C.2       1 RES1    0.0000
     11 C7         2.3469    2.9136    3.3011 C.2       1 RES1    0.0000
     12 C8         3.7131    3.6723    5.0769 C.3       1 RES1    0.0000
     13 C9         3.1621    4.8621    4.2521 C.3       1 RES1    0.0000
     14 C10        2.0118    0.6699    2.2289 C.2       1 RES1    0.0000
     15 C11        0.5573    2.5279    1.6493 C.2       1 RES1    0.0000
     16 C12        2.9346    3.4169    6.3647 C.3       1 RES1    0.0000
     17 C13        5.2095    3.6970    5.3577 C.3       1 RES1    0.0000
     18 C14        2.5277    5.9690    5.0801 C.3       1 RES1    0.0000
     19 C15        4.1901    5.4472    3.2845 C.3       1 RES1    0.0000
     20 C16        3.9299   -2.3004    1.3794 C.3       1 RES1    0.0000
     21 C17       -1.1491    4.5075   -0.9288 C.3       1 RES1    0.0000
     22 O3         3.8687    1.3817    4.3132 O.2       1 RES1    0.0000
     23 O4         1.1711    4.9077    3.0050 O.2       1 RES1    0.0000
     24 H1         2.7190    0.3079    2.7502 H         1 RES1    0.0000
     25 H2         0.2684    3.4212    1.7980 H         1 RES1    0.0000
     26 H3         3.1129    4.1084    6.9916 H         1 RES1    0.0000
     27 H4         3.1993    2.5812    6.7317 H         1 RES1    0.0000
     28 H5         2.0045    3.3974    6.1715 H         1 RES1    0.0000
     29 H6         5.4145    4.4175    5.9414 H         1 RES1    0.0000
     30 H7         5.4647    2.8767    5.7625 H         1 RES1    0.0000
     31 H8         5.6820    3.8073    4.5418 H         1 RES1    0.0000
     32 H9         3.1918    6.3907    5.6133 H         1 RES1    0.0000
     33 H10        2.1316    6.6092    4.5013 H         1 RES1    0.0000
     34 H11        1.8604    5.5948    5.6432 H         1 RES1    0.0000
     35 H12        4.8789    5.8813    3.7728 H         1 RES1    0.0000
     36 H13        3.7660    6.0737    2.7097 H         1 RES1    0.0000
     37 H14        4.5647    4.7446    2.7651 H         1 RES1    0.0000
     38 H15        4.5152   -2.6684    2.0302 H         1 RES1    0.0000
     39 H16        3.8297   -2.9140    0.6604 H         1 RES1    0.0000
     40 H17        4.2931   -1.4853    1.0524 H         1 RES1    0.0000
     41 H18       -1.4501    5.3775   -0.6966 H         1 RES1    0.0000
     42 H19       -1.5427    4.2454   -1.7532 H         1 RES1    0.0000
     43 H20       -0.2031    4.5126   -1.0162 H         1 RES1    0.0000
     44 N1B       -3.3722   -2.5398   -4.1496 N.2       1 RES1    0.0000
     45 N2B       -2.1120   -4.2096   -3.4059 N.2       1 RES1    0.0000
     46 O1B       -2.6601    2.0528   -1.9688 O.3       1 RES1    0.0000
     47 O2B        1.5269   -3.5823   -0.1025 O.3       1 RES1    0.0000
     48 C1B       -1.7281    1.5193   -1.1097 C.2       1 RES1    0.0000
     49 C2B       -1.3452    0.1437   -1.3040 C.2       1 RES1    0.0000
     50 C3B       -1.6289   -2.0082   -2.3921 C.2       1 RES1    0.0000
     51 C4B        0.1010   -1.7386   -0.7083 C.2       1 RES1    0.0000
     52 C5B       -0.3047   -0.3967   -0.5036 C.2       1 RES1    0.0000
     53 C6B        1.1396   -2.2858    0.1363 C.2       1 RES1    0.0000
     54 C7B       -2.3469   -2.9136   -3.3011 C.2       1 RES1    0.0000
     55 C8B       -3.7131   -3.6723   -5.0769 C.3       1 RES1    0.0000
     56 C9B       -3.1621   -4.8621   -4.2521 C.3       1 RES1    0.0000
     57 C10B      -2.0118   -0.6699   -2.2289 C.2       1 RES1    0.0000
     58 C11B      -0.5573   -2.5279   -1.6493 C.2       1 RES1    0.0000
     59 C12B      -2.9346   -3.4169   -6.3647 C.3       1 RES1    0.0000
     60 C13B      -5.2095   -3.6970   -5.3577 C.3       1 RES1    0.0000
     61 C14B      -2.5277   -5.9690   -5.0801 C.3       1 RES1    0.0000
     62 C15B      -4.1901   -5.4472   -3.2845 C.3       1 RES1    0.0000
     63 C16B      -3.9299    2.3004   -1.3794 C.3       1 RES1    0.0000
     64 C17B       1.1491   -4.5075    0.9288 C.3       1 RES1    0.0000
     65 O3B       -3.8687   -1.3817   -4.3132 O.2       1 RES1    0.0000
     66 O4B       -1.1711   -4.9077   -3.0050 O.2       1 RES1    0.0000
     67 H1B       -2.7190   -0.3079   -2.7502 H         1 RES1    0.0000
     68 H2B       -0.2684   -3.4212   -1.7980 H         1 RES1    0.0000
     69 H3B       -3.1129   -4.1084   -6.9916 H         1 RES1    0.0000
     70 H4B       -3.1993   -2.5812   -6.7317 H         1 RES1    0.0000
     71 H5B       -2.0045   -3.3974   -6.1715 H         1 RES1    0.0000
     72 H6B       -5.4145   -4.4175   -5.9414 H         1 RES1    0.0000
     73 H7B       -5.4647   -2.8767   -5.7625 H         1 RES1    0.0000
     74 H8B       -5.6820   -3.8073   -4.5418 H         1 RES1    0.0000
     75 H9B       -3.1918   -6.3907   -5.6133 H         1 RES1    0.0000
     76 H10B      -2.1316   -6.6092   -4.5013 H         1 RES1    0.0000
     77 H11B      -1.8604   -5.5948   -5.6432 H         1 RES1    0.0000
     78 H12B      -4.8789   -5.8813   -3.7728 H         1 RES1    0.0000
     79 H13B      -3.7660   -6.0737   -2.7097 H         1 RES1    0.0000
     80 H14B      -4.5647   -4.7446   -2.7651 H         1 RES1    0.0000
     81 H15B      -4.5152    2.6684   -2.0302 H         1 RES1    0.0000
     82 H16B      -3.8297    2.9140   -0.6604 H         1 RES1    0.0000
     83 H17B      -4.2931    1.4853   -1.0524 H         1 RES1    0.0000
     84 H18B       1.4501   -5.3775    0.6966 H         1 RES1    0.0000
     85 H19B       1.5427   -4.2454    1.7532 H         1 RES1    0.0000
     86 H20B       0.2031   -4.5126    1.0162 H         1 RES1    0.0000
@<TRIPOS>BOND
     1    1   11 1
     2    2   11 1
     3    3    5 1
     4    4   10 1
     5    5    6 1
     6    6    9 1
     7    7   11 1
     8    8    9 1
     9    9   52 1
    10   10    8 1
    11   12    1 1
    12   13    2 1
    13   14    6 1
    14   15    7 1
    15   16   12 1
    16   17   12 1
    17   18   13 1
    18   19   13 1
    19   20    3 1
    20   21    4 1
    21   22    1 1
    22   23    2 1
    23   24   14 1
    24   25   15 1
    25   26   16 1
    26   27   16 1
    27   28   16 1
    28   29   17 1
    29   30   17 1
    30   31   17 1
    31   32   18 1
    32   33   18 1
    33   34   18 1
    34   35   19 1
    35   36   19 1
    36   37   19 1
    37   38   20 1
    38   39   20 1
    39   40   20 1
    40   41   21 1
    41   42   21 1
    42   43   21 1
    43   44   54 1
    44   45   54 1
    45   46   48 1
    46   47   53 1
    47   48   10 1
    48   49   48 1
    49   50   54 1
    50   51   52 1
    51   52   49 1
    52   53    5 1
    53   55   44 1
    54   56   45 1
    55   57   49 1
    56   58   50 1
    57   59   55 1
    58   60   55 1
    59   61   56 1
    60   62   56 1
    61   63   46 1
    62   64   47 1
    63   65   44 1
    64   66   45 1
    65   67   57 1
    66   68   58 1
    67   69   59 1
    68   70   59 1
    69   71   59 1
    70   72   60 1
    71   73   60 1
    72   74   60 1
    73   75   61 1
    74   76   61 1
    75   77   61 1
    76   78   62 1
    77   79   62 1
    78   80   62 1
    79   81   63 1
    80   82   63 1
    81   83   63 1
    82   84   64 1
    83   85   64 1
    84   86   64 1
    85    7   14 1
    86    8   15 1
    87   12   13 1
    88   50   57 1
    89   51   53 1
    90   51   58 1
    91   55   56 1
@<TRIPOS>SUBSTRUCTURE
     1 RES1 1

@<TRIPOS>CRYSIN
   6.3490   11.3210   21.3030  90.0000  90.0050  90.0000 231 1

