# MOL2 file generated by ConQuest
# Please check atom types

@<TRIPOS>MOLECULE
AGUNUN
    30    31     1
SMALL
NO_CHARGES
****
Generated from CSD

@<TRIPOS>ATOM
      1 N1         0.8099    6.5033   -0.5903 N.3       1 RES1    0.0000
      2 N2         0.8955    6.6918   -1.9347 N.2       1 RES1    0.0000
      3 C1         1.3230    7.9260   -2.1221 C.2       1 RES1    0.0000
      4 H1         1.4654    8.3138   -2.9555 H         1 RES1    0.0000
      5 C2         1.5355    8.5826   -0.8864 C.ar      1 RES1    0.0000
      6 C3         1.1872    7.6239    0.0930 C.ar      1 RES1    0.0000
      7 C4         1.2138    7.8906    1.4670 C.ar      1 RES1    0.0000
      8 H2         0.9647    7.2475    2.0919 H         1 RES1    0.0000
      9 C5         1.6266    9.1505    1.8523 C.ar      1 RES1    0.0000
     10 H3         1.6568    9.3590    2.7586 H         1 RES1    0.0000
     11 C6         2.0011   10.1228    0.9189 C.ar      1 RES1    0.0000
     12 H4         2.2838   10.9594    1.2090 H         1 RES1    0.0000
     13 C7         1.9524    9.8439   -0.4236 C.ar      1 RES1    0.0000
     14 C8         0.4770    5.1677   -0.0774 C.3       1 RES1    0.0000
     15 H5         0.3284    5.2241    0.8894 H         1 RES1    0.0000
     16 O1         1.5258    4.2612   -0.3278 O.3       1 RES1    0.0000
     17 C9        -0.7654    4.6359   -0.7328 C.3       1 RES1    0.0000
     18 H6        -0.9637    3.7635   -0.3834 H         1 RES1    0.0000
     19 H7        -0.6266    4.5771   -1.6811 H         1 RES1    0.0000
     20 H8        -1.4999    5.2280   -0.5528 H         1 RES1    0.0000
     21 C10        2.6514    4.4134    0.5476 C.3       1 RES1    0.0000
     22 H9         2.3495    4.4986    1.4656 H         1 RES1    0.0000
     23 H10        3.1484    5.2126    0.3140 H         1 RES1    0.0000
     24 C11        3.5280    3.2030    0.4047 C.3       1 RES1    0.0000
     25 H11        4.2843    3.2849    0.9911 H         1 RES1    0.0000
     26 H12        3.8328    3.1337   -0.5028 H         1 RES1    0.0000
     27 H13        3.0275    2.4158    0.6352 H         1 RES1    0.0000
     28 N3         2.3504   10.8671   -1.3899 N.pl3     1 RES1    0.0000
     29 O2         2.3014   10.5893   -2.5776 O.2       1 RES1    0.0000
     30 O3         2.7258   11.9560   -0.9595 O.2       1 RES1    0.0000
@<TRIPOS>BOND
     1    1    2 1
     2    2    3 2
     3    3    4 1
     4    5    3 1
     5    6    1 1
     6    7    6 ar
     7    8    7 1
     8    9    7 ar
     9   10    9 1
    10   11    9 ar
    11   12   11 1
    12   13    5 ar
    13   14    1 1
    14   15   14 1
    15   16   14 1
    16   17   14 1
    17   18   17 1
    18   19   17 1
    19   20   17 1
    20   21   16 1
    21   22   21 1
    22   23   21 1
    23   24   21 1
    24   25   24 1
    25   26   24 1
    26   27   24 1
    27   28   13 1
    28   29   28 2
    29   30   28 2
    30    5    6 ar
    31   11   13 ar
@<TRIPOS>SUBSTRUCTURE
     1 RES1 1

@<TRIPOS>CRYSIN
   7.3880   19.1430    8.2931  90.0000 103.2980  90.0000  14 1

