# MOL2 file generated by ConQuest
# Please check atom types

@<TRIPOS>MOLECULE
AGUQUO
    58    60     1
SMALL
NO_CHARGES
****
Generated from CSD

@<TRIPOS>ATOM
      1 O1         4.8085    3.1566    2.9895 O.3       1 RES1    0.0000
      2 O2         6.6209    0.9310    5.2420 O.3       1 RES1    0.0000
      3 O3         7.7045   -4.1584    9.6883 O.2       1 RES1    0.0000
      4 O4         5.9689    2.2262    1.2918 O.2       1 RES1    0.0000
      5 O5         5.1975    8.1269   -2.1691 O.2       1 RES1    0.0000
      6 O6         9.2666   -2.9895   10.6017 O.2       1 RES1    0.0000
      7 O7         4.6263    9.1033   -0.3737 O.2       1 RES1    0.0000
      8 O8         8.6730    1.7037    5.5939 O.2       1 RES1    0.0000
      9 N1         4.9964    8.1231   -0.9883 N.pl3     1 RES1    0.0000
     10 N2         8.4322   -3.1875    9.7386 N.pl3     1 RES1    0.0000
     11 C1         5.4835    5.7356   -0.9437 C.ar      1 RES1    0.0000
     12 C2         7.0304   -1.2262    6.9113 C.ar      1 RES1    0.0000
     13 C3         8.2799   -2.1789    8.6621 C.ar      1 RES1    0.0000
     14 C4         7.8148    0.8921    5.8168 C.2       1 RES1    0.0000
     15 C5         5.5591    4.5375   -0.2627 C.ar      1 RES1    0.0000
     16 C6         4.9576    2.0162    3.9247 C.3       1 RES1    0.0000
     17 C7         4.8491    6.8396    1.0983 C.ar      1 RES1    0.0000
     18 C8         5.2584    4.4741    1.0926 C.ar      1 RES1    0.0000
     19 C9         6.4264    2.0215    4.2955 C.3       1 RES1    0.0000
     20 C10        3.8860    4.9162    5.1747 C.ar      1 RES1    0.0000
     21 C11        7.9650   -0.2290    6.7804 C.ar      1 RES1    0.0000
     22 C12        4.9208    5.6274    1.7660 C.ar      1 RES1    0.0000
     23 C13        4.5004    0.7224    3.2892 C.3       1 RES1    0.0000
     24 C14        2.5841    2.2531    4.8333 C.2       1 RES1    0.0000
     25 C15        1.7536    1.5817    5.5806 C.2       1 RES1    0.0000
     26 C16        9.0922   -0.2373    7.5847 C.ar      1 RES1    0.0000
     27 C17        4.1771    6.1300    5.7523 C.ar      1 RES1    0.0000
     28 C18        9.2437   -1.2179    8.5606 C.ar      1 RES1    0.0000
     29 C19        7.1852   -2.2272    7.8588 C.ar      1 RES1    0.0000
     30 C20        5.0820    3.8304    6.9208 C.ar      1 RES1    0.0000
     31 C21        5.3192    5.0715    7.5136 C.ar      1 RES1    0.0000
     32 C22        4.8975    6.2007    6.9018 C.ar      1 RES1    0.0000
     33 C23        5.1204    6.8514   -0.2485 C.ar      1 RES1    0.0000
     34 C24        4.3588    3.7420    5.7409 C.ar      1 RES1    0.0000
     35 C25        5.3815    3.1540    1.7764 C.2       1 RES1    0.0000
     36 C26        4.0509    2.4003    5.1225 C.3       1 RES1    0.0000
     37 H1         5.6977    5.8328   -1.8874 H         1 RES1    0.0000
     38 H2         6.2491   -1.2637    6.3640 H         1 RES1    0.0000
     39 H3         5.8160    3.7099   -0.7018 H         1 RES1    0.0000
     40 H4         4.5807    7.6466    1.5270 H         1 RES1    0.0000
     41 H5         3.3039    4.8978    4.4103 H         1 RES1    0.0000
     42 H6         4.7504    5.6205    2.7220 H         1 RES1    0.0000
     43 H7         2.2685    2.7052    4.0404 H         1 RES1    0.0000
     44 H8         9.6689    0.5383    7.5686 H         1 RES1    0.0000
     45 H9         3.9387    6.8663    5.3113 H         1 RES1    0.0000
     46 H10       10.0011   -1.1581    9.1145 H         1 RES1    0.0000
     47 H11        6.5594   -2.9450    7.9764 H         1 RES1    0.0000
     48 H12        5.3725    3.0287    7.2366 H         1 RES1    0.0000
     49 H13        5.8506    5.0530    8.3463 H         1 RES1    0.0000
     50 H14        5.0876    7.0421    7.3220 H         1 RES1    0.0000
     51 H15        4.2348    1.7030    5.7096 H         1 RES1    0.0000
     52 H16        6.6840    2.8833    4.7612 H         1 RES1    0.0000
     53 H17        7.0298    1.8574    3.5377 H         1 RES1    0.0000
     54 H18        3.5753    0.8296    2.9212 H         1 RES1    0.0000
     55 H19        5.1139    0.3375    2.6746 H         1 RES1    0.0000
     56 H20        4.4244    0.1032    4.0404 H         1 RES1    0.0000
     57 H21        2.1112    1.1202    6.3451 H         1 RES1    0.0000
     58 H22        0.8131    1.5314    5.3682 H         1 RES1    0.0000
@<TRIPOS>BOND
     1    1   16 1
     2    2   14 1
     3    3   10 2
     4    4   35 2
     5    5    9 2
     6    6   10 2
     7    7    9 2
     8    8   14 2
     9    9   33 1
    10   10   13 1
    11   11   15 ar
    12   12   21 ar
    13   13   28 ar
    14   14   21 1
    15   15   18 ar
    16   16   19 1
    17   17   22 ar
    18   18   22 ar
    19   19    2 1
    20   20   27 ar
    21   21   26 ar
    22   22   42 1
    23   23   16 1
    24   24   25 2
    25   25   57 1
    26   26   28 ar
    27   27   32 ar
    28   28   46 1
    29   29   12 ar
    30   30   31 ar
    31   31   32 ar
    32   32   50 1
    33   33   11 ar
    34   34   20 ar
    35   35    1 1
    36   36   16 1
    37   37   11 1
    38   38   12 1
    39   39   15 1
    40   40   17 1
    41   41   20 1
    42   43   24 1
    43   44   26 1
    44   45   27 1
    45   47   29 1
    46   48   30 1
    47   49   31 1
    48   51   36 1
    49   52   19 1
    50   53   19 1
    51   54   23 1
    52   55   23 1
    53   56   23 1
    54   58   25 1
    55   13   29 ar
    56   17   33 ar
    57   18   35 1
    58   24   36 1
    59   30   34 ar
    60   34   36 1
@<TRIPOS>SUBSTRUCTURE
     1 RES1 1

@<TRIPOS>CRYSIN
  10.4210   12.7720   10.2480  91.7500 110.7540 106.0600   2 1

