# MOL2 file generated by ConQuest
# Please check atom types

@<TRIPOS>MOLECULE
AHATIO
    39    41     1
SMALL
NO_CHARGES
****
Generated from CSD

@<TRIPOS>ATOM
      1 O1         5.2018    2.5872   14.1459 O.3       1 RES1    0.0000
      2 H1         5.9126    2.0617   13.9573 H         1 RES1    0.0000
      3 N1         1.8411    4.8046    9.9468 N.ar      1 RES1    0.0000
      4 N2         3.7570    6.2321    9.9852 N.ar      1 RES1    0.0000
      5 N3         4.9212    3.1491   12.8617 N.2       1 RES1    0.0000
      6 N4         3.2490    4.2430   14.1217 N.pl3     1 RES1    0.0000
      7 H2         3.3631    3.7047   14.8010 H         1 RES1    0.0000
      8 H3         2.4608    4.6579   14.0447 H         1 RES1    0.0000
      9 C1         2.5823    5.8198    9.4673 C.ar      1 RES1    0.0000
     10 C2         4.1669    5.6066   11.1001 C.ar      1 RES1    0.0000
     11 H4         4.9909    5.8714   11.4918 H         1 RES1    0.0000
     12 C3         3.4413    4.5899   11.7083 C.ar      1 RES1    0.0000
     13 C4         2.2625    4.1862   11.0584 C.ar      1 RES1    0.0000
     14 C5         3.9118    3.9429   12.9627 C.2       1 RES1    0.0000
     15 C6         1.4539    2.9883   11.5097 C.3       1 RES1    0.0000
     16 H5         0.5061    3.1103   11.2516 H         1 RES1    0.0000
     17 H6         1.4966    2.9100   12.4961 H         1 RES1    0.0000
     18 C7         1.9977    1.7208   10.8735 C.ar      1 RES1    0.0000
     19 C8         1.7145    1.4281    9.5347 C.ar      1 RES1    0.0000
     20 H7         1.1497    2.0060    9.0356 H         1 RES1    0.0000
     21 C9         2.2537    0.2964    8.9258 C.ar      1 RES1    0.0000
     22 H8         2.0525    0.1039    8.0173 H         1 RES1    0.0000
     23 C10        3.0879   -0.5518    9.6501 C.ar      1 RES1    0.0000
     24 H9         3.4610   -1.3206    9.2352 H         1 RES1    0.0000
     25 C11        3.3737   -0.2708   10.9831 C.ar      1 RES1    0.0000
     26 H10        3.9431   -0.8483   11.4778 H         1 RES1    0.0000
     27 C12        2.8263    0.8568   11.5933 C.ar      1 RES1    0.0000
     28 H11        3.0183    1.0389   12.5055 H         1 RES1    0.0000
     29 C13        2.0427    6.5397    8.2858 C.ar      1 RES1    0.0000
     30 C14        2.8534    7.3374    7.4721 C.ar      1 RES1    0.0000
     31 H12        3.7799    7.4190    7.6633 H         1 RES1    0.0000
     32 C15        2.3088    8.0119    6.3825 C.ar      1 RES1    0.0000
     33 H13        2.8645    8.5543    5.8340 H         1 RES1    0.0000
     34 C16        0.9501    7.8938    6.0937 C.ar      1 RES1    0.0000
     35 H14        0.5805    8.3540    5.3490 H         1 RES1    0.0000
     36 C17        0.1354    7.1009    6.8982 C.ar      1 RES1    0.0000
     37 H15       -0.7908    7.0185    6.7026 H         1 RES1    0.0000
     38 C18        0.6802    6.4292    7.9897 C.ar      1 RES1    0.0000
     39 H16        0.1214    5.8917    8.5382 H         1 RES1    0.0000
@<TRIPOS>BOND
     1    1    2 1
     2    3    9 ar
     3    4    9 ar
     4    5    1 1
     5    6    7 1
     6    8    6 1
     7    9   29 1
     8   10    4 ar
     9   11   10 1
    10   12   10 ar
    11   13    3 ar
    12   14    5 2
    13   15   13 1
    14   16   15 1
    15   17   15 1
    16   18   15 1
    17   19   18 ar
    18   20   19 1
    19   21   19 ar
    20   22   21 1
    21   23   21 ar
    22   24   23 1
    23   25   23 ar
    24   26   25 1
    25   27   18 ar
    26   28   27 1
    27   29   30 ar
    28   30   31 1
    29   32   30 ar
    30   33   32 1
    31   34   32 ar
    32   35   34 1
    33   36   34 ar
    34   37   36 1
    35   38   29 ar
    36   39   38 1
    37    6   14 1
    38   12   13 ar
    39   12   14 1
    40   25   27 ar
    41   36   38 ar
@<TRIPOS>SUBSTRUCTURE
     1 RES1 1

@<TRIPOS>CRYSIN
   8.7859   10.7103   15.6570  90.0000  95.1090  90.0000 231 1

