# MOL2 file generated by ConQuest
# Please check atom types

@<TRIPOS>MOLECULE
AHEMAB
    12    12     1
SMALL
NO_CHARGES
****
Generated from CSD

@<TRIPOS>ATOM
      1 N1         0.3627    4.7288    3.7381 N.pl3     1 RES1    0.0000
      2 O1         1.0376    4.0020    4.5723 O.2       1 RES1    0.0000
      3 C1        -0.0238    4.2252    2.5371 C.2       1 RES1    0.0000
      4 H1         0.1887    3.3465    2.3179 H         1 RES1    0.0000
      5 C2         0.0434    6.0109    4.0283 C.2       1 RES1    0.0000
      6 H2         0.3018    6.3751    4.8443 H         1 RES1    0.0000
      7 N1B       -1.0376    6.2723    1.9403 N.pl3     1 RES1    0.0000
      8 O1B       -1.7125    6.9991    1.1062 O.2       1 RES1    0.0000
      9 C1B       -0.6511    6.7759    3.1413 C.2       1 RES1    0.0000
     10 H1B       -0.8636    7.6546    3.3605 H         1 RES1    0.0000
     11 C2B       -0.7183    4.9902    1.6502 C.2       1 RES1    0.0000
     12 H2B       -0.9767    4.6260    0.8342 H         1 RES1    0.0000
@<TRIPOS>BOND
     1    1    2 2
     2    3    1 1
     3    4    3 1
     4    5    1 1
     5    6    5 1
     6    7    8 2
     7    9    5 2
     8   10    9 1
     9   11    3 2
    10   12   11 1
    11    7    9 1
    12    7   11 1
@<TRIPOS>SUBSTRUCTURE
     1 RES1 1

@<TRIPOS>CRYSIN
   3.7376   11.0011    5.7184  90.0000  96.7780  90.0000  14 1

