# MOL2 file generated by ConQuest
# Please check atom types

@<TRIPOS>MOLECULE
AHETUD
    33    35     1
SMALL
NO_CHARGES
****
Generated from CSD

@<TRIPOS>ATOM
      1 N1         0.4764    5.0152    0.7568 N.3       1 RES1    0.0000
      2 N2         3.4836    7.7839   -1.5202 N.1       1 RES1    0.0000
      3 O1         1.7273    4.9382    1.4625 O.3       1 RES1    0.0000
      4 C1        -0.5549    5.6338    1.6088 C.3       1 RES1    0.0000
      5 H1        -0.6081    5.1156    2.4335 H         1 RES1    0.0000
      6 H2        -0.3265    6.5960    1.8527 H         1 RES1    0.0000
      7 C2        -1.8501    5.5947    0.8197 C.3       1 RES1    0.0000
      8 H3        -2.5530    6.0383    1.3013 H         1 RES1    0.0000
      9 H4        -2.1295    4.6340    0.7278 H         1 RES1    0.0000
     10 C3        -1.6843    6.2394   -0.5386 C.ar      1 RES1    0.0000
     11 C4        -0.4065    6.3790   -1.0996 C.ar      1 RES1    0.0000
     12 C5         0.8200    5.8759   -0.3737 C.3       1 RES1    0.0000
     13 H5         1.3809    5.3471   -0.9925 H         1 RES1    0.0000
     14 C6         1.7410    6.9819    0.2510 C.3       1 RES1    0.0000
     15 H6         1.2233    7.7587    0.5293 H         1 RES1    0.0000
     16 C7         2.3193    6.2656    1.5043 C.3       1 RES1    0.0000
     17 H7         1.9869    6.7312    2.2938 H         1 RES1    0.0000
     18 C8         2.7421    7.4385   -0.7233 C.1       1 RES1    0.0000
     19 C9         3.8191    6.0906    1.5829 C.3       1 RES1    0.0000
     20 H8         4.2238    6.9864    1.6763 H         1 RES1    0.0000
     21 H9         4.1253    5.7223    0.7205 H         1 RES1    0.0000
     22 C10        4.2149    5.1825    2.7460 C.3       1 RES1    0.0000
     23 H10        3.8191    5.5161    3.5731 H         1 RES1    0.0000
     24 H11        5.1974    5.1393    2.8305 H         1 RES1    0.0000
     25 H12        3.8609    4.2402    2.6026 H         1 RES1    0.0000
     26 C11       -2.7871    6.7011   -1.2572 C.ar      1 RES1    0.0000
     27 H13       -3.6836    6.6281   -0.8822 H         1 RES1    0.0000
     28 C12       -2.6373    7.2855   -2.5019 C.ar      1 RES1    0.0000
     29 H14       -3.4012    7.6066   -2.9776 H         1 RES1    0.0000
     30 C13       -1.3704    7.4170   -3.0592 C.ar      1 RES1    0.0000
     31 H15       -1.2742    7.7993   -3.9333 H         1 RES1    0.0000
     32 C14       -0.2638    6.9543   -2.3629 C.ar      1 RES1    0.0000
     33 H16        0.6358    7.0202   -2.7791 H         1 RES1    0.0000
@<TRIPOS>BOND
     1    1    3 1
     2    2   18 3
     3    3   16 1
     4    4    1 1
     5    5    4 1
     6    6    4 1
     7    7    4 1
     8    8    7 1
     9    9    7 1
    10   10    7 1
    11   11   10 ar
    12   12    1 1
    13   13   12 1
    14   14   12 1
    15   15   14 1
    16   16   14 1
    17   17   16 1
    18   18   14 1
    19   19   16 1
    20   20   19 1
    21   21   19 1
    22   22   19 1
    23   23   22 1
    24   24   22 1
    25   25   22 1
    26   26   10 ar
    27   27   26 1
    28   28   26 ar
    29   29   28 1
    30   30   28 ar
    31   31   30 1
    32   32   11 ar
    33   33   32 1
    34   11   12 1
    35   30   32 ar
@<TRIPOS>SUBSTRUCTURE
     1 RES1 1

@<TRIPOS>CRYSIN
   9.5760   16.8999    7.3904  90.0000  95.8430  90.0000  14 1

