# MOL2 file generated by ConQuest
# Please check atom types

@<TRIPOS>MOLECULE
AHIBUO
    45    47     1
SMALL
NO_CHARGES
****
Generated from CSD

@<TRIPOS>ATOM
      1 O1        -0.9828    8.6533    7.3666 O.3       1 RES1    0.0000
      2 O2         4.1190   10.0726   11.9648 O.3       1 RES1    0.0000
      3 O3         6.0827    8.2968    4.4027 O.2       1 RES1    0.0000
      4 O4         6.2586   10.3531    3.9002 O.2       1 RES1    0.0000
      5 N1         0.9726    9.8522    8.6292 N.2       1 RES1    0.0000
      6 N2         2.6858   10.9548    9.9512 N.2       1 RES1    0.0000
      7 N3         5.8008    9.4636    4.5693 N.pl3     1 RES1    0.0000
      8 C1        -1.1679    7.9354    8.5021 C.ar      1 RES1    0.0000
      9 C2        -2.1323    6.9571    8.5268 C.ar      1 RES1    0.0000
     10 C3        -2.3257    6.2094    9.6620 C.ar      1 RES1    0.0000
     11 C4        -1.5732    6.4197   10.7763 C.ar      1 RES1    0.0000
     12 C5        -0.6070    7.3840   10.7698 C.ar      1 RES1    0.0000
     13 C6        -0.3804    8.1641    9.6372 C.ar      1 RES1    0.0000
     14 C7         0.6724    9.1761    9.6541 C.2       1 RES1    0.0000
     15 C8         2.0383   10.8509    8.6505 C.3       1 RES1    0.0000
     16 C9         2.5025   12.0278   10.6240 C.2       1 RES1    0.0000
     17 C10        3.0616   12.2267   11.9336 C.ar      1 RES1    0.0000
     18 C11        2.7742   13.4080   12.6275 C.ar      1 RES1    0.0000
     19 C12        3.2458   13.6152   13.8954 C.ar      1 RES1    0.0000
     20 C13        4.0269   12.6618   14.4812 C.ar      1 RES1    0.0000
     21 C14        4.3373   11.4857   13.8381 C.ar      1 RES1    0.0000
     22 C15        3.8344   11.2598   12.5559 C.ar      1 RES1    0.0000
     23 C16        3.0570   10.4901    7.5973 C.ar      1 RES1    0.0000
     24 C17        3.6096    9.2159    7.5491 C.ar      1 RES1    0.0000
     25 C18        4.5150    8.8763    6.5637 C.ar      1 RES1    0.0000
     26 C19        4.8706    9.8250    5.6446 C.ar      1 RES1    0.0000
     27 C20        4.3594   11.1024    5.6667 C.ar      1 RES1    0.0000
     28 C21        3.4328   11.4185    6.6483 C.ar      1 RES1    0.0000
     29 H1        -0.3316    9.1754    7.4723 H         1 RES1    0.0000
     30 H2        -2.5053    6.7764    7.7978 H         1 RES1    0.0000
     31 H3        -2.9566    5.5146    9.6203 H         1 RES1    0.0000
     32 H4        -1.7040    5.8573   11.5209 H         1 RES1    0.0000
     33 H5        -0.0737    7.6021   11.4949 H         1 RES1    0.0000
     34 H6         1.2066    9.2533   10.5055 H         1 RES1    0.0000
     35 H7         1.6763   11.6944    8.3966 H         1 RES1    0.0000
     36 H8         1.9526   12.7740   10.2712 H         1 RES1    0.0000
     37 H9         2.2198   14.0358   12.1588 H         1 RES1    0.0000
     38 H10        2.7908   14.4408   14.4109 H         1 RES1    0.0000
     39 H11        4.3290   12.8519   15.3612 H         1 RES1    0.0000
     40 H12        4.8908   10.7956   14.1375 H         1 RES1    0.0000
     41 H13        3.4632   10.0634   11.1694 H         1 RES1    0.0000
     42 H14        3.1500    8.5835    8.2013 H         1 RES1    0.0000
     43 H15        4.9461    7.9759    6.5090 H         1 RES1    0.0000
     44 H16        4.7435   11.8081    4.9338 H         1 RES1    0.0000
     45 H17        2.9658   12.2755    6.6522 H         1 RES1    0.0000
@<TRIPOS>BOND
     1    1    8 1
     2    2   22 1
     3    3    7 2
     4    4    7 2
     5    5   14 2
     6    6   15 1
     7    7   26 1
     8    8    9 ar
     9    9   10 ar
    10   10   11 ar
    11   11   12 ar
    12   12   13 ar
    13   13    8 ar
    14   14   13 1
    15   15    5 1
    16   16    6 2
    17   17   16 1
    18   18   17 ar
    19   19   18 ar
    20   20   19 ar
    21   21   20 ar
    22   22   17 ar
    23   23   15 1
    24   24   23 ar
    25   25   24 ar
    26   26   25 ar
    27   27   26 ar
    28   28   23 ar
    29   29    1 1
    30   30    9 1
    31   31   10 1
    32   32   11 1
    33   33   12 1
    34   34   14 1
    35   35   15 1
    36   36   16 1
    37   37   18 1
    38   38   19 1
    39   39   20 1
    40   40   21 1
    41   41    2 1
    42   42   24 1
    43   43   25 1
    44   44   27 1
    45   45   28 1
    46   21   22 ar
    47   27   28 ar
@<TRIPOS>SUBSTRUCTURE
     1 RES1 1

@<TRIPOS>CRYSIN
   9.2106   15.5780   13.0180  90.0000  90.0000  90.0000  33 1

