# MOL2 file generated by ConQuest
# Please check atom types

@<TRIPOS>MOLECULE
AHICUR
    35    36     1
SMALL
NO_CHARGES
****
Generated from CSD

@<TRIPOS>ATOM
      1 O1         5.5309    7.6341    4.1400 O.2       1 RES1    0.0000
      2 O2         5.5329    6.4814    2.3183 O.2       1 RES1    0.0000
      3 N1         3.4288    4.5186    3.1553 N.3       1 RES1    0.0000
      4 N2         4.9587    7.0081    3.2579 N.pl3     1 RES1    0.0000
      5 N3         4.5278    4.5081    4.0858 N.2       1 RES1    0.0000
      6 C1         1.0729    1.0368    3.0740 C.ar      1 RES1    0.0000
      7 H1         0.5445    0.2475    3.0517 H         1 RES1    0.0000
      8 C2         1.6482    1.4532    4.2530 C.ar      1 RES1    0.0000
      9 H2         1.5139    0.9465    5.0458 H         1 RES1    0.0000
     10 C3         2.4170    2.5987    4.2977 C.ar      1 RES1    0.0000
     11 H3         2.8007    2.8850    5.1185 H         1 RES1    0.0000
     12 C4         2.6244    3.3290    3.1401 C.ar      1 RES1    0.0000
     13 C5         2.7841    5.7606    3.1428 C.ar      1 RES1    0.0000
     14 C6         3.4893    6.9614    3.2805 C.ar      1 RES1    0.0000
     15 C7         2.8619    8.1944    3.3638 C.ar      1 RES1    0.0000
     16 H4         3.3741    8.9827    3.4952 H         1 RES1    0.0000
     17 C8         1.4896    8.2683    3.2545 C.ar      1 RES1    0.0000
     18 H5         1.0467    9.1065    3.3089 H         1 RES1    0.0000
     19 C9         0.7699    7.1112    3.0653 C.ar      1 RES1    0.0000
     20 H6        -0.1735    7.1607    2.9634 H         1 RES1    0.0000
     21 C10        1.3926    5.8814    3.0208 C.ar      1 RES1    0.0000
     22 H7         0.8671    5.0984    2.9042 H         1 RES1    0.0000
     23 C11        1.2695    1.7694    1.9290 C.ar      1 RES1    0.0000
     24 H8         0.8590    1.4962    1.1178 H         1 RES1    0.0000
     25 C12        2.0588    2.9019    1.9515 C.ar      1 RES1    0.0000
     26 H9         2.2132    3.3874    1.1499 H         1 RES1    0.0000
     27 C13        5.4826    3.7199    3.7880 C.2       1 RES1    0.0000
     28 C14        6.6091    3.6854    4.7799 C.3       1 RES1    0.0000
     29 H10        7.2957    3.0561    4.4723 H         1 RES1    0.0000
     30 H11        6.9994    4.5796    4.8624 H         1 RES1    0.0000
     31 H12        6.2677    3.3965    5.6513 H         1 RES1    0.0000
     32 C15        5.5702    2.8659    2.5753 C.3       1 RES1    0.0000
     33 H13        6.4089    2.3590    2.5937 H         1 RES1    0.0000
     34 H14        4.8126    2.2443    2.5578 H         1 RES1    0.0000
     35 H15        5.5478    3.4311    1.7757 H         1 RES1    0.0000
@<TRIPOS>BOND
     1    1    4 2
     2    2    4 2
     3    3    5 1
     4    4   14 1
     5    5   27 2
     6    6    7 1
     7    8    6 ar
     8    9    8 1
     9   10    8 ar
    10   11   10 1
    11   12    3 1
    12   13    3 1
    13   14   13 ar
    14   15   14 ar
    15   16   15 1
    16   17   15 ar
    17   18   17 1
    18   19   17 ar
    19   20   19 1
    20   21   13 ar
    21   22   21 1
    22   23    6 ar
    23   24   23 1
    24   25   12 ar
    25   26   25 1
    26   27   28 1
    27   28   29 1
    28   30   28 1
    29   31   28 1
    30   32   27 1
    31   33   32 1
    32   34   32 1
    33   35   32 1
    34   10   12 ar
    35   19   21 ar
    36   23   25 ar
@<TRIPOS>SUBSTRUCTURE
     1 RES1 1

@<TRIPOS>CRYSIN
   8.2058   18.2020    9.9424  90.0000 102.5880  90.0000  14 1

