# MOL2 file generated by ConQuest
# Please check atom types

@<TRIPOS>MOLECULE
AHIDAY
    40    42     1
SMALL
NO_CHARGES
****
Generated from CSD

@<TRIPOS>ATOM
      1 O1         8.0604    4.8931    1.3252 O.2       1 RES1    0.0000
      2 N1         6.5678    1.5085    0.5418 N.pl3     1 RES1    0.0000
      3 N2         8.2827    3.7450    0.9686 N.pl3     1 RES1    0.0000
      4 N3         5.4732    2.3174    0.3475 N.2       1 RES1    0.0000
      5 C1         6.9360    0.6380   -0.4996 C.ar      1 RES1    0.0000
      6 C2         6.2292    0.6024   -1.6926 C.ar      1 RES1    0.0000
      7 H1         5.5038    1.1711   -1.8182 H         1 RES1    0.0000
      8 C3         6.5983   -0.2742   -2.6952 C.ar      1 RES1    0.0000
      9 H2         6.1155   -0.2887   -3.4897 H         1 RES1    0.0000
     10 C4         7.6636   -1.1238   -2.5403 C.ar      1 RES1    0.0000
     11 H3         7.9018   -1.7149   -3.2177 H         1 RES1    0.0000
     12 C5         8.3714   -1.0832   -1.3631 C.ar      1 RES1    0.0000
     13 H4         9.0974   -1.6533   -1.2471 H         1 RES1    0.0000
     14 C6         8.0266   -0.2147   -0.3510 C.ar      1 RES1    0.0000
     15 H5         8.5246   -0.1979    0.4345 H         1 RES1    0.0000
     16 C7         7.3418    1.6055    1.7339 C.ar      1 RES1    0.0000
     17 C8         8.1718    2.6901    1.9706 C.ar      1 RES1    0.0000
     18 C9         8.9063    2.8191    3.1375 C.ar      1 RES1    0.0000
     19 H6         9.4343    3.5704    3.2877 H         1 RES1    0.0000
     20 C10        8.8351    1.8122    4.0653 C.ar      1 RES1    0.0000
     21 H7         9.3373    1.8673    4.8463 H         1 RES1    0.0000
     22 C11        8.0243    0.7178    3.8491 C.ar      1 RES1    0.0000
     23 H8         7.9915    0.0366    4.4817 H         1 RES1    0.0000
     24 C12        7.2616    0.6222    2.7033 C.ar      1 RES1    0.0000
     25 H9         6.6933   -0.1041    2.5823 H         1 RES1    0.0000
     26 C13        5.0520    3.0809    1.2906 C.2       1 RES1    0.0000
     27 H10        5.5152    3.1073    2.0970 H         1 RES1    0.0000
     28 C14        3.8674    3.9027    1.1226 C.ar      1 RES1    0.0000
     29 C15        3.1100    3.9174   -0.0556 C.ar      1 RES1    0.0000
     30 C16        1.9656    4.6951   -0.1381 C.ar      1 RES1    0.0000
     31 H11        1.4730    4.7122   -0.9266 H         1 RES1    0.0000
     32 C17        1.5565    5.4397    0.9400 C.ar      1 RES1    0.0000
     33 H12        0.7844    5.9551    0.8758 H         1 RES1    0.0000
     34 C18        2.2754    5.4335    2.1163 C.ar      1 RES1    0.0000
     35 H13        1.9894    5.9346    2.8452 H         1 RES1    0.0000
     36 C19        3.4240    4.6746    2.1984 C.ar      1 RES1    0.0000
     37 H14        3.9147    4.6770    2.9886 H         1 RES1    0.0000
     38 O2         8.5773    3.4357   -0.1662 O.2       1 RES1    0.0000
     39 O3         3.4547    3.1744   -1.1401 O.3       1 RES1    0.0000
     40 H15        4.1731    2.7423   -0.9424 H         1 RES1    0.0000
@<TRIPOS>BOND
     1    1    3 2
     2    2    4 1
     3    3   17 1
     4    4   26 2
     5    5    2 1
     6    6    5 ar
     7    7    6 1
     8    8    6 ar
     9    9    8 1
    10   10    8 ar
    11   11   10 1
    12   12   10 ar
    13   13   12 1
    14   14    5 ar
    15   15   14 1
    16   16    2 1
    17   17   16 ar
    18   18   17 ar
    19   19   18 1
    20   20   18 ar
    21   21   20 1
    22   22   20 ar
    23   23   22 1
    24   24   16 ar
    25   25   24 1
    26   26   27 1
    27   28   26 1
    28   29   28 ar
    29   30   29 ar
    30   31   30 1
    31   32   30 ar
    32   33   32 1
    33   34   32 ar
    34   35   34 1
    35   36   28 ar
    36   37   36 1
    37   38    3 2
    38   39   29 1
    39   40   39 1
    40   12   14 ar
    41   22   24 ar
    42   34   36 ar
@<TRIPOS>SUBSTRUCTURE
     1 RES1 1

@<TRIPOS>CRYSIN
   9.9767   14.6570   12.1780  90.0000 112.0640  90.0000 231 1

