# MOL2 file generated by ConQuest
# Please check atom types

@<TRIPOS>MOLECULE
AHIHIK
    51    53     1
SMALL
NO_CHARGES
****
Generated from CSD

@<TRIPOS>ATOM
      1 O1         1.0077    4.9508   14.3835 O.3       1 RES1    0.0000
      2 O2        -0.5802    4.5026   11.7723 O.3       1 RES1    0.0000
      3 O3         1.7521    0.6012   16.9298 O.3       1 RES1    0.0000
      4 N1         1.3125    1.5984   15.0173 N.am      1 RES1    0.0000
      5 H1         0.4947    1.5372   15.2756 H         1 RES1    0.0000
      6 C1         1.6031    2.2095   13.7304 C.3       1 RES1    0.0000
      7 H2         1.8775    1.5264   13.0973 H         1 RES1    0.0000
      8 H3         2.3312    2.8431   13.8247 H         1 RES1    0.0000
      9 O4         3.4753    1.1844   15.5603 O.2       1 RES1    0.0000
     10 O5        -0.4884    6.2756   13.2939 O.3       1 RES1    0.0000
     11 C2         2.2824    1.1295   15.8088 C.2       1 RES1    0.0000
     12 C3        -0.0991    4.1004   14.0551 C.3       1 RES1    0.0000
     13 H4        -0.6206    3.8268   14.8392 H         1 RES1    0.0000
     14 C4        -0.8970    4.9535   13.0714 C.3       1 RES1    0.0000
     15 H5        -1.8581    4.8599   13.2389 H         1 RES1    0.0000
     16 C5         0.3656    2.9259   13.2074 C.3       1 RES1    0.0000
     17 H6        -0.3656    2.2752   13.1602 H         1 RES1    0.0000
     18 C6         0.5172    3.5649   11.8352 C.3       1 RES1    0.0000
     19 H7         1.3718    4.0410   11.7762 H         1 RES1    0.0000
     20 C7         0.3761    2.6091   10.6764 C.3       1 RES1    0.0000
     21 H8        -0.4695    2.1420   10.7617 H         1 RES1    0.0000
     22 H9         1.0833    1.9467   10.7342 H         1 RES1    0.0000
     23 C8         1.9792    0.1053   19.2206 C.ar      1 RES1    0.0000
     24 C9         0.4333    3.2580    9.3124 C.3       1 RES1    0.0000
     25 H10        0.0761    2.6442    8.6503 H         1 RES1    0.0000
     26 H11       -0.1238    4.0518    9.3148 H         1 RES1    0.0000
     27 C10        2.6638    0.0369   17.8994 C.3       1 RES1    0.0000
     28 H12        3.4906    0.5427   17.9218 H         1 RES1    0.0000
     29 H13        2.8700   -0.8838   17.6741 H         1 RES1    0.0000
     30 C11        1.6341    7.1945   13.8346 C.3       1 RES1    0.0000
     31 H14        2.3186    7.2305   14.5050 H         1 RES1    0.0000
     32 H15        1.2899    8.0774   13.6793 H         1 RES1    0.0000
     33 H16        2.0044    6.8489   13.0187 H         1 RES1    0.0000
     34 C12       -0.0745    6.7337   15.6173 C.3       1 RES1    0.0000
     35 H17        0.6085    6.7535   16.2901 H         1 RES1    0.0000
     36 H18       -0.7585    6.1109   15.8733 H         1 RES1    0.0000
     37 H19       -0.4580    7.6094   15.5233 H         1 RES1    0.0000
     38 C13        0.6442    0.3087   21.6623 C.ar      1 RES1    0.0000
     39 H20        0.1946    0.3906   22.4711 H         1 RES1    0.0000
     40 C14        0.5324    6.3053   14.2950 C.3       1 RES1    0.0000
     41 C15        2.4262    0.9675   20.2106 C.ar      1 RES1    0.0000
     42 H21        3.1790    1.4913   20.0569 H         1 RES1    0.0000
     43 C16        0.1826   -0.5661   20.7013 C.ar      1 RES1    0.0000
     44 H22       -0.5734   -1.0827   20.8669 H         1 RES1    0.0000
     45 C17        1.7684    1.0584   21.4209 C.ar      1 RES1    0.0000
     46 H23        2.0894    1.6326   22.0779 H         1 RES1    0.0000
     47 C18        0.8493   -0.6723   19.4911 C.ar      1 RES1    0.0000
     48 H24        0.5398   -1.2690   18.8498 H         1 RES1    0.0000
     49 N2         1.8360    3.6378    8.9275 N.pl3     1 RES1    0.0000
     50 O6         2.7110    2.8224    9.2149 O.2       1 RES1    0.0000
     51 O7         1.9882    4.6169    8.2654 O.2       1 RES1    0.0000
@<TRIPOS>BOND
     1    1   12 1
     2    2   14 1
     3    3   11 1
     4    4    5 1
     5    6    4 1
     6    7    6 1
     7    8    6 1
     8    9   11 2
     9   10   14 1
    10   11    4 1
    11   12   13 1
    12   14   12 1
    13   15   14 1
    14   16    6 1
    15   17   16 1
    16   18    2 1
    17   19   18 1
    18   20   18 1
    19   21   20 1
    20   22   20 1
    21   23   27 1
    22   24   20 1
    23   25   24 1
    24   26   24 1
    25   27    3 1
    26   28   27 1
    27   29   27 1
    28   30   31 1
    29   32   30 1
    30   33   30 1
    31   34   35 1
    32   36   34 1
    33   37   34 1
    34   38   39 1
    35   40    1 1
    36   41   23 ar
    37   42   41 1
    38   43   38 ar
    39   44   43 1
    40   45   38 ar
    41   46   45 1
    42   47   23 ar
    43   48   47 1
    44   49   24 1
    45   50   49 2
    46   51   49 2
    47   10   40 1
    48   12   16 1
    49   16   18 1
    50   30   40 1
    51   34   40 1
    52   41   45 ar
    53   43   47 ar
@<TRIPOS>SUBSTRUCTURE
     1 RES1 1

@<TRIPOS>CRYSIN
   5.2458    8.9999   39.3195  90.0000  90.0000  90.0000  19 1

