# MOL2 file generated by ConQuest
# Please check atom types

@<TRIPOS>MOLECULE
AHILAG
    35    37     1
SMALL
NO_CHARGES
****
Generated from CSD

@<TRIPOS>ATOM
      1 O1         7.2827   11.7324   -0.0812 O.3       1 RES1    0.0000
      2 O2         6.4942    9.6003    3.5424 O.2       1 RES1    0.0000
      3 O3         4.8318   10.7655    4.3248 O.2       1 RES1    0.0000
      4 O4         7.6874   14.2599    6.7469 O.2       1 RES1    0.0000
      5 O5         8.7821   15.6163    5.4701 O.2       1 RES1    0.0000
      6 O6         4.7497    8.4730   -4.8999 O.2       1 RES1    0.0000
      7 O7         5.6073    9.5016   -6.6089 O.2       1 RES1    0.0000
      8 O8         9.8898   11.6837   -5.8502 O.2       1 RES1    0.0000
      9 O9        10.1261   12.8140   -4.0108 O.2       1 RES1    0.0000
     10 N1         5.6613   10.6971    1.0125 N.2       1 RES1    0.0000
     11 N2         5.6032   10.3136   -0.3313 N.2       1 RES1    0.0000
     12 N3         5.9440   10.6528    3.8267 N.pl3     1 RES1    0.0000
     13 N4         8.1134   14.6120    5.6577 N.pl3     1 RES1    0.0000
     14 N5         5.5323    9.2730   -5.4111 N.pl3     1 RES1    0.0000
     15 N6         9.5268   12.0225   -4.7244 N.pl3     1 RES1    0.0000
     16 C1         6.6616   11.5129    1.1107 C.2       1 RES1    0.0000
     17 C2         6.5658   10.9440   -0.9251 C.2       1 RES1    0.0000
     18 C3         7.1192   12.2414    2.2881 C.ar      1 RES1    0.0000
     19 C4         6.7051   11.8947    3.5809 C.ar      1 RES1    0.0000
     20 C5         7.0089   12.6524    4.6892 C.ar      1 RES1    0.0000
     21 H1         6.7053   12.4194    5.5366 H         1 RES1    0.0000
     22 C6         7.7898   13.7814    4.4825 C.ar      1 RES1    0.0000
     23 C7         8.2646   14.1510    3.2388 C.ar      1 RES1    0.0000
     24 H2         8.8050   14.9007    3.1402 H         1 RES1    0.0000
     25 C8         7.9164   13.3795    2.1435 C.ar      1 RES1    0.0000
     26 H3         8.2175   13.6223    1.2982 H         1 RES1    0.0000
     27 C9         6.9063   10.8815   -2.3400 C.ar      1 RES1    0.0000
     28 C10        6.0969   10.1070   -3.1766 C.ar      1 RES1    0.0000
     29 H4         5.3610    9.6501   -2.8382 H         1 RES1    0.0000
     30 C11        6.4178   10.0382   -4.5133 C.ar      1 RES1    0.0000
     31 C12        7.5243   10.6578   -5.0644 C.ar      1 RES1    0.0000
     32 H5         7.7314   10.5828   -5.9680 H         1 RES1    0.0000
     33 C13        8.3043   11.3950   -4.1937 C.ar      1 RES1    0.0000
     34 C14        8.0211   11.5442   -2.8484 C.ar      1 RES1    0.0000
     35 H6         8.5577   12.0701   -2.3009 H         1 RES1    0.0000
@<TRIPOS>BOND
     1    1   16 1
     2    2   12 2
     3    3   12 2
     4    4   13 2
     5    5   13 2
     6    6   14 2
     7    7   14 2
     8    8   15 2
     9    9   15 2
    10   10   11 1
    11   11   17 2
    12   12   19 1
    13   13   22 1
    14   14   30 1
    15   15   33 1
    16   16   10 2
    17   17    1 1
    18   18   16 1
    19   19   18 ar
    20   20   19 ar
    21   21   20 1
    22   22   20 ar
    23   23   22 ar
    24   24   23 1
    25   25   18 ar
    26   26   25 1
    27   27   17 1
    28   28   27 ar
    29   29   28 1
    30   30   28 ar
    31   31   30 ar
    32   32   31 1
    33   33   31 ar
    34   34   27 ar
    35   35   34 1
    36   23   25 ar
    37   33   34 ar
@<TRIPOS>SUBSTRUCTURE
     1 RES1 1

@<TRIPOS>CRYSIN
  10.0253   12.0041   13.8984  90.0000 109.8400  90.0000  14 1

