# MOL2 file generated by ConQuest
# Please check atom types

@<TRIPOS>MOLECULE
AHIVEU
    28    29     1
SMALL
NO_CHARGES
****
Generated from CSD

@<TRIPOS>ATOM
      1 O1         3.7305    7.0901    6.3373 O.2       1 RES1    0.0000
      2 O2         3.9363    4.9333    6.3596 O.2       1 RES1    0.0000
      3 O3        -1.9650    5.8743    8.3440 O.3       1 RES1    0.0000
      4 O4         3.8628    6.9845    8.9918 O.3       1 RES1    0.0000
      5 N1         3.3266    5.9647    6.6209 N.pl3     1 RES1    0.0000
      6 C1         1.9970    5.8411    7.2112 C.ar      1 RES1    0.0000
      7 C2         1.1115    5.1041    6.4935 C.ar      1 RES1    0.0000
      8 H1         1.4135    4.6098    5.7399 H         1 RES1    0.0000
      9 C3        -0.2439    5.0640    6.8528 C.ar      1 RES1    0.0000
     10 H2        -0.8590    4.5361    6.3561 H         1 RES1    0.0000
     11 C4        -0.6701    5.7967    7.9299 C.ar      1 RES1    0.0000
     12 C5         0.2545    6.5327    8.7452 C.ar      1 RES1    0.0000
     13 C6         1.6271    6.5337    8.3998 C.ar      1 RES1    0.0000
     14 C7        -0.1834    7.1971    9.9109 C.ar      1 RES1    0.0000
     15 H3        -1.1073    7.2144   10.1319 H         1 RES1    0.0000
     16 C8         0.7271    7.8160   10.7212 C.ar      1 RES1    0.0000
     17 H4         0.4281    8.2691   11.5007 H         1 RES1    0.0000
     18 C9         2.0897    7.7922   10.4196 C.ar      1 RES1    0.0000
     19 H5         2.7057    8.2301   10.9950 H         1 RES1    0.0000
     20 C10        2.5481    7.1472    9.3057 C.ar      1 RES1    0.0000
     21 C11       -2.9496    5.1366    7.6034 C.3       1 RES1    0.0000
     22 H6        -2.9180    5.4054    6.6617 H         1 RES1    0.0000
     23 H7        -3.8410    5.3252    7.9667 H         1 RES1    0.0000
     24 H8        -2.7633    4.1774    7.6761 H         1 RES1    0.0000
     25 C12        4.8263    7.7347    9.7447 C.3       1 RES1    0.0000
     26 H9         5.7283    7.5223    9.4241 H         1 RES1    0.0000
     27 H10        4.7538    7.5006   10.6933 H         1 RES1    0.0000
     28 H11        4.6566    8.6929    9.6292 H         1 RES1    0.0000
@<TRIPOS>BOND
     1    1    5 2
     2    2    5 2
     3    3   11 1
     4    4   20 1
     5    5    6 1
     6    6    7 ar
     7    7    8 1
     8    9    7 ar
     9   10    9 1
    10   11    9 ar
    11   12   11 ar
    12   13    6 ar
    13   14   12 ar
    14   15   14 1
    15   16   14 ar
    16   17   16 1
    17   18   16 ar
    18   19   18 1
    19   20   13 ar
    20   21    3 1
    21   22   21 1
    22   23   21 1
    23   24   21 1
    24   25    4 1
    25   26   25 1
    26   27   25 1
    27   28   25 1
    28   12   13 ar
    29   18   20 ar
@<TRIPOS>SUBSTRUCTURE
     1 RES1 1

@<TRIPOS>CRYSIN
   9.7110   10.8390   10.3830  90.0000 106.5140  90.0000 231 1

