# MOL2 file generated by ConQuest
# Please check atom types

@<TRIPOS>MOLECULE
AHUXUX
    34    35     1
SMALL
NO_CHARGES
****
Generated from CSD

@<TRIPOS>ATOM
      1 C1         2.9617    1.2698    3.9674 C.2       1 RES1    0.0000
      2 C2         3.3294    1.9843    5.0410 C.2       1 RES1    0.0000
      3 H1         3.5271    1.6594    5.9106 H         1 RES1    0.0000
      4 C3         3.0062    3.2541    3.3030 C.2       1 RES1    0.0000
      5 C4         3.6736    4.4162    5.4418 C.3       1 RES1    0.0000
      6 H2         3.3831    4.2378    6.3710 H         1 RES1    0.0000
      7 H3         3.1645    5.1988    5.1102 H         1 RES1    0.0000
      8 C5         5.1538    4.7503    5.4394 C.2       1 RES1    0.0000
      9 C6         6.8591    5.9704    6.7480 C.3       1 RES1    0.0000
     10 H4         7.4624    5.6633    6.0251 H         1 RES1    0.0000
     11 H5         7.1915    5.5909    7.6008 H         1 RES1    0.0000
     12 C7         6.9115    7.4658    6.8255 C.ar      1 RES1    0.0000
     13 C8         7.2517    8.1121    7.9993 C.ar      1 RES1    0.0000
     14 H6         7.4703    7.5987    8.7686 H         1 RES1    0.0000
     15 C9         7.2792    9.4862    8.0732 C.ar      1 RES1    0.0000
     16 H7         7.5030    9.9154    8.8903 H         1 RES1    0.0000
     17 C10        6.9821   10.2310    6.9651 C.ar      1 RES1    0.0000
     18 H8         7.0018   11.1793    7.0092 H         1 RES1    0.0000
     19 C11        6.6641    9.6133    5.8104 C.ar      1 RES1    0.0000
     20 H9         6.4560   10.1376    5.0458 H         1 RES1    0.0000
     21 C12        6.6353    8.2593    5.7149 C.ar      1 RES1    0.0000
     22 H10        6.4259    7.8504    4.8847 H         1 RES1    0.0000
     23 C13        2.9447    4.4886    2.4704 C.3       1 RES1    0.0000
     24 H11        2.6659    4.2546    1.5602 H         1 RES1    0.0000
     25 H12        3.8294    4.9085    2.4418 H         1 RES1    0.0000
     26 H13        2.2981    5.1138    2.8593 H         1 RES1    0.0000
     27 N1         3.3582    3.2642    4.6175 N.3       1 RES1    0.0000
     28 N2         2.7510    2.0415    2.8879 N.2       1 RES1    0.0000
     29 N3         2.7889   -0.1565    3.8958 N.pl3     1 RES1    0.0000
     30 N4         5.5190    5.4689    6.4951 N.am      1 RES1    0.0000
     31 O1         3.0520   -0.7860    4.9122 O.2       1 RES1    0.0000
     32 O2         2.4042   -0.6522    2.8605 O.2       1 RES1    0.0000
     33 O3         5.8880    4.4137    4.5448 O.2       1 RES1    0.0000
     34 H14        4.9470    5.6212    7.0736 H         1 RES1    0.0000
@<TRIPOS>BOND
     1    1    2 2
     2    2    3 1
     3    4   23 1
     4    5    6 1
     5    7    5 1
     6    8    5 1
     7    9   10 1
     8   11    9 1
     9   12    9 1
    10   13   12 ar
    11   14   13 1
    12   15   13 ar
    13   16   15 1
    14   17   15 ar
    15   18   17 1
    16   19   17 ar
    17   20   19 1
    18   21   12 ar
    19   22   21 1
    20   23   24 1
    21   25   23 1
    22   26   23 1
    23   27    2 1
    24   28    1 1
    25   29    1 1
    26   30    8 1
    27   31   29 2
    28   32   29 2
    29   33    8 2
    30   34   30 1
    31    4   27 1
    32    4   28 2
    33    5   27 1
    34    9   30 1
    35   19   21 ar
@<TRIPOS>SUBSTRUCTURE
     1 RES1 1

@<TRIPOS>CRYSIN
  13.0874    8.4150   11.9285  90.0000  90.0000  90.0000  33 1

