# MOL2 file generated by ConQuest
# Please check atom types

@<TRIPOS>MOLECULE
AHUXIK
    79    82     1
SMALL
NO_CHARGES
****
Generated from CSD

@<TRIPOS>ATOM
      1 N1         1.4628    3.6398   -1.5394 N.am      1 RES1    0.0000
      2 C1         2.5011    4.3913   -2.0550 C.2       1 RES1    0.0000
      3 C2         3.2485    5.0757   -1.0269 C.2       1 RES1    0.0000
      4 C3         2.8778    4.9403    0.3335 C.2       1 RES1    0.0000
      5 C4         1.7550    4.1767    0.7501 C.2       1 RES1    0.0000
      6 C5         1.3431    4.0934    2.1830 C.ar      1 RES1    0.0000
      7 C6         0.6373    5.1333    2.7646 C.ar      1 RES1    0.0000
      8 C7         0.2244    5.0826    4.0949 C.ar      1 RES1    0.0000
      9 C8         0.5518    3.9284    4.8334 C.ar      1 RES1    0.0000
     10 C9         1.2563    2.8469    4.2690 C.ar      1 RES1    0.0000
     11 C10        1.6585    2.9757    2.9365 C.ar      1 RES1    0.0000
     12 C11        1.0771    3.5303   -0.2409 C.2       1 RES1    0.0000
     13 C12       -0.1352    2.6567   -0.1835 C.3       1 RES1    0.0000
     14 C13        0.1360    1.3500    0.5735 C.2       1 RES1    0.0000
     15 O1         1.1639    0.7454    0.3678 O.2       1 RES1    0.0000
     16 C14       -0.8943    0.9076    1.5865 C.3       1 RES1    0.0000
     17 C15       -0.9532   -0.5955    1.8461 C.3       1 RES1    0.0000
     18 C16       -1.9448   -1.3540    0.9577 C.3       1 RES1    0.0000
     19 C17       -1.5452   -1.5675   -0.5031 C.3       1 RES1    0.0000
     20 C18       -2.4153   -0.8599   -1.5427 C.3       1 RES1    0.0000
     21 C19       -2.2260    0.6468   -1.6269 C.3       1 RES1    0.0000
     22 C20       -0.8412    1.0576   -2.1473 C.3       1 RES1    0.0000
     23 C21       -0.4611    2.4440   -1.6961 C.3       1 RES1    0.0000
     24 O2         0.7586    2.8086   -2.4109 O.3       1 RES1    0.0000
     25 O3         2.7081    4.3947   -3.2738 O.2       1 RES1    0.0000
     26 C22        4.4120    5.8878   -1.3627 C.2       1 RES1    0.0000
     27 O4         5.0966    6.3961   -0.4573 O.2       1 RES1    0.0000
     28 C23        4.8359    6.1282   -2.7715 C.3       1 RES1    0.0000
     29 O5         3.5837    5.5215    1.2912 O.3       1 RES1    0.0000
     30 C24       -0.5715    6.2422    4.7099 C.3       1 RES1    0.0000
     31 C25       -0.7614    7.3927    3.7165 C.3       1 RES1    0.0000
     32 C26       -1.9750    5.7499    5.1149 C.3       1 RES1    0.0000
     33 C27        0.1703    6.8276    5.9249 C.3       1 RES1    0.0000
     34 O6         0.0751    3.8427    6.1318 O.3       1 RES1    0.0000
     35 C28        1.5728    1.5551    5.0468 C.3       1 RES1    0.0000
     36 C29        2.2412    0.5007    4.1584 C.3       1 RES1    0.0000
     37 C30        2.5547    1.8434    6.1995 C.3       1 RES1    0.0000
     38 C31        0.2868    0.9316    5.5995 C.3       1 RES1    0.0000
     39 H1         4.3129    5.9034    0.9808 H         1 RES1    0.0000
     40 H2         0.7249    3.8759    6.6807 H         1 RES1    0.0000
     41 H3         0.4178    5.9411    2.2177 H         1 RES1    0.0000
     42 H4         2.1895    2.2401    2.5165 H         1 RES1    0.0000
     43 H5        -0.9007    3.0530    0.3219 H         1 RES1    0.0000
     44 H6        -0.6908    1.3635    2.4530 H         1 RES1    0.0000
     45 H7        -1.7937    1.2005    1.2600 H         1 RES1    0.0000
     46 H8        -1.2161   -0.7374    2.8003 H         1 RES1    0.0000
     47 H9        -0.0408   -0.9759    1.6915 H         1 RES1    0.0000
     48 H10       -2.0878   -2.2560    1.3661 H         1 RES1    0.0000
     49 H11       -2.8058   -0.8448    0.9634 H         1 RES1    0.0000
     50 H12       -1.5806   -2.5482   -0.6900 H         1 RES1    0.0000
     51 H13       -0.6067   -1.2403   -0.6150 H         1 RES1    0.0000
     52 H14       -3.3736   -1.0395   -1.3177 H         1 RES1    0.0000
     53 H15       -2.2052   -1.2502   -2.4392 H         1 RES1    0.0000
     54 H16       -2.9194    1.0197   -2.2430 H         1 RES1    0.0000
     55 H17       -2.3488    1.0336   -0.7131 H         1 RES1    0.0000
     56 H18       -0.8509    1.0336   -3.1476 H         1 RES1    0.0000
     57 H19       -0.1613    0.4095   -1.8057 H         1 RES1    0.0000
     58 H20       -1.2756    2.9934   -1.8819 H         1 RES1    0.0000
     59 H21        5.6512    6.7064   -2.7796 H         1 RES1    0.0000
     60 H22        4.0975    6.5851   -3.2676 H         1 RES1    0.0000
     61 H23        5.0428    5.2534   -3.2111 H         1 RES1    0.0000
     62 H24       -1.2827    8.1275    4.1515 H         1 RES1    0.0000
     63 H25        0.1326    7.7399    3.4338 H         1 RES1    0.0000
     64 H26       -1.2588    7.0622    2.9146 H         1 RES1    0.0000
     65 H27       -2.4911    6.5076    5.5153 H         1 RES1    0.0000
     66 H28       -1.8894    5.0129    5.7853 H         1 RES1    0.0000
     67 H29       -2.4548    5.4104    4.3049 H         1 RES1    0.0000
     68 H30       -0.3640    7.5809    6.3103 H         1 RES1    0.0000
     69 H31        1.0653    7.1675    5.6376 H         1 RES1    0.0000
     70 H32        0.2903    6.1160    6.6172 H         1 RES1    0.0000
     71 H33        2.4298   -0.3200    4.6984 H         1 RES1    0.0000
     72 H34        3.0982    0.8646    3.7949 H         1 RES1    0.0000
     73 H35        1.6307    0.2683    3.4003 H         1 RES1    0.0000
     74 H36        2.7482    0.9958    6.6922 H         1 RES1    0.0000
     75 H37        2.1474    2.5084    6.8260 H         1 RES1    0.0000
     76 H38        3.4057    2.2143    5.8268 H         1 RES1    0.0000
     77 H39        0.5104    0.0954    6.1014 H         1 RES1    0.0000
     78 H40       -0.1600    1.5802    6.2157 H         1 RES1    0.0000
     79 H41       -0.3292    0.7116    4.8426 H         1 RES1    0.0000
@<TRIPOS>BOND
     1    1    2 1
     2    2    3 1
     3    3    4 2
     4    4    5 1
     5    5    6 1
     6    6    7 ar
     7    7    8 ar
     8    8    9 ar
     9    9   10 ar
    10   10   11 ar
    11   11    6 ar
    12   12    1 1
    13   13   12 1
    14   14   13 1
    15   15   14 2
    16   16   14 1
    17   17   16 1
    18   18   17 1
    19   19   18 1
    20   20   19 1
    21   21   20 1
    22   22   21 1
    23   23   13 1
    24   24    1 1
    25   25    2 2
    26   26    3 1
    27   27   26 2
    28   28   26 1
    29   29    4 1
    30   30    8 1
    31   31   30 1
    32   32   30 1
    33   33   30 1
    34   34    9 1
    35   35   10 1
    36   36   35 1
    37   37   35 1
    38   38   35 1
    39   39   29 1
    40   40   34 1
    41   41    7 1
    42   42   11 1
    43   43   13 1
    44   44   16 1
    45   45   16 1
    46   46   17 1
    47   47   17 1
    48   48   18 1
    49   49   18 1
    50   50   19 1
    51   51   19 1
    52   52   20 1
    53   53   20 1
    54   54   21 1
    55   55   21 1
    56   56   22 1
    57   57   22 1
    58   58   23 1
    59   59   28 1
    60   60   28 1
    61   61   28 1
    62   62   31 1
    63   63   31 1
    64   64   31 1
    65   65   32 1
    66   66   32 1
    67   67   32 1
    68   68   33 1
    69   69   33 1
    70   70   33 1
    71   71   36 1
    72   72   36 1
    73   73   36 1
    74   74   37 1
    75   75   37 1
    76   76   37 1
    77   77   38 1
    78   78   38 1
    79   79   38 1
    80    5   12 2
    81   22   23 1
    82   23   24 1
@<TRIPOS>SUBSTRUCTURE
     1 RES1 1

@<TRIPOS>CRYSIN
   6.0298   19.8766   11.5736  90.0000  94.4784  90.0000   4 1

