# MOL2 file generated by ConQuest
# Please check atom types

@<TRIPOS>MOLECULE
AJAROT
    19    19     1
SMALL
USER_CHARGES
****
Generated from CSD

@<TRIPOS>ATOM
      1 O1        -1.6031    2.2819   11.9154 O.2       1 RES1    0.0000
      2 O2        -2.4427    3.7203   10.5189 O.2       1 RES1    0.0000
      3 N1         0.5949    1.0383   11.3415 N.3       1 RES1    0.0000
      4 N2        -0.5980    2.7082    9.9247 N.2       1 RES1    0.0000
      5 N3        -1.5636    2.8895   10.8420 N.pl3     1 RES1    0.0000
      6 N4        -0.6513    1.9501    6.5948 N.1       1 RES1    1.0000
      7 N5         1.7802    0.3783   11.1877 N.2       1 RES1    0.0000
      8 N6         1.4715    1.7158    9.5460 N.pl3     1 RES1    0.0000
      9 N7         2.3116    0.7962   10.0954 N.2       1 RES1    0.0000
     10 N8         0.0805    1.0344    6.9657 N.2       1 RES1    0.0000
     11 C1         1.7850    2.3046    8.2476 C.3       1 RES1    0.0000
     12 C2         0.3755    1.8678   10.3120 C.2       1 RES1    0.0000
     13 C3         1.5034    1.3652    7.1073 C.3       1 RES1    0.0000
     14 N9        -1.4495    2.6885    6.2713 N.2       1 RES1   -1.0000
     15 H1         1.2616    3.1024    8.1668 H         1 RES1    0.0000
     16 H2         1.8321    1.7649    6.2902 H         1 RES1    0.0000
     17 H3         2.7209    2.5246    8.2806 H         1 RES1    0.0000
     18 H4        -0.0178    0.7835   12.0354 H         1 RES1    0.0000
     19 H5         1.9226    0.5540    7.2710 H         1 RES1    0.0000
@<TRIPOS>BOND
     1    1    5 2
     2    2    5 2
     3    3    7 1
     4    4    5 1
     5    6   10 2
     6    7    9 2
     7    8    9 1
     8   10   13 1
     9   11    8 1
    10   12    3 1
    11   13   11 1
    12   14    6 2
    13   15   11 1
    14   16   13 1
    15   17   11 1
    16   18    3 1
    17   19   13 1
    18    4   12 2
    19    8   12 1
@<TRIPOS>SUBSTRUCTURE
     1 RES1 1

@<TRIPOS>CRYSIN
   6.2652    7.9142   16.0260  90.0000  90.2040  90.0000 231 1

