# MOL2 file generated by ConQuest
# Please check atom types

@<TRIPOS>MOLECULE
AJEQIQ
    40    42     1
SMALL
USER_CHARGES
****
Generated from CSD

@<TRIPOS>ATOM
      1 N1        10.1918    9.1073    2.4785 N.pl3     1 RES1    0.0000
      2 O1        10.8029    8.0823    2.9269 O.2       1 RES1    0.0000
      3 C1         9.6629   11.3447    1.9241 C.3       1 RES1    0.0000
      4 C2         9.8843   12.1541    0.6700 C.3       1 RES1    0.0000
      5 H1         9.0626   12.5691    0.4576 H         1 RES1    0.0000
      6 H2        10.1915   11.5609   -0.0179 H         1 RES1    0.0000
      7 H3        10.6426   12.8798    0.8537 H         1 RES1    0.0000
      8 C3         9.1516   12.2494    3.0204 C.3       1 RES1    0.0000
      9 H4         8.3609   12.6441    2.6808 H         1 RES1    0.0000
     10 H5         9.8639   12.9091    3.2753 H         1 RES1    0.0000
     11 H6         8.8934   11.7447    3.8668 H         1 RES1    0.0000
     12 C4        10.8499   10.4311    2.3484 C.3       1 RES1    0.0000
     13 C5        11.9194   10.2765    1.3044 C.3       1 RES1    0.0000
     14 H7        12.6504    9.7514    1.6658 H         1 RES1    0.0000
     15 H8        12.2472   11.1518    1.0453 H         1 RES1    0.0000
     16 H9        11.5508    9.8265    0.5281 H         1 RES1    0.0000
     17 C6        11.4544   10.7601    3.6917 C.3       1 RES1    0.0000
     18 H10       12.2042   10.1688    3.8624 H         1 RES1    0.0000
     19 H11       10.7858   10.6429    4.3847 H         1 RES1    0.0000
     20 H12       11.7619   11.6801    3.6913 H         1 RES1    0.0000
     21 N2         8.5830   10.3330    1.6588 N.pl3     1 RES1    1.0000
     22 O2         7.4409   10.6562    1.1786 O.2       1 RES1   -1.0000
     23 C7         8.9386    9.1089    2.0382 C.2       1 RES1    0.0000
     24 C8         8.1013    7.9092    2.0170 C.ar      1 RES1    0.0000
     25 C9         7.1255    7.6598    2.9716 C.ar      1 RES1    0.0000
     26 H13        7.0061    8.2823    3.6482 H         1 RES1    0.0000
     27 C10        6.4329    6.4868    2.9556 C.ar      1 RES1    0.0000
     28 H14        5.7511    6.3090    3.6137 H         1 RES1    0.0000
     29 C11        6.7361    5.5304    1.9791 C.ar      1 RES1    0.0000
     30 C12        6.0935    4.2699    1.9008 C.ar      1 RES1    0.0000
     31 H15        5.4194    4.1224    2.4997 H         1 RES1    0.0000
     32 C13        6.4423    3.3657    0.9629 C.ar      1 RES1    0.0000
     33 H16        6.0260    2.5288    0.9364 H         1 RES1    0.0000
     34 C14        7.4361    3.6535    0.0392 C.ar      1 RES1    0.0000
     35 H17        7.7244    3.0235   -0.6294 H         1 RES1    0.0000
     36 C15        8.0727    4.8598    0.0512 C.ar      1 RES1    0.0000
     37 H18        8.7180    5.0764   -0.6007 H         1 RES1    0.0000
     38 C16        7.7284    5.7933    1.0268 C.ar      1 RES1    0.0000
     39 N3         8.3919    7.0323    1.0489 N.pl3     1 RES1    1.0000
     40 O3         9.2739    7.2970    0.1490 O.2       1 RES1   -1.0000
@<TRIPOS>BOND
     1    1    2 1
     2    3    4 1
     3    4    5 1
     4    6    4 1
     5    7    4 1
     6    8    3 1
     7    9    8 1
     8   10    8 1
     9   11    8 1
    10   12    1 1
    11   13   12 1
    12   14   13 1
    13   15   13 1
    14   16   13 1
    15   17   12 1
    16   18   17 1
    17   19   17 1
    18   20   17 1
    19   21    3 1
    20   22   21 1
    21   23    1 1
    22   24   23 1
    23   25   24 ar
    24   26   25 1
    25   27   25 ar
    26   28   27 1
    27   29   27 ar
    28   30   29 ar
    29   31   30 1
    30   32   30 ar
    31   33   32 1
    32   34   32 ar
    33   35   34 1
    34   36   34 ar
    35   37   36 1
    36   38   29 ar
    37   39   24 ar
    38   40   39 1
    39    3   12 1
    40   21   23 2
    41   36   38 ar
    42   38   39 ar
@<TRIPOS>SUBSTRUCTURE
     1 RES1 1

@<TRIPOS>CRYSIN
  12.4380   11.6540   11.1150  90.0000 109.7050  90.0000  14 1

