# MOL2 file generated by ConQuest
# Please check atom types

@<TRIPOS>MOLECULE
AJEROY
    36    37     1
SMALL
NO_CHARGES
****
Generated from CSD

@<TRIPOS>ATOM
      1 N1        -2.6829    6.4714    8.3280 N.pl3     1 RES1    0.0000
      2 O1        -2.9746    5.9477    9.4580 O.2       1 RES1    0.0000
      3 N2        -2.1428    6.6899    6.2176 N.pl3     1 RES1    0.0000
      4 O2        -1.9822    6.4341    4.9689 O.2       1 RES1    0.0000
      5 N3        -4.2433    2.5420    7.2305 N.ar      1 RES1    0.0000
      6 C1        -2.0365    8.6483    9.3100 C.3       1 RES1    0.0000
      7 H1        -2.0146    9.5960    9.1594 H         1 RES1    0.0000
      8 H2        -2.5667    8.4588   10.0880 H         1 RES1    0.0000
      9 H3        -1.1421    8.3253    9.4460 H         1 RES1    0.0000
     10 C2        -4.0899    8.4019    7.9083 C.3       1 RES1    0.0000
     11 H4        -4.1177    9.3506    7.7617 H         1 RES1    0.0000
     12 H5        -4.4616    7.9504    7.1470 H         1 RES1    0.0000
     13 H6        -4.6009    8.1845    8.6903 H         1 RES1    0.0000
     14 C3        -2.6433    7.9601    8.1059 C.3       1 RES1    0.0000
     15 C4        -1.7984    8.0238    6.8131 C.3       1 RES1    0.0000
     16 C5        -2.1526    9.1490    5.8569 C.3       1 RES1    0.0000
     17 H7        -1.9244    9.9914    6.2560 H         1 RES1    0.0000
     18 H8        -1.6626    9.0394    5.0388 H         1 RES1    0.0000
     19 H9        -3.0945    9.1274    5.6714 H         1 RES1    0.0000
     20 C6        -0.2983    7.9856    7.0793 C.3       1 RES1    0.0000
     21 H10       -0.0206    8.8203    7.4638 H         1 RES1    0.0000
     22 H11       -0.0996    7.2707    7.6884 H         1 RES1    0.0000
     23 H12        0.1693    7.8423    6.2532 H         1 RES1    0.0000
     24 C7        -2.4983    5.8100    7.1700 C.2       1 RES1    0.0000
     25 C8        -2.7057    4.3730    6.9781 C.ar      1 RES1    0.0000
     26 C9        -1.7268    3.5506    6.4349 C.ar      1 RES1    0.0000
     27 C10       -0.3591    4.0437    6.0802 C.3       1 RES1    0.0000
     28 H13        0.1594    3.3197    5.7212 H         1 RES1    0.0000
     29 H14       -0.4300    4.7413    5.4242 H         1 RES1    0.0000
     30 H15        0.0717    4.3861    6.8669 H         1 RES1    0.0000
     31 C11       -3.9158    3.8193    7.3668 C.ar      1 RES1    0.0000
     32 H16       -4.5444    4.3862    7.7514 H         1 RES1    0.0000
     33 C12       -2.0763    2.2174    6.2733 C.ar      1 RES1    0.0000
     34 H17       -1.4710    1.6236    5.8904 H         1 RES1    0.0000
     35 C13       -3.3006    1.7727    6.6733 C.ar      1 RES1    0.0000
     36 H18       -3.4951    0.8715    6.5502 H         1 RES1    0.0000
@<TRIPOS>BOND
     1    1    2 1
     2    3    4 1
     3    5   31 ar
     4    6    7 1
     5    8    6 1
     6    9    6 1
     7   10   11 1
     8   12   10 1
     9   13   10 1
    10   14    1 1
    11   15    3 1
    12   16   15 1
    13   17   16 1
    14   18   16 1
    15   19   16 1
    16   20   15 1
    17   21   20 1
    18   22   20 1
    19   23   20 1
    20   24    1 1
    21   25   24 1
    22   26   25 ar
    23   27   26 1
    24   28   27 1
    25   29   27 1
    26   30   27 1
    27   31   25 ar
    28   32   31 1
    29   33   26 ar
    30   34   33 1
    31   35    5 ar
    32   36   35 1
    33    3   24 2
    34    6   14 1
    35   10   14 1
    36   14   15 1
    37   33   35 ar
@<TRIPOS>SUBSTRUCTURE
     1 RES1 1

@<TRIPOS>CRYSIN
   7.1744   10.3105   10.5472 110.1270 101.2250 105.2720   2 1

