# MOL2 file generated by ConQuest
# Please check atom types

@<TRIPOS>MOLECULE
AJESAK
    24    25     1
SMALL
NO_CHARGES
****
Generated from CSD

@<TRIPOS>ATOM
      1 N1         0.2326    5.0333    5.1753 N.2       1 RES1    0.0000
      2 O1         0.8761    3.7549    5.0677 O.3       1 RES1    0.0000
      3 O2         1.5049    2.1121    6.4129 O.2       1 RES1    0.0000
      4 O3        -0.7402    4.4377   11.1342 O.3       1 RES1    0.0000
      5 H1        -0.9591    4.4637   11.9236 H         1 RES1    0.0000
      6 C1         0.9762    3.1853    6.3053 C.2       1 RES1    0.0000
      7 C2         0.3408    4.1138    7.2480 C.2       1 RES1    0.0000
      8 C3        -0.0678    5.2041    6.4109 C.2       1 RES1    0.0000
      9 C4        -0.7629    6.4441    6.8217 C.3       1 RES1    0.0000
     10 H2        -0.9146    6.9958    6.0516 H         1 RES1    0.0000
     11 H3        -0.2205    6.9203    7.4540 H         1 RES1    0.0000
     12 H4        -1.6043    6.2204    7.2260 H         1 RES1    0.0000
     13 C5         0.1347    4.0644    8.5901 C.2       1 RES1    0.0000
     14 H5        -0.3313    4.7979    8.9203 H         1 RES1    0.0000
     15 C6         0.4884    3.1126    9.6030 C.ar      1 RES1    0.0000
     16 C7         0.0322    3.3576   10.9173 C.ar      1 RES1    0.0000
     17 C8         0.3563    2.4909   11.9433 C.ar      1 RES1    0.0000
     18 H6         0.0487    2.6563   12.8044 H         1 RES1    0.0000
     19 C9         1.1265    1.3944   11.6938 C.ar      1 RES1    0.0000
     20 H7         1.3462    0.8193   12.3917 H         1 RES1    0.0000
     21 C10        1.5881    1.1247   10.4119 C.ar      1 RES1    0.0000
     22 H8         2.1091    0.3726   10.2484 H         1 RES1    0.0000
     23 C11        1.2679    1.9776    9.3961 C.ar      1 RES1    0.0000
     24 H9         1.5797    1.7944    8.5386 H         1 RES1    0.0000
@<TRIPOS>BOND
     1    1    2 1
     2    2    6 1
     3    3    6 2
     4    4    5 1
     5    6    7 1
     6    7    8 1
     7    8    1 2
     8    9    8 1
     9   10    9 1
    10   11    9 1
    11   12    9 1
    12   13    7 2
    13   14   13 1
    14   15   13 1
    15   16    4 1
    16   17   16 ar
    17   18   17 1
    18   19   17 ar
    19   20   19 1
    20   21   19 ar
    21   22   21 1
    22   23   15 ar
    23   24   23 1
    24   15   16 ar
    25   21   23 ar
@<TRIPOS>SUBSTRUCTURE
     1 RES1 1

@<TRIPOS>CRYSIN
   8.0172    6.8620   17.5350  90.0000  99.9620  90.0000  14 1

