# MOL2 file generated by ConQuest
# Please check atom types

@<TRIPOS>MOLECULE
AJIMAJ01
    59    60     1
SMALL
NO_CHARGES
****
Generated from CSD

@<TRIPOS>ATOM
      1 N1         9.4591    6.3507    2.4850 N.am      1 RES1    0.0000
      2 C1        10.8165    6.2168    3.0308 C.3       1 RES1    0.0000
      3 H1        11.2824    5.4761    2.5702 H         1 RES1    0.0000
      4 H2        10.7973    6.0144    4.0009 H         1 RES1    0.0000
      5 C2        11.4508    7.5754    2.7742 C.3       1 RES1    0.0000
      6 H3        11.9561    7.8798    3.4964 H         1 RES1    0.0000
      7 H4        11.9651    7.5684    1.9847 H         1 RES1    0.0000
      8 C3        10.3158    8.5243    2.4989 C.2       1 RES1    0.0000
      9 C4         8.9987    7.7237    2.3321 C.3       1 RES1    0.0000
     10 O1        10.3744    9.7248    2.4073 O.2       1 RES1    0.0000
     11 C5         8.4475    7.9617    0.9100 C.2       1 RES1    0.0000
     12 O2         7.4806    8.6240    0.6614 O.2       1 RES1    0.0000
     13 O3         9.2173    7.3441    0.0127 O.3       1 RES1    0.0000
     14 C6         8.7618    7.3863   -1.3769 C.3       1 RES1    0.0000
     15 H5         7.7881    7.2644   -1.3777 H         1 RES1    0.0000
     16 H6         9.2074    6.6342   -1.7664 H         1 RES1    0.0000
     17 C7         9.1894    8.6568   -2.0601 C.3       1 RES1    0.0000
     18 H7         8.7223    9.4012   -1.7118 H         1 RES1    0.0000
     19 H8         8.9199    8.5723   -2.9903 H         1 RES1    0.0000
     20 H9        10.0877    8.7962   -1.9500 H         1 RES1    0.0000
     21 C8         7.9451    8.1191    3.4258 C.3       1 RES1    0.0000
     22 H10        7.1503    7.6781    3.1590 H         1 RES1    0.0000
     23 C9         7.6551    9.6213    3.4371 C.3       1 RES1    0.0000
     24 H11        8.1294   10.1026    4.1100 H         1 RES1    0.0000
     25 H12        7.7342   10.0700    2.5752 H         1 RES1    0.0000
     26 N2         6.2195    9.8986    3.7974 N.pl3     1 RES1    0.0000
     27 O4         5.8406   11.0475    3.6324 O.2       1 RES1    0.0000
     28 O5         5.5039    8.9973    4.2119 O.2       1 RES1    0.0000
     29 C10        8.3739    7.5650    4.7749 C.ar      1 RES1    0.0000
     30 C11        7.8718    6.3420    5.2036 C.ar      1 RES1    0.0000
     31 H13        7.1952    5.9150    4.6790 H         1 RES1    0.0000
     32 C12        8.3163    5.7273    6.3735 C.ar      1 RES1    0.0000
     33 H14        7.9857    4.9215    6.6340 H         1 RES1    0.0000
     34 C13        9.2921    6.3566    7.1323 C.ar      1 RES1    0.0000
     35 C14        9.8110    7.5840    6.7226 C.ar      1 RES1    0.0000
     36 H15       10.4919    8.0325    7.2773 H         1 RES1    0.0000
     37 C15        9.3479    8.1801    5.5592 C.ar      1 RES1    0.0000
     38 H16        9.7374    9.0038    5.2992 H         1 RES1    0.0000
     39 O6         9.8056    5.8663    8.3010 O.3       1 RES1    0.0000
     40 C16        9.2694    4.6330    8.7836 C.3       1 RES1    0.0000
     41 H17        8.3450    4.7199    8.9511 H         1 RES1    0.0000
     42 H18        9.6924    4.4678    9.6540 H         1 RES1    0.0000
     43 H19        9.4050    3.8984    8.1523 H         1 RES1    0.0000
     44 C17        8.6859    5.2580    2.2700 C.2       1 RES1    0.0000
     45 O7         9.0532    4.1141    2.4424 O.2       1 RES1    0.0000
     46 O8         7.4721    5.6498    1.8398 O.3       1 RES1    0.0000
     47 C18        6.3993    4.6948    1.5003 C.3       1 RES1    0.0000
     48 C19        5.2936    5.6317    1.0833 C.3       1 RES1    0.0000
     49 H20        4.5004    5.1158    0.9262 H         1 RES1    0.0000
     50 H21        5.0932    6.2872    1.7532 H         1 RES1    0.0000
     51 H22        5.5424    6.0648    0.3093 H         1 RES1    0.0000
     52 C20        6.8566    3.7763    0.3878 C.3       1 RES1    0.0000
     53 H23        7.1305    4.3121   -0.3854 H         1 RES1    0.0000
     54 H24        6.1200    3.1837    0.1307 H         1 RES1    0.0000
     55 H25        7.6147    3.2385    0.6980 H         1 RES1    0.0000
     56 C21        5.9951    3.9114    2.7389 C.3       1 RES1    0.0000
     57 H26        6.7102    3.3764    3.1342 H         1 RES1    0.0000
     58 H27        5.2909    3.2741    2.4528 H         1 RES1    0.0000
     59 H28        5.5963    4.5523    3.4237 H         1 RES1    0.0000
@<TRIPOS>BOND
     1    1    2 1
     2    2    3 1
     3    4    2 1
     4    5    2 1
     5    6    5 1
     6    7    5 1
     7    8    5 1
     8    9    1 1
     9   10    8 2
    10   11    9 1
    11   12   11 2
    12   13   11 1
    13   14   13 1
    14   15   14 1
    15   16   14 1
    16   17   14 1
    17   18   17 1
    18   19   17 1
    19   20   17 1
    20   21    9 1
    21   22   21 1
    22   23   21 1
    23   24   23 1
    24   25   23 1
    25   26   23 1
    26   27   26 2
    27   28   26 2
    28   29   21 1
    29   30   29 ar
    30   31   30 1
    31   32   30 ar
    32   33   32 1
    33   34   32 ar
    34   35   34 ar
    35   36   35 1
    36   37   29 ar
    37   38   37 1
    38   39   34 1
    39   40   39 1
    40   41   40 1
    41   42   40 1
    42   43   40 1
    43   44    1 1
    44   45   44 2
    45   46   44 1
    46   47   46 1
    47   48   47 1
    48   49   48 1
    49   50   48 1
    50   51   48 1
    51   52   47 1
    52   53   52 1
    53   54   52 1
    54   55   52 1
    55   56   47 1
    56   57   56 1
    57   58   56 1
    58   59   56 1
    59    8    9 1
    60   35   37 ar
@<TRIPOS>SUBSTRUCTURE
     1 RES1 1

@<TRIPOS>CRYSIN
   8.9828   14.8284   16.5394  90.0000  90.0000  90.0000  19 1

