# MOL2 file generated by ConQuest
# Please check atom types

@<TRIPOS>MOLECULE
AJOJEQ
    23    24     1
SMALL
USER_CHARGES
****
Generated from CSD

@<TRIPOS>ATOM
      1 O1         0.4786   10.5631    3.7476 O.2       1 RES1   -1.0000
      2 C1         0.8998   14.0697    2.9987 C.ar      1 RES1    0.0000
      3 C2         1.0078   14.5859    4.2498 C.ar      1 RES1    0.0000
      4 H1         1.1549   15.4977    4.3587 H         1 RES1    0.0000
      5 C3         0.8998   13.7606    5.3879 C.ar      1 RES1    0.0000
      6 C4         0.9587   14.2556    6.7085 C.ar      1 RES1    0.0000
      7 H2         1.0862   15.1652    6.8524 H         1 RES1    0.0000
      8 C5         0.8318   13.4231    7.7708 C.ar      1 RES1    0.0000
      9 H3         0.8711   13.7677    8.6336 H         1 RES1    0.0000
     10 C6         0.6433   12.0527    7.5820 C.ar      1 RES1    0.0000
     11 H4         0.5529   11.4959    8.3221 H         1 RES1    0.0000
     12 C7         0.5894   11.5148    6.3250 C.ar      1 RES1    0.0000
     13 H5         0.4786   10.5998    6.2041 H         1 RES1    0.0000
     14 C8         0.7043   12.3730    5.2216 C.ar      1 RES1    0.0000
     15 C9         0.7036   12.6748    2.8587 C.ar      1 RES1    0.0000
     16 C10        0.9482   14.9246    1.7581 C.3       1 RES1    0.0000
     17 H6         1.1710   15.8261    1.9993 H         1 RES1    0.0000
     18 H7         0.0911   14.9111    1.3257 H         1 RES1    0.0000
     19 H8         1.6139   14.5800    1.1583 H         1 RES1    0.0000
     20 N1         0.6286   11.8545    3.9226 N.pl3     1 RES1    1.0000
     21 N2         0.6237   12.1650    1.5681 N.2       1 RES1    0.0000
     22 N3         0.1675   11.0273    1.3514 N.1       1 RES1    1.0000
     23 N4        -0.2327   10.0876    0.8735 N.2       1 RES1   -1.0000
@<TRIPOS>BOND
     1    1   20 1
     2    2    3 ar
     3    3    4 1
     4    5    3 ar
     5    6    5 ar
     6    7    6 1
     7    8    6 ar
     8    9    8 1
     9   10    8 ar
    10   11   10 1
    11   12   10 ar
    12   13   12 1
    13   14    5 ar
    14   15    2 ar
    15   16    2 1
    16   17   16 1
    17   18   16 1
    18   19   16 1
    19   20   14 ar
    20   21   15 1
    21   22   21 2
    22   23   22 2
    23   12   14 ar
    24   15   20 ar
@<TRIPOS>SUBSTRUCTURE
     1 RES1 1

@<TRIPOS>CRYSIN
   7.0080   13.5150   19.4670  90.0000  90.0000  90.0000  61 1

