# MOL2 file generated by ConQuest
# Please check atom types

@<TRIPOS>MOLECULE
AJONUI
    18    19     1
SMALL
NO_CHARGES
****
Generated from CSD

@<TRIPOS>ATOM
      1 O1         0.5289    0.8771    3.9509 O.2       1 RES1    0.0000
      2 O2         4.2995    1.6311    6.4440 O.2       1 RES1    0.0000
      3 N1         2.5698    3.6778    3.9026 N.3       1 RES1    0.0000
      4 N2         4.0273    3.3654    2.3188 N.2       1 RES1    0.0000
      5 N3         3.8921    2.1718    3.0202 N.2       1 RES1    0.0000
      6 N4         1.4157    0.7340    4.8615 N.3       1 RES1    0.0000
      7 N5         3.2173    1.0894    6.0497 N.pl3     1 RES1    0.0000
      8 C1         3.0083    2.4021    3.9549 C.2       1 RES1    0.0000
      9 C2         3.2251    4.2375    2.8592 C.2       1 RES1    0.0000
     10 C3         2.5542    1.4269    4.9326 C.2       1 RES1    0.0000
     11 C4         1.3398   -0.3464    5.8955 C.3       1 RES1    0.0000
     12 C5         1.6655   -1.6511    5.1713 C.3       1 RES1    0.0000
     13 C6        -0.0583   -0.3915    6.4842 C.3       1 RES1    0.0000
     14 C7         2.4551    0.1162    6.8933 C.3       1 RES1    0.0000
     15 C8         3.4031   -0.9873    7.3412 C.3       1 RES1    0.0000
     16 C9         1.9427    0.8982    8.0909 C.3       1 RES1    0.0000
     17 C10        1.5985    4.3076    4.7837 C.3       1 RES1    0.0000
     18 C11        3.0540    5.6473    2.4328 C.3       1 RES1    0.0000
@<TRIPOS>BOND
     1    1    6 1
     2    2    7 1
     3    3    8 1
     4    4    5 1
     5    5    8 2
     6    6   10 1
     7    7   10 2
     8    8   10 1
     9    9    3 1
    10   11    6 1
    11   12   11 1
    12   13   11 1
    13   14    7 1
    14   15   14 1
    15   16   14 1
    16   17    3 1
    17   18    9 1
    18    4    9 2
    19   11   14 1
@<TRIPOS>SUBSTRUCTURE
     1 RES1 1

@<TRIPOS>CRYSIN
   9.7230   10.0130   13.4110  90.0000  90.0000  90.0000  19 1

