# MOL2 file generated by ConQuest
# Please check atom types

@<TRIPOS>MOLECULE
AJUNIE
    71    73     1
SMALL
NO_CHARGES
****
Generated from CSD

@<TRIPOS>ATOM
      1 O1        10.0553   -4.8560    6.9135 O.2       1 RES1    0.0000
      2 N1         8.9550   -4.2803    6.6157 N.3       1 RES1    0.0000
      3 C1         8.1436   -3.5317    7.5924 C.3       1 RES1    0.0000
      4 O2         3.0107    0.6136    7.9485 O.3       1 RES1    0.0000
      5 N2         7.0634   -3.6492    5.4783 N.2       1 RES1    0.0000
      6 C2         6.9880   -3.1700    6.6682 C.2       1 RES1    0.0000
      7 C3         8.2880   -4.4232    5.3032 C.3       1 RES1    0.0000
      8 C4         7.9919   -5.8934    5.0349 C.3       1 RES1    0.0000
      9 H1         7.3554   -6.2273    5.7154 H         1 RES1    0.0000
     10 H2         8.8306   -6.4154    5.1194 H         1 RES1    0.0000
     11 C5         7.4011   -6.1086    3.6416 C.3       1 RES1    0.0000
     12 H3         7.2891   -7.0790    3.4810 H         1 RES1    0.0000
     13 H4         6.5077   -5.6848    3.5958 H         1 RES1    0.0000
     14 C6         8.2926   -5.5215    2.5579 C.3       1 RES1    0.0000
     15 H5         7.8574   -5.6336    1.6749 H         1 RES1    0.0000
     16 H6         9.1525   -6.0091    2.5388 H         1 RES1    0.0000
     17 C7         8.5515   -4.0416    2.8125 C.3       1 RES1    0.0000
     18 H7         7.6990   -3.5413    2.7374 H         1 RES1    0.0000
     19 H8         9.1714   -3.6932    2.1251 H         1 RES1    0.0000
     20 C8         9.1511   -3.8156    4.1980 C.3       1 RES1    0.0000
     21 H9         9.2468   -2.8427    4.3576 H         1 RES1    0.0000
     22 H10       10.0558   -4.2189    4.2319 H         1 RES1    0.0000
     23 C9         7.7501   -4.4853    8.7278 C.3       1 RES1    0.0000
     24 H11        7.2079   -5.2177    8.3672 H         1 RES1    0.0000
     25 H12        7.2294   -3.9964    9.4005 H         1 RES1    0.0000
     26 H13        8.5604   -4.8506    9.1436 H         1 RES1    0.0000
     27 C10        8.9536   -2.3430    8.1044 C.3       1 RES1    0.0000
     28 H14        9.7762   -2.6661    8.5294 H         1 RES1    0.0000
     29 H15        8.4214   -1.8433    8.7590 H         1 RES1    0.0000
     30 H16        9.1846   -1.7559    7.3538 H         1 RES1    0.0000
     31 C11        5.8818   -2.2598    7.0375 C.ar      1 RES1    0.0000
     32 C12        5.0772   -1.7396    6.0285 C.ar      1 RES1    0.0000
     33 H17        5.1999   -2.0458    5.1377 H         1 RES1    0.0000
     34 C13        4.1089   -0.7951    6.2831 C.ar      1 RES1    0.0000
     35 H18        3.5769   -0.4533    5.5732 H         1 RES1    0.0000
     36 C14        3.9133   -0.3430    7.5835 C.ar      1 RES1    0.0000
     37 C15        4.6738   -0.8825    8.6097 C.ar      1 RES1    0.0000
     38 H19        4.5241   -0.6016    9.5044 H         1 RES1    0.0000
     39 C16        5.6445   -1.8240    8.3391 C.ar      1 RES1    0.0000
     40 H20        6.1620   -2.1809    9.0524 H         1 RES1    0.0000
     41 C17        2.3651    1.3581    6.9108 C.3       1 RES1    0.0000
     42 H21        1.7615    0.7710    6.3879 H         1 RES1    0.0000
     43 H22        3.0362    1.7499    6.2968 H         1 RES1    0.0000
     44 C18        1.5775    2.4455    7.5889 C.3       1 RES1    0.0000
     45 H23        2.2070    3.0519    8.0555 H         1 RES1    0.0000
     46 H24        0.9907    2.0362    8.2724 H         1 RES1    0.0000
     47 C19        0.7222    3.2647    6.6270 C.3       1 RES1    0.0000
     48 H25        1.3122    3.7077    5.9651 H         1 RES1    0.0000
     49 H26        0.1138    2.6577    6.1346 H         1 RES1    0.0000
     50 C20       -0.1020    4.3195    7.3480 C.3       1 RES1    0.0000
     51 H27        0.5133    4.9350    7.8204 H         1 RES1    0.0000
     52 H28       -0.6627    3.8723    8.0318 H         1 RES1    0.0000
     53 C21       -1.0057    5.1375    6.4366 C.3       1 RES1    0.0000
     54 H29       -0.4470    5.6022    5.7646 H         1 RES1    0.0000
     55 H30       -1.6118    4.5239    5.9523 H         1 RES1    0.0000
     56 C22       -1.8385    6.1689    7.1823 C.3       1 RES1    0.0000
     57 H31       -1.2268    6.7915    7.6509 H         1 RES1    0.0000
     58 H32       -2.3770    5.7041    7.8696 H         1 RES1    0.0000
     59 C23       -2.7731    6.9784    6.2931 C.3       1 RES1    0.0000
     60 H33       -2.2398    7.4287    5.5915 H         1 RES1    0.0000
     61 H34       -3.4021    6.3617    5.8430 H         1 RES1    0.0000
     62 C24       -3.5638    8.0218    7.0555 C.3       1 RES1    0.0000
     63 H35       -2.9278    8.6451    7.4887 H         1 RES1    0.0000
     64 H36       -4.0756    7.5691    7.7730 H         1 RES1    0.0000
     65 C25       -4.5348    8.8313    6.2071 C.3       1 RES1    0.0000
     66 H37       -5.1842    8.2159    5.7847 H         1 RES1    0.0000
     67 H38       -4.0303    9.2840    5.4839 H         1 RES1    0.0000
     68 C26       -5.2932    9.8766    7.0150 C.3       1 RES1    0.0000
     69 H39       -5.8299    9.4311    7.7019 H         1 RES1    0.0000
     70 H40       -5.8798   10.3859    6.4189 H         1 RES1    0.0000
     71 H41       -4.6536   10.4854    7.4431 H         1 RES1    0.0000
@<TRIPOS>BOND
     1    1    2 1
     2    2    3 1
     3    3    6 1
     4    4   36 1
     5    5    6 2
     6    6   31 1
     7    7    2 1
     8    8    7 1
     9    9    8 1
    10   10    8 1
    11   11    8 1
    12   12   11 1
    13   13   11 1
    14   14   11 1
    15   15   14 1
    16   16   14 1
    17   17   14 1
    18   18   17 1
    19   19   17 1
    20   20    7 1
    21   21   20 1
    22   22   20 1
    23   23    3 1
    24   24   23 1
    25   25   23 1
    26   26   23 1
    27   27    3 1
    28   28   27 1
    29   29   27 1
    30   30   27 1
    31   31   32 ar
    32   32   33 1
    33   34   32 ar
    34   35   34 1
    35   36   34 ar
    36   37   36 ar
    37   38   37 1
    38   39   31 ar
    39   40   39 1
    40   41    4 1
    41   42   41 1
    42   43   41 1
    43   44   41 1
    44   45   44 1
    45   46   44 1
    46   47   44 1
    47   48   47 1
    48   49   47 1
    49   50   47 1
    50   51   50 1
    51   52   50 1
    52   53   50 1
    53   54   53 1
    54   55   53 1
    55   56   53 1
    56   57   56 1
    57   58   56 1
    58   59   56 1
    59   60   59 1
    60   61   59 1
    61   62   59 1
    62   63   62 1
    63   64   62 1
    64   65   62 1
    65   66   65 1
    66   67   65 1
    67   68   65 1
    68   69   68 1
    69   70   68 1
    70   71   68 1
    71    5    7 1
    72   17   20 1
    73   37   39 ar
@<TRIPOS>SUBSTRUCTURE
     1 RES1 1

@<TRIPOS>CRYSIN
  44.2540    6.0278   18.3143  90.0000  95.6560  90.0000  15 1

