# MOL2 file generated by ConQuest
# Please check atom types

@<TRIPOS>MOLECULE
AJUQUS
    44    44     1
SMALL
NO_CHARGES
****
Generated from CSD

@<TRIPOS>ATOM
      1 O1         1.5801   16.2488    2.6689 O.3       1 RES1    0.0000
      2 O2         2.0069   14.8436    2.5835 O.3       1 RES1    0.0000
      3 C1         2.0680   16.8582    1.4862 C.3       1 RES1    0.0000
      4 C2         1.4579   18.2758    1.4669 C.2       1 RES1    0.0000
      5 O3         1.6710   18.9609    0.4953 O.2       1 RES1    0.0000
      6 C3         4.1512   17.7450    2.6253 C.ar      1 RES1    0.0000
      7 C4         3.6030   16.9559    1.4722 C.3       1 RES1    0.0000
      8 H1         3.9767   16.0611    1.4972 H         1 RES1    0.0000
      9 H2         3.8851   17.3725    0.6428 H         1 RES1    0.0000
     10 O4         2.2614   15.9222   -0.6963 O.2       1 RES1    0.0000
     11 C5         4.3403   19.1181    2.5299 C.ar      1 RES1    0.0000
     12 H3         4.1367   19.5511    1.7319 H         1 RES1    0.0000
     13 C6         1.5401   16.1247    0.2311 C.2       1 RES1    0.0000
     14 C7         4.9511   17.8583    4.8997 C.ar      1 RES1    0.0000
     15 H4         5.1576   17.4427    5.7057 H         1 RES1    0.0000
     16 C8         4.4741   17.1257    3.8236 C.ar      1 RES1    0.0000
     17 H5         4.3694   16.2053    3.9075 H         1 RES1    0.0000
     18 C9         4.8231   19.8481    3.5864 C.ar      1 RES1    0.0000
     19 H6         4.9504   20.7657    3.5045 H         1 RES1    0.0000
     20 C10        1.4666   14.1386    3.7252 C.3       1 RES1    0.0000
     21 C11        5.1111   19.2152    4.7500 C.ar      1 RES1    0.0000
     22 N1         5.6230   19.9990    5.8896 N.pl3     1 RES1    0.0000
     23 O5         5.6790   19.4430    6.9733 O.2       1 RES1    0.0000
     24 C12        0.6719   18.7375    2.6220 C.3       1 RES1    0.0000
     25 H7         0.3388   19.6214    2.4511 H         1 RES1    0.0000
     26 H8         1.2289   18.7522    3.4025 H         1 RES1    0.0000
     27 H9        -0.0662   18.1411    2.7674 H         1 RES1    0.0000
     28 C13        0.0873   15.7783    0.2245 C.3       1 RES1    0.0000
     29 H10       -0.4167   16.5185   -0.1199 H         1 RES1    0.0000
     30 H11       -0.2000   15.5847    1.1197 H         1 RES1    0.0000
     31 H12       -0.0545   15.0059   -0.3290 H         1 RES1    0.0000
     32 O6         5.9349   21.1624    5.6861 O.2       1 RES1    0.0000
     33 C14       -0.0567   14.2088    3.7073 C.3       1 RES1    0.0000
     34 H13       -0.3359   15.1198    3.8182 H         1 RES1    0.0000
     35 H14       -0.4101   13.6774    4.4253 H         1 RES1    0.0000
     36 H15       -0.3825   13.8729    2.8694 H         1 RES1    0.0000
     37 C15        2.0142   14.6833    5.0122 C.3       1 RES1    0.0000
     38 H16        2.9602   14.5258    5.0502 H         1 RES1    0.0000
     39 H17        1.5873   14.2449    5.7516 H         1 RES1    0.0000
     40 H18        1.8448   15.6265    5.0578 H         1 RES1    0.0000
     41 C16        1.9029   12.7179    3.4227 C.3       1 RES1    0.0000
     42 H19        1.5757   12.4610    2.5583 H         1 RES1    0.0000
     43 H20        1.5466   12.1250    4.0886 H         1 RES1    0.0000
     44 H21        2.8613   12.6697    3.4306 H         1 RES1    0.0000
@<TRIPOS>BOND
     1    1    2 1
     2    2   20 1
     3    3    1 1
     4    4    3 1
     5    5    4 2
     6    6    7 1
     7    7    3 1
     8    8    7 1
     9    9    7 1
    10   10   13 2
    11   11    6 ar
    12   12   11 1
    13   13    3 1
    14   14   15 1
    15   16    6 ar
    16   17   16 1
    17   18   11 ar
    18   19   18 1
    19   20   33 1
    20   21   14 ar
    21   22   21 1
    22   23   22 2
    23   24    4 1
    24   25   24 1
    25   26   24 1
    26   27   24 1
    27   28   13 1
    28   29   28 1
    29   30   28 1
    30   31   28 1
    31   32   22 2
    32   33   34 1
    33   35   33 1
    34   36   33 1
    35   37   20 1
    36   38   37 1
    37   39   37 1
    38   40   37 1
    39   41   20 1
    40   42   41 1
    41   43   41 1
    42   44   41 1
    43   14   16 ar
    44   18   21 ar
@<TRIPOS>SUBSTRUCTURE
     1 RES1 1

@<TRIPOS>CRYSIN
   7.2714   18.9780   25.5060  90.0000  90.0000  90.0000  61 1

