# MOL2 file generated by ConQuest
# Please check atom types

@<TRIPOS>MOLECULE
AKAVAK
    39    40     1
SMALL
NO_CHARGES
****
Generated from CSD

@<TRIPOS>ATOM
      1 N1         3.3110   14.0073    5.3692 N.pl3     1 RES1    0.0000
      2 O1         3.8138   14.8857    4.7086 O.2       1 RES1    0.0000
      3 O2         2.2036   13.5685    5.1407 O.2       1 RES1    0.0000
      4 O3         2.7008   12.0817    8.9591 O.2       1 RES1    0.0000
      5 C1         4.0795   13.4638    6.5372 C.3       1 RES1    0.0000
      6 H1         3.6684   13.7845    7.3791 H         1 RES1    0.0000
      7 H2         5.0096   13.8012    6.5047 H         1 RES1    0.0000
      8 C2         4.0934   11.9410    6.5291 C.3       1 RES1    0.0000
      9 H3         3.1566   11.6030    6.4403 H         1 RES1    0.0000
     10 C3         4.7014   11.4133    7.8365 C.3       1 RES1    0.0000
     11 H4         4.8865   10.4463    7.7334 H         1 RES1    0.0000
     12 H5         5.5666   11.8694    7.9911 H         1 RES1    0.0000
     13 C4         3.8233   11.6125    9.0553 C.2       1 RES1    0.0000
     14 C5         4.9167   11.4384    5.3665 C.2       1 RES1    0.0000
     15 H6         5.8155   11.7362    5.2944 H         1 RES1    0.0000
     16 C6         4.4654   10.6118    4.4440 C.2       1 RES1    0.0000
     17 H7         3.5509   10.3611    4.4983 H         1 RES1    0.0000
     18 C7         4.3675   11.2012   10.3864 C.ar      1 RES1    0.0000
     19 C8         3.6236   11.4774   11.5364 C.ar      1 RES1    0.0000
     20 H8         2.7937   11.9342   11.4632 H         1 RES1    0.0000
     21 C9         4.0856   11.0903   12.7791 C.ar      1 RES1    0.0000
     22 H9         3.5677   11.2743   13.5548 H         1 RES1    0.0000
     23 C10        5.3043   10.4340   12.9022 C.ar      1 RES1    0.0000
     24 H10        5.6197   10.1692   13.7573 H         1 RES1    0.0000
     25 C11        6.0577   10.1671   11.7702 C.ar      1 RES1    0.0000
     26 H11        6.8916    9.7192   11.8521 H         1 RES1    0.0000
     27 C12        5.5979   10.5518   10.5169 C.ar      1 RES1    0.0000
     28 H12        6.1225   10.3731    9.7444 H         1 RES1    0.0000
     29 C13        5.2495   10.0426    3.3368 C.ar      1 RES1    0.0000
     30 C14        6.4676   10.5895    2.8996 C.ar      1 RES1    0.0000
     31 H13        6.8088   11.3727    3.3156 H         1 RES1    0.0000
     32 C15        7.1779    9.9955    1.8640 C.ar      1 RES1    0.0000
     33 H14        7.9923   10.3803    1.5623 H         1 RES1    0.0000
     34 C16        6.6925    8.8368    1.2703 C.ar      1 RES1    0.0000
     35 H15        7.1880    8.4161    0.5775 H         1 RES1    0.0000
     36 C17        5.4922    8.2943    1.6857 C.ar      1 RES1    0.0000
     37 H16        5.1572    7.5090    1.2701 H         1 RES1    0.0000
     38 C18        4.7769    8.8931    2.7059 C.ar      1 RES1    0.0000
     39 H17        3.9497    8.5157    2.9820 H         1 RES1    0.0000
@<TRIPOS>BOND
     1    1    2 2
     2    3    1 2
     3    4   13 2
     4    5    1 1
     5    6    5 1
     6    7    5 1
     7    8    5 1
     8    9    8 1
     9   10    8 1
    10   11   10 1
    11   12   10 1
    12   13   10 1
    13   14    8 1
    14   15   14 1
    15   16   14 2
    16   17   16 1
    17   18   13 1
    18   19   18 ar
    19   20   19 1
    20   21   19 ar
    21   22   21 1
    22   23   21 ar
    23   24   23 1
    24   25   23 ar
    25   26   25 1
    26   27   18 ar
    27   28   27 1
    28   29   16 1
    29   30   29 ar
    30   31   30 1
    31   32   30 ar
    32   33   32 1
    33   34   32 ar
    34   35   34 1
    35   36   34 ar
    36   37   36 1
    37   38   29 ar
    38   39   38 1
    39   25   27 ar
    40   36   38 ar
@<TRIPOS>SUBSTRUCTURE
     1 RES1 1

@<TRIPOS>CRYSIN
   5.5929   11.9990   23.0093  90.0000  90.0000  90.0000  19 1

