# MOL2 file generated by ConQuest
# Please check atom types

@<TRIPOS>MOLECULE
AKAWIS
    31    32     1
SMALL
NO_CHARGES
****
Generated from CSD

@<TRIPOS>ATOM
      1 O1         1.9643    0.6232   11.7734 O.2       1 RES1    0.0000
      2 N1         2.3907    0.2420   12.9917 N.pl3     1 RES1    0.0000
      3 C1         3.4022   -0.8200   13.1759 C.3       1 RES1    0.0000
      4 C2         4.6048   -0.5479   12.2941 C.3       1 RES1    0.0000
      5 H1         4.3196   -0.6411   11.3388 H         1 RES1    0.0000
      6 H2         5.2603   -1.1733   12.5027 H         1 RES1    0.0000
      7 H3         4.9367    0.3750   12.3503 H         1 RES1    0.0000
      8 C3         2.7671   -2.1445   12.7889 C.3       1 RES1    0.0000
      9 H4         2.4232   -2.0562   11.9008 H         1 RES1    0.0000
     10 H5         1.9039   -2.3586   13.3244 H         1 RES1    0.0000
     11 H6         3.4316   -2.8424   12.7986 H         1 RES1    0.0000
     12 C4         3.6558   -0.6682   14.7193 C.3       1 RES1    0.0000
     13 H7         4.1540   -1.7538   16.3089 H         1 RES1    0.0000
     14 H8         3.0929   -2.6126   15.4348 H         1 RES1    0.0000
     15 H9         4.8840   -2.3586   15.1226 H         1 RES1    0.0000
     16 C5         4.7275    0.3677   15.0264 C.3       1 RES1    0.0000
     17 H10        5.7494   -0.0121   14.7979 H         1 RES1    0.0000
     18 H11        4.7410    0.4354   15.9218 H         1 RES1    0.0000
     19 H12        4.5303    1.2337   14.6730 H         1 RES1    0.0000
     20 C6         3.9554   -1.9740   15.4335 C.3       1 RES1    0.0000
     21 N2         2.3502   -0.1328   15.1441 N.pl3     1 RES1    0.0000
     22 H13        2.1673    0.1451   15.9718 H         1 RES1    0.0000
     23 C7         1.8332    0.5893   14.1152 C.2       1 RES1    0.0000
     24 C8         0.8669    1.6302   14.2827 C.2       1 RES1    0.0000
     25 C9         0.2453    2.4268   13.3602 C.2       1 RES1    0.0000
     26 H14        0.2634    2.3828   12.4752 H         1 RES1    0.0000
     27 N3        -0.4395    3.3560   14.0452 N.pl3     1 RES1    0.0000
     28 H15       -0.9708    4.0520   13.7215 H         1 RES1    0.0000
     29 C10       -0.2145    3.0995   15.3451 C.2       1 RES1    0.0000
     30 H16       -0.6321    3.6166   16.0342 H         1 RES1    0.0000
     31 N4         0.5546    2.0718   15.5403 N.2       1 RES1    0.0000
@<TRIPOS>BOND
     1    1    2 1
     2    2    3 1
     3    3    4 1
     4    4    5 1
     5    6    4 1
     6    7    4 1
     7    8    3 1
     8    9    8 1
     9   10    8 1
    10   11    8 1
    11   12    3 1
    12   13   20 1
    13   14   20 1
    14   15   20 1
    15   16   12 1
    16   17   16 1
    17   18   16 1
    18   19   16 1
    19   20   12 1
    20   21   12 1
    21   22   21 1
    22   23    2 2
    23   24   23 1
    24   25   24 2
    25   26   25 1
    26   27   25 1
    27   28   27 1
    28   29   27 1
    29   30   29 1
    30   31   24 1
    31   21   23 1
    32   29   31 2
@<TRIPOS>SUBSTRUCTURE
     1 RES1 1

@<TRIPOS>CRYSIN
   7.5254   12.0955   12.4877  90.0000  90.0000  90.0000  19 1

