# MOL2 file generated by ConQuest
# Please check atom types

@<TRIPOS>MOLECULE
AKAYOB
    51    52     1
SMALL
NO_CHARGES
****
Generated from CSD

@<TRIPOS>ATOM
      1 O1         4.2104    3.6514    2.4069 O.3       1 RES1    0.0000
      2 O2         4.1884    2.7763    0.2555 O.3       1 RES1    0.0000
      3 O3        -0.7676    4.3384    1.5111 O.2       1 RES1    0.0000
      4 N1         4.1415    5.1169    0.6559 N.2       1 RES1    0.0000
      5 N2         3.5338    2.5133    2.9802 N.2       1 RES1    0.0000
      6 N3         5.6318    2.7569    0.3303 N.2       1 RES1    0.0000
      7 N4         0.9667    1.5583    0.3957 N.1       1 RES1    0.0000
      8 N5        -0.0093    5.3025   -1.4410 N.1       1 RES1    0.0000
      9 N6         3.1761    6.9600   -0.3567 N.3       1 RES1    0.0000
     10 C1         3.7315    3.8074    1.1076 C.3       1 RES1    0.0000
     11 C2         2.1938    3.7494    1.0266 C.3       1 RES1    0.0000
     12 C3         1.8004    5.0653    0.4019 C.3       1 RES1    0.0000
     13 C4         3.1249    5.7613    0.2072 C.2       1 RES1    0.0000
     14 C5         1.4948    4.7985    1.8538 C.3       1 RES1    0.0000
     15 C6         0.0729    4.6065    2.3181 C.2       1 RES1    0.0000
     16 C7        -0.1988    4.7032    3.7903 C.3       1 RES1    0.0000
     17 C8         0.3876    5.9521    4.4259 C.3       1 RES1    0.0000
     18 H1         1.3446    5.8760    4.4570 H         1 RES1    0.0000
     19 H2         0.0453    6.0488    5.3170 H         1 RES1    0.0000
     20 H3         0.1454    6.7203    3.9040 H         1 RES1    0.0000
     21 C9         0.5113    3.5341    4.4539 C.3       1 RES1    0.0000
     22 H4         0.1843    2.7105    4.0863 H         1 RES1    0.0000
     23 H5         0.3416    3.5522    5.3995 H         1 RES1    0.0000
     24 H6         1.4560    3.6024    4.2966 H         1 RES1    0.0000
     25 C10       -1.6529    4.6619    4.0473 C.3       1 RES1    0.0000
     26 H7        -2.0804    5.3876    3.5877 H         1 RES1    0.0000
     27 H8        -1.8131    4.7418    4.9914 H         1 RES1    0.0000
     28 H9        -2.0098    3.8280    3.7311 H         1 RES1    0.0000
     29 C11        0.7576    5.1800   -0.5935 C.1       1 RES1    0.0000
     30 C12        1.5130    2.5108    0.6932 C.1       1 RES1    0.0000
     31 C13        6.1097    1.8921   -0.4611 C.2       1 RES1    0.0000
     32 C14        4.2209    1.9810    3.9009 C.2       1 RES1    0.0000
     33 C15        3.5393    0.8558    4.6362 C.3       1 RES1    0.0000
     34 H10        2.7191    0.6341    4.1906 H         1 RES1    0.0000
     35 H11        3.3517    1.1291    5.5366 H         1 RES1    0.0000
     36 H12        4.1149    0.0876    4.6486 H         1 RES1    0.0000
     37 C16        5.5924    2.4025    4.2825 C.3       1 RES1    0.0000
     38 H13        6.2028    2.1808    3.5753 H         1 RES1    0.0000
     39 H14        5.8547    1.9488    5.0864 H         1 RES1    0.0000
     40 H15        5.6063    3.3511    4.4305 H         1 RES1    0.0000
     41 C17        7.6208    1.7709   -0.4113 C.3       1 RES1    0.0000
     42 H16        7.9720    2.4076    0.2165 H         1 RES1    0.0000
     43 H17        7.9857    1.9449   -1.2821 H         1 RES1    0.0000
     44 H18        7.8612    0.8829   -0.1340 H         1 RES1    0.0000
     45 C18        5.3484    1.0376   -1.4036 C.3       1 RES1    0.0000
     46 H19        4.4538    0.9164   -1.0749 H         1 RES1    0.0000
     47 H20        5.7795    0.1843   -1.4815 H         1 RES1    0.0000
     48 H21        5.3175    1.4603   -2.2651 H         1 RES1    0.0000
     49 H22        2.4011    7.4369   -0.6699 H         1 RES1    0.0000
     50 H23        3.9111    7.3338   -0.4362 H         1 RES1    0.0000
     51 H24        2.0330    5.1942    2.3679 H         1 RES1    0.0000
@<TRIPOS>BOND
     1    1    5 1
     2    2    6 1
     3    3   15 2
     4    4   10 1
     5    5   32 2
     6    6   31 2
     7    7   30 3
     8    8   29 3
     9    9   13 1
    10   10    1 1
    11   11   10 1
    12   12   11 1
    13   13    4 2
    14   14   11 1
    15   15   14 1
    16   16   15 1
    17   17   16 1
    18   18   17 1
    19   19   17 1
    20   20   17 1
    21   21   16 1
    22   22   21 1
    23   23   21 1
    24   24   21 1
    25   25   16 1
    26   26   25 1
    27   27   25 1
    28   28   25 1
    29   29   12 1
    30   30   11 1
    31   31   41 1
    32   32   33 1
    33   33   34 1
    34   35   33 1
    35   36   33 1
    36   37   32 1
    37   38   37 1
    38   39   37 1
    39   40   37 1
    40   41   42 1
    41   43   41 1
    42   44   41 1
    43   45   31 1
    44   46   45 1
    45   47   45 1
    46   48   45 1
    47   49    9 1
    48   50    9 1
    49   51   14 1
    50    2   10 1
    51   12   13 1
    52   12   14 1
@<TRIPOS>SUBSTRUCTURE
     1 RES1 1

@<TRIPOS>CRYSIN
  10.1568   12.8889   15.8516  90.0000 100.6500  90.0000  14 1

