# MOL2 file generated by ConQuest
# Please check atom types

@<TRIPOS>MOLECULE
AKENIO
    46    47     1
SMALL
NO_CHARGES
****
Generated from CSD

@<TRIPOS>ATOM
      1 N1         2.7712    6.4311    3.6700 N.am      1 RES1    0.0000
      2 N2         2.0328    7.4596    3.1095 N.2       1 RES1    0.0000
      3 C1         2.2605    8.4883    3.8807 C.2       1 RES1    0.0000
      4 C2         3.1392    8.1813    4.9381 C.2       1 RES1    0.0000
      5 H1         3.4446    8.7691    5.6189 H         1 RES1    0.0000
      6 C3         3.4586    6.8736    4.7836 C.2       1 RES1    0.0000
      7 C4         2.6004    5.1319    3.2017 C.2       1 RES1    0.0000
      8 O1         3.0874    4.2068    3.8136 O.2       1 RES1    0.0000
      9 C5         1.8307    4.9827    1.9528 C.3       1 RES1    0.0000
     10 H2         1.6985    4.0302    1.7632 H         1 RES1    0.0000
     11 H3         2.3223    5.3976    1.2146 H         1 RES1    0.0000
     12 H4         0.9598    5.4195    2.0518 H         1 RES1    0.0000
     13 C6         1.5618    9.8016    3.6550 C.3       1 RES1    0.0000
     14 C7         2.4921   10.9498    3.9954 C.3       1 RES1    0.0000
     15 H5         3.2961   10.8953    3.4376 H         1 RES1    0.0000
     16 H6         2.7458   10.8953    4.9409 H         1 RES1    0.0000
     17 H7         2.0351   11.8012    3.8289 H         1 RES1    0.0000
     18 C8         0.3541    9.8457    4.5662 C.3       1 RES1    0.0000
     19 H8         0.6405    9.7078    5.4931 H         1 RES1    0.0000
     20 H9        -0.2740    9.1384    4.3090 H         1 RES1    0.0000
     21 H10       -0.0840   10.7185    4.4848 H         1 RES1    0.0000
     22 C9         1.1266    9.9320    2.2091 C.3       1 RES1    0.0000
     23 H11        0.5671    9.1650    1.9658 H         1 RES1    0.0000
     24 H12        1.9180    9.9550    1.6309 H         1 RES1    0.0000
     25 H13        0.6144   10.7592    2.0962 H         1 RES1    0.0000
     26 N3         4.2419    5.9824    5.4784 N.pl3     1 RES1    0.0000
     27 H14        4.1385    5.1332    5.2739 H         1 RES1    0.0000
     28 C10        5.1831    6.2737    6.4201 C.ar      1 RES1    0.0000
     29 C11        5.7713    5.2788    7.2332 C.ar      1 RES1    0.0000
     30 C12        6.6553    5.5989    8.2369 C.ar      1 RES1    0.0000
     31 H15        7.0036    4.9110    8.7901 H         1 RES1    0.0000
     32 C13        7.0414    6.8986    8.4506 C.ar      1 RES1    0.0000
     33 C14        6.5259    7.8878    7.6180 C.ar      1 RES1    0.0000
     34 H16        6.8068    8.7879    7.7318 H         1 RES1    0.0000
     35 C15        5.6288    7.5853    6.6467 C.ar      1 RES1    0.0000
     36 H17        5.2901    8.2857    6.1000 H         1 RES1    0.0000
     37 N4         5.5129    3.8692    7.0402 N.pl3     1 RES1    0.0000
     38 O2         5.9716    3.0749    7.8501 O.2       1 RES1    0.0000
     39 O3         4.8526    3.5111    6.0705 O.2       1 RES1    0.0000
     40 C16        8.0319    7.1710    9.5015 C.2       1 RES1    0.0000
     41 O4         8.4892    6.3462   10.2434 O.2       1 RES1    0.0000
     42 O5         8.3898    8.4556    9.5282 O.3       1 RES1    0.0000
     43 C17        9.4829    8.7720   10.4016 C.3       1 RES1    0.0000
     44 H18       10.3095    8.3858   10.0427 H         1 RES1    0.0000
     45 H19        9.3085    8.4015   11.2915 H         1 RES1    0.0000
     46 H20        9.5787    9.7454   10.4664 H         1 RES1    0.0000
@<TRIPOS>BOND
     1    1    2 1
     2    2    3 2
     3    3    4 1
     4    4    5 1
     5    6    1 1
     6    7    1 1
     7    8    7 2
     8    9    7 1
     9   10    9 1
    10   11    9 1
    11   12    9 1
    12   13    3 1
    13   14   13 1
    14   15   14 1
    15   16   14 1
    16   17   14 1
    17   18   13 1
    18   19   18 1
    19   20   18 1
    20   21   18 1
    21   22   13 1
    22   23   22 1
    23   24   22 1
    24   25   22 1
    25   26    6 1
    26   27   26 1
    27   28   26 1
    28   29   28 ar
    29   30   29 ar
    30   31   30 1
    31   32   30 ar
    32   33   32 ar
    33   34   33 1
    34   35   28 ar
    35   36   35 1
    36   37   29 1
    37   38   37 2
    38   39   37 2
    39   40   32 1
    40   41   40 2
    41   42   40 1
    42   43   42 1
    43   44   43 1
    44   45   43 1
    45   46   43 1
    46    4    6 2
    47   33   35 ar
@<TRIPOS>SUBSTRUCTURE
     1 RES1 1

@<TRIPOS>CRYSIN
  11.9079   15.6452    9.2550  90.0000  91.7270  90.0000  14 1

