# MOL2 file generated by ConQuest
# Please check atom types

@<TRIPOS>MOLECULE
AKUHUL
    42    44     1
SMALL
NO_CHARGES
****
Generated from CSD

@<TRIPOS>ATOM
      1 O1         5.6423    9.7232   16.2831 O.2       1 RES1    0.0000
      2 O2         5.3528    5.8524   13.5117 O.3       1 RES1    0.0000
      3 H1         5.2835    6.0658   12.7021 H         1 RES1    0.0000
      4 O3         6.6945    5.9182   19.2819 O.2       1 RES1    0.0000
      5 O4         1.9246    5.9036   14.4359 O.2       1 RES1    0.0000
      6 O5         3.2321    4.1899   14.5897 O.2       1 RES1    0.0000
      7 N1         2.9776    5.3698   14.7699 N.pl3     1 RES1    0.0000
      8 C1         5.3022    8.9994   15.3805 C.2       1 RES1    0.0000
      9 C2         4.1053    9.1960   14.4820 C.3       1 RES1    0.0000
     10 H2         4.2088   10.0217   13.9457 H         1 RES1    0.0000
     11 H3         3.2780    9.2697   15.0196 H         1 RES1    0.0000
     12 C3         4.0399    7.9699   13.5671 C.3       1 RES1    0.0000
     13 H4         4.4345    8.1673   12.6818 H         1 RES1    0.0000
     14 H5         3.1044    7.6708   13.4435 H         1 RES1    0.0000
     15 C4         4.8680    6.8994   14.3161 C.3       1 RES1    0.0000
     16 C5         6.0128    7.7244   14.9628 C.3       1 RES1    0.0000
     17 C6         6.7482    7.0223   16.0927 C.3       1 RES1    0.0000
     18 H6         7.3381    7.6745   16.5465 H         1 RES1    0.0000
     19 H7         7.3202    6.3104   15.7118 H         1 RES1    0.0000
     20 C7         5.8050    6.4029   17.1235 C.3       1 RES1    0.0000
     21 H8         5.2952    7.1269   17.5882 H         1 RES1    0.0000
     22 C8         4.8143    5.4329   16.4356 C.3       1 RES1    0.0000
     23 H9         5.3396    4.7432   15.9375 H         1 RES1    0.0000
     24 C9         4.0134    6.2497   15.4300 C.3       1 RES1    0.0000
     25 H10        3.5379    6.9772   15.9256 H         1 RES1    0.0000
     26 C10        7.0432    8.1563   13.8909 C.3       1 RES1    0.0000
     27 H11        7.7506    8.6869   14.3139 H         1 RES1    0.0000
     28 H12        6.5957    8.6954   13.2060 H         1 RES1    0.0000
     29 H13        7.4362    7.3605   13.4758 H         1 RES1    0.0000
     30 C11        6.6245    5.6498   18.1218 C.2       1 RES1    0.0000
     31 H14        7.1249    4.9050   17.8105 H         1 RES1    0.0000
     32 C12        3.9628    4.7322   17.4749 C.ar      1 RES1    0.0000
     33 C13        4.3255    3.4561   17.9080 C.ar      1 RES1    0.0000
     34 H15        5.0516    3.0068   17.4915 H         1 RES1    0.0000
     35 C14        3.6407    2.8403   18.9351 C.ar      1 RES1    0.0000
     36 H16        3.9162    1.9822   19.2356 H         1 RES1    0.0000
     37 C15        2.5643    3.4538   19.5284 C.ar      1 RES1    0.0000
     38 H17        2.0818    3.0165   20.2196 H         1 RES1    0.0000
     39 C16        2.1970    4.7095   19.1065 C.ar      1 RES1    0.0000
     40 H18        1.4584    5.1435   19.5172 H         1 RES1    0.0000
     41 C17        2.8889    5.3506   18.0919 C.ar      1 RES1    0.0000
     42 H19        2.6235    6.2204   17.8173 H         1 RES1    0.0000
@<TRIPOS>BOND
     1    1    8 2
     2    2    3 1
     3    4   30 2
     4    5    7 2
     5    6    7 2
     6    7   24 1
     7    8    9 1
     8    9   10 1
     9   11    9 1
    10   12    9 1
    11   13   12 1
    12   14   12 1
    13   15    2 1
    14   16    8 1
    15   17   16 1
    16   18   17 1
    17   19   17 1
    18   20   17 1
    19   21   20 1
    20   22   20 1
    21   23   22 1
    22   24   15 1
    23   25   24 1
    24   26   16 1
    25   27   26 1
    26   28   26 1
    27   29   26 1
    28   30   20 1
    29   31   30 1
    30   32   22 1
    31   33   32 ar
    32   34   33 1
    33   35   33 ar
    34   36   35 1
    35   37   35 ar
    36   38   37 1
    37   39   37 ar
    38   40   39 1
    39   41   32 ar
    40   42   41 1
    41   12   15 1
    42   15   16 1
    43   22   24 1
    44   39   41 ar
@<TRIPOS>SUBSTRUCTURE
     1 RES1 1

@<TRIPOS>CRYSIN
   7.7825   12.1682   16.9656  90.0000  90.0000  90.0000  19 1

