# MOL2 file generated by ConQuest
# Please check atom types

@<TRIPOS>MOLECULE
AKURAA
    45    46     1
SMALL
NO_CHARGES
****
Generated from CSD

@<TRIPOS>ATOM
      1 O1         8.9284    1.4938    5.3115 O.2       1 RES1    0.0000
      2 O2         9.0364    0.3847    7.2848 O.3       1 RES1    0.0000
      3 O3         3.3801    4.7099    9.1264 O.2       1 RES1    0.0000
      4 O4        -1.0173    9.7212    7.7393 O.2       1 RES1    0.0000
      5 O5        -1.3083    8.9546    5.7595 O.2       1 RES1    0.0000
      6 N1         7.2147    1.5003    6.7787 N.am      1 RES1    0.0000
      7 H1         7.0364    1.2916    7.4953 H         1 RES1    0.0000
      8 N2         3.7158    4.3012    6.9417 N.am      1 RES1    0.0000
      9 H2         3.5384    4.5446    6.1262 H         1 RES1    0.0000
     10 N3        -0.7710    8.9450    6.8394 N.pl3     1 RES1    0.0000
     11 C1         4.7876    3.3492    7.1429 C.3       1 RES1    0.0000
     12 H3         4.7832    3.0180    8.0653 H         1 RES1    0.0000
     13 C2         6.1991    3.7953    6.7387 C.3       1 RES1    0.0000
     14 H4         6.2121    4.5452    6.1244 H         1 RES1    0.0000
     15 H5         6.7910    3.9514    7.4916 H         1 RES1    0.0000
     16 C3         6.4033    2.4463    6.0666 C.3       1 RES1    0.0000
     17 H6         6.6958    2.5462    5.1372 H         1 RES1    0.0000
     18 C4         4.9050    2.1892    6.1588 C.3       1 RES1    0.0000
     19 H7         4.6790    1.3275    6.5416 H         1 RES1    0.0000
     20 H8         4.4305    2.3345    5.3253 H         1 RES1    0.0000
     21 C5         8.4428    1.1619    6.3719 C.2       1 RES1    0.0000
     22 C6        10.3944   -0.1345    7.0916 C.3       1 RES1    0.0000
     23 C7        11.3742    0.9932    7.0155 C.3       1 RES1    0.0000
     24 H9        11.2120    1.5057    6.2194 H         1 RES1    0.0000
     25 H10       12.2672    0.6410    6.9905 H         1 RES1    0.0000
     26 H11       11.2739    1.5571    7.7859 H         1 RES1    0.0000
     27 C8        10.4602   -1.0058    5.8718 C.3       1 RES1    0.0000
     28 H12       10.3071   -0.4724    5.0887 H         1 RES1    0.0000
     29 H13        9.7883   -1.6887    5.9288 H         1 RES1    0.0000
     30 H14       11.3274   -1.4148    5.8170 H         1 RES1    0.0000
     31 C9        10.6257   -0.9388    8.3445 C.3       1 RES1    0.0000
     32 H15       10.0142   -1.6791    8.3670 H         1 RES1    0.0000
     33 H16       10.4810   -0.3815    9.1139 H         1 RES1    0.0000
     34 H17       11.5272   -1.2677    8.3521 H         1 RES1    0.0000
     35 C10        3.1209    4.9350    7.9460 C.2       1 RES1    0.0000
     36 C11        2.1070    5.9683    7.5795 C.ar      1 RES1    0.0000
     37 C12        2.0445    7.0907    8.3677 C.ar      1 RES1    0.0000
     38 H18        2.6405    7.1858    9.0748 H         1 RES1    0.0000
     39 C13        1.1170    8.0756    8.1291 C.ar      1 RES1    0.0000
     40 H19        1.0832    8.8380    8.6613 H         1 RES1    0.0000
     41 C14        0.2544    7.9064    7.0998 C.ar      1 RES1    0.0000
     42 C15        0.2884    6.8097    6.2790 C.ar      1 RES1    0.0000
     43 H20       -0.3140    6.7230    5.5749 H         1 RES1    0.0000
     44 C16        1.2363    5.8374    6.5196 C.ar      1 RES1    0.0000
     45 H21        1.2881    5.0923    5.9661 H         1 RES1    0.0000
@<TRIPOS>BOND
     1    1   21 2
     2    2   21 1
     3    3   35 2
     4    4   10 2
     5    5   10 2
     6    6    7 1
     7    8    9 1
     8   10   41 1
     9   11    8 1
    10   12   11 1
    11   13   11 1
    12   14   13 1
    13   15   13 1
    14   16    6 1
    15   17   16 1
    16   18   11 1
    17   19   18 1
    18   20   18 1
    19   21    6 1
    20   22    2 1
    21   23   22 1
    22   24   23 1
    23   25   23 1
    24   26   23 1
    25   27   22 1
    26   28   27 1
    27   29   27 1
    28   30   27 1
    29   31   22 1
    30   32   31 1
    31   33   31 1
    32   34   31 1
    33   35    8 1
    34   36   35 1
    35   37   36 ar
    36   38   37 1
    37   39   37 ar
    38   40   39 1
    39   41   39 ar
    40   42   41 ar
    41   43   42 1
    42   44   36 ar
    43   45   44 1
    44   13   16 1
    45   16   18 1
    46   42   44 ar
@<TRIPOS>SUBSTRUCTURE
     1 RES1 1

@<TRIPOS>CRYSIN
  15.1280    5.9797   19.5390  90.0000 107.5800  90.0000  14 1

