# MOL2 file generated by ConQuest
# Please check atom types

@<TRIPOS>MOLECULE
AKUVUX
    63    66     1
SMALL
NO_CHARGES
****
Generated from CSD

@<TRIPOS>ATOM
      1 O1         8.9703    5.1824    2.2070 O.3       1 RES1    0.0000
      2 C1         8.5975    6.0226    1.1460 C.2       1 RES1    0.0000
      3 C2         9.2944    7.1160    0.9077 C.2       1 RES1    0.0000
      4 H1         8.9783    7.7115    0.2675 H         1 RES1    0.0000
      5 C3        10.5519    7.4426    1.6066 C.2       1 RES1    0.0000
      6 C4        11.5003    6.2924    1.9385 C.3       1 RES1    0.0000
      7 H2        11.1883    5.4874    1.4736 H         1 RES1    0.0000
      8 C5        11.4769    6.0226    3.4640 C.3       1 RES1    0.0000
      9 H3        12.0035    6.7397    3.8754 H         1 RES1    0.0000
     10 C6        10.1066    6.0847    4.1147 C.2       1 RES1    0.0000
     11 C7         8.9746    5.7945    3.4835 C.2       1 RES1    0.0000
     12 C8         7.4144    5.5016    0.4191 C.ar      1 RES1    0.0000
     13 C9         6.5389    4.6159    1.0219 C.ar      1 RES1    0.0000
     14 H4         6.7078    4.3159    1.8855 H         1 RES1    0.0000
     15 C10        5.4125    4.1739    0.3466 C.ar      1 RES1    0.0000
     16 H5         4.8243    3.5793    0.7542 H         1 RES1    0.0000
     17 C11        5.1675    4.6230   -0.9361 C.ar      1 RES1    0.0000
     18 H6         4.4048    4.3346   -1.3854 H         1 RES1    0.0000
     19 C12        6.0316    5.4856   -1.5566 C.ar      1 RES1    0.0000
     20 H7         5.8601    5.7794   -2.4231 H         1 RES1    0.0000
     21 C13        7.1634    5.9170   -0.8807 C.ar      1 RES1    0.0000
     22 H8         7.7609    6.4903   -1.3025 H         1 RES1    0.0000
     23 C14       12.8927    6.6323    1.4317 C.3       1 RES1    0.0000
     24 H9        13.1885    7.4586    1.8454 H         1 RES1    0.0000
     25 H10       13.5085    5.9303    1.6956 H         1 RES1    0.0000
     26 C15       12.9329    6.7885   -0.0765 C.3       1 RES1    0.0000
     27 H11       12.6500    5.9693   -0.4894 H         1 RES1    0.0000
     28 H12       13.8285    6.9935   -0.3530 H         1 RES1    0.0000
     29 H13       12.3451    7.5003   -0.3397 H         1 RES1    0.0000
     30 C16       12.1905    4.7286    3.8050 C.ar      1 RES1    0.0000
     31 C17       11.6592    3.5003    3.4488 C.ar      1 RES1    0.0000
     32 H14       10.8379    3.4737    3.0142 H         1 RES1    0.0000
     33 C18       12.3114    2.3146    3.7189 C.ar      1 RES1    0.0000
     34 H15       11.9473    1.4990    3.4635 H         1 RES1    0.0000
     35 C19       13.5187    2.3767    4.3806 C.ar      1 RES1    0.0000
     36 C20       14.0803    3.5669    4.7577 C.ar      1 RES1    0.0000
     37 H16       14.8989    3.5864    5.1966 H         1 RES1    0.0000
     38 C21       13.4077    4.7393    4.4728 C.ar      1 RES1    0.0000
     39 H17       13.7767    5.5513    4.7339 H         1 RES1    0.0000
     40 C22       10.0818    6.5515    5.5453 C.3       1 RES1    0.0000
     41 H18        9.2443    6.2737    5.9481 H         1 RES1    0.0000
     42 H19       10.7990    6.1113    6.0283 H         1 RES1    0.0000
     43 C23       10.2262    8.0168    5.7135 C.3       1 RES1    0.0000
     44 H20       11.0585    8.3026    5.3303 H         1 RES1    0.0000
     45 H21       10.2130    8.2351    6.6488 H         1 RES1    0.0000
     46 H22        9.4994    8.4632    5.2714 H         1 RES1    0.0000
     47 C24        7.6411    6.0226    3.9748 C.1       1 RES1    0.0000
     48 C25        6.5019    6.2356    4.2252 C.1       1 RES1    0.0000
     49 C26        5.1024    6.4450    4.5049 C.ar      1 RES1    0.0000
     50 C27        4.1509    5.9196    3.6697 C.ar      1 RES1    0.0000
     51 H23        4.4156    5.4155    2.9339 H         1 RES1    0.0000
     52 C28        2.8124    6.1246    3.9000 C.ar      1 RES1    0.0000
     53 H24        2.1775    5.7696    3.3191 H         1 RES1    0.0000
     54 C29        2.4243    6.8453    4.9748 C.ar      1 RES1    0.0000
     55 H25        1.5180    6.9784    5.1377 H         1 RES1    0.0000
     56 C30        3.3420    7.3760    5.8165 C.ar      1 RES1    0.0000
     57 H26        3.0684    7.8695    6.5552 H         1 RES1    0.0000
     58 C31        4.6825    7.1825    5.5742 C.ar      1 RES1    0.0000
     59 H27        5.3109    7.5597    6.1460 H         1 RES1    0.0000
     60 N1        14.2578    1.1307    4.6079 N.pl3     1 RES1    0.0000
     61 O2        15.3440    1.1937    5.1131 O.2       1 RES1    0.0000
     62 O3        13.7481    0.0772    4.3110 O.2       1 RES1    0.0000
     63 O4        10.8613    8.5966    1.8401 O.2       1 RES1    0.0000
@<TRIPOS>BOND
     1    1    2 1
     2    2    3 2
     3    3    4 1
     4    5    3 1
     5    6    5 1
     6    7    6 1
     7    8    6 1
     8    9    8 1
     9   10    8 1
    10   11    1 1
    11   12    2 1
    12   13   12 ar
    13   14   13 1
    14   15   13 ar
    15   16   15 1
    16   17   15 ar
    17   18   17 1
    18   19   17 ar
    19   20   19 1
    20   21   12 ar
    21   22   21 1
    22   23    6 1
    23   24   23 1
    24   25   23 1
    25   26   23 1
    26   27   26 1
    27   28   26 1
    28   29   26 1
    29   30    8 1
    30   31   30 ar
    31   32   31 1
    32   33   31 ar
    33   34   33 1
    34   35   33 ar
    35   36   35 ar
    36   37   36 1
    37   38   30 ar
    38   39   38 1
    39   40   10 1
    40   41   40 1
    41   42   40 1
    42   43   40 1
    43   44   43 1
    44   45   43 1
    45   46   43 1
    46   47   11 1
    47   48   47 3
    48   49   48 1
    49   50   49 ar
    50   51   50 1
    51   52   50 ar
    52   53   52 1
    53   54   52 ar
    54   55   54 1
    55   56   54 ar
    56   57   56 1
    57   58   49 ar
    58   59   58 1
    59   60   35 1
    60   61   60 2
    61   62   60 2
    62   63    5 2
    63   10   11 2
    64   19   21 ar
    65   36   38 ar
    66   56   58 ar
@<TRIPOS>SUBSTRUCTURE
     1 RES1 1

@<TRIPOS>CRYSIN
  21.6240    8.8750   26.7450  90.0000  90.0000  90.0000  61 1

