# MOL2 file generated by ConQuest
# Please check atom types

@<TRIPOS>MOLECULE
AKUWAE
    71    62     2
SMALL
NO_CHARGES
****
Generated from CSD

@<TRIPOS>ATOM
      1 O1         8.3700    3.6344   17.3886 O.3       1 RES1    0.0000
      2 O2        12.2330    3.6847   10.2383 O.2       1 RES1    0.0000
      3 O3        13.3796    3.7464   12.0348 O.2       1 RES1    0.0000
      4 O4         4.8429    4.6484   15.8251 O.2       1 RES1    0.0000
      5 N1        12.3237    3.7268   11.4436 N.pl3     1 RES1    0.0000
      6 C1         7.4363    4.2960   18.1842 C.2       1 RES1    0.0000
      7 C2         6.3124    4.7601   17.6477 C.2       1 RES1    0.0000
      8 H1         5.6798    5.1247   18.2242 H         1 RES1    0.0000
      9 C3         5.9930    4.7405   16.2214 C.2       1 RES1    0.0000
     10 C4         7.1536    4.9130   15.2265 C.3       1 RES1    0.0000
     11 H2         7.9424    5.2326   15.7126 H         1 RES1    0.0000
     12 C5         7.4921    3.5501   14.5687 C.3       1 RES1    0.0000
     13 H3         6.7644    3.3594   13.9409 H         1 RES1    0.0000
     14 C6         7.5515    2.3667   15.5282 C.2       1 RES1    0.0000
     15 C7         7.9127    2.4453   16.8044 C.2       1 RES1    0.0000
     16 C8         7.9302    4.4040   19.6019 C.3       1 RES1    0.0000
     17 H4         7.8421    3.5333   20.0207 H         1 RES1    0.0000
     18 H5         8.8761    4.6199   19.5783 H         1 RES1    0.0000
     19 C9         7.2583    5.3869   20.4454 C.3       1 RES1    0.0000
     20 H6         7.5506    5.2551   21.3614 H         1 RES1    0.0000
     21 H7         6.3045    5.2130   20.4174 H         1 RES1    0.0000
     22 C10        7.4887    6.8324   20.0779 C.3       1 RES1    0.0000
     23 H8         8.4127    7.0540   20.2191 H         1 RES1    0.0000
     24 H9         6.9380    7.3933   20.6272 H         1 RES1    0.0000
     25 H10        7.2635    6.9670   19.1549 H         1 RES1    0.0000
     26 C11        6.7705    5.9505   14.1739 C.3       1 RES1    0.0000
     27 H11        7.4607    5.9828   13.4946 H         1 RES1    0.0000
     28 H12        5.9442    5.6771   13.7464 H         1 RES1    0.0000
     29 C12        6.5881    7.3358   14.7568 C.3       1 RES1    0.0000
     30 H13        5.8560    7.3274   15.3769 H         1 RES1    0.0000
     31 H14        6.4031    7.9583   14.0496 H         1 RES1    0.0000
     32 H15        7.3909    7.5980   15.2129 H         1 RES1    0.0000
     33 C13        8.7670    3.6300   13.7353 C.ar      1 RES1    0.0000
     34 C14        8.7295    3.4576   12.3590 C.ar      1 RES1    0.0000
     35 H16        7.9127    3.3132   11.9365 H         1 RES1    0.0000
     36 C15        9.8900    3.4954   11.6058 C.ar      1 RES1    0.0000
     37 H17        9.8604    3.3819   10.6836 H         1 RES1    0.0000
     38 C16       11.0794    3.7043   12.2417 C.ar      1 RES1    0.0000
     39 C17       11.1684    3.8946   13.6012 C.ar      1 RES1    0.0000
     40 H18       11.9887    4.0479   14.0115 H         1 RES1    0.0000
     41 C18        9.9930    3.8502   14.3399 C.ar      1 RES1    0.0000
     42 H19       10.0305    3.9707   15.2606 H         1 RES1    0.0000
     43 C19        7.1649    1.0432   14.9185 C.3       1 RES1    0.0000
     44 H20        7.5846    0.3281   15.4208 H         1 RES1    0.0000
     45 H21        7.4983    1.0039   14.0096 H         1 RES1    0.0000
     46 C20        5.6649    0.8258   14.9057 C.3       1 RES1    0.0000
     47 H22        5.3490    0.7235   15.8060 H         1 RES1    0.0000
     48 H23        5.4607    0.0337   14.4024 H         1 RES1    0.0000
     49 H24        5.2356    1.5830   14.4997 H         1 RES1    0.0000
     50 C21        7.8831    1.3306   17.7156 C.1       1 RES1    0.0000
     51 C22        7.8787    0.4669   18.4960 C.1       1 RES1    0.0000
     52 C23        7.9154   -0.5426   19.6317 C.3       1 RES1    0.0000
     53 H25        8.1798   -1.4007   19.2655 H         1 RES1    0.0000
     54 H26        8.6047   -0.2692   20.2572 H         1 RES1    0.0000
     55 C24        6.7714   -0.7123   20.3144 C.3       1 RES1    0.0000
     56 H27        6.9450   -1.3783   20.9991 H         1 RES1    0.0000
     57 H28        6.1283   -1.1035   19.7023 H         1 RES1    0.0000
     58 C25        6.0899    0.4487   20.9914 C.3       1 RES1    0.0000
     59 H29        6.5733    0.6856   21.7848 H         1 RES1    0.0000
     60 H30        5.1920    0.2019   21.2241 H         1 RES1    0.0000
     61 H31        6.0707    1.2002   20.3926 H         1 RES1    0.0000
     62 C26        7.8447   -0.7431   19.3037 Du        2 SUP2    0.0000
     63 H32        8.7164   -1.1708   19.3266 Du        2 SUP2    0.0000
     64 H33        7.2016   -1.3811   18.9413 Du        2 SUP2    0.0000
     65 C27        7.3996   -0.2720   20.7931 Du        2 SUP2    0.0000
     66 H34        7.3953   -1.0263   21.4015 Du        2 SUP2    0.0000
     67 H35        8.0166    0.3954   21.1307 Du        2 SUP2    0.0000
     68 C28        6.1431    0.2524   20.6806 Du        2 SUP2    0.0000
     69 H36        6.0131    0.9254   21.3576 Du        2 SUP2    0.0000
     70 H37        5.4904   -0.4403   20.7931 Du        2 SUP2    0.0000
     71 H38        6.0375    0.6548   19.8129 Du        2 SUP2    0.0000
@<TRIPOS>BOND
     1    1    6 1
     2    2    5 2
     3    3    5 2
     4    4    9 2
     5    5   38 1
     6    6    7 2
     7    7    8 1
     8    9    7 1
     9   10    9 1
    10   11   10 1
    11   12   10 1
    12   13   12 1
    13   14   12 1
    14   15    1 1
    15   16    6 1
    16   17   16 1
    17   18   16 1
    18   19   16 1
    19   20   19 1
    20   21   19 1
    21   22   19 1
    22   23   22 1
    23   24   22 1
    24   25   22 1
    25   26   10 1
    26   27   26 1
    27   28   26 1
    28   29   26 1
    29   30   29 1
    30   31   29 1
    31   32   29 1
    32   33   12 1
    33   34   33 ar
    34   35   34 1
    35   36   34 ar
    36   37   36 1
    37   38   36 ar
    38   39   38 ar
    39   40   39 1
    40   41   33 ar
    41   42   41 1
    42   43   14 1
    43   44   43 1
    44   45   43 1
    45   46   43 1
    46   47   46 1
    47   48   46 1
    48   49   46 1
    49   50   15 1
    50   51   50 3
    51   52   51 1
    52   53   52 1
    53   54   52 1
    54   55   52 1
    55   56   55 1
    56   57   55 1
    57   58   55 1
    58   59   58 1
    59   60   58 1
    60   61   58 1
    61   14   15 2
    62   39   41 ar
@<TRIPOS>SUBSTRUCTURE
     1 RES1 1
     2 SUP2 62

@<TRIPOS>CRYSIN
   8.7260   14.0210   19.0710  90.0000  90.0000  90.0000  19 1

