# MOL2 file generated by ConQuest
# Please check atom types

@<TRIPOS>MOLECULE
ALACIA
    33    35     1
SMALL
NO_CHARGES
****
Generated from CSD

@<TRIPOS>ATOM
      1 O1         1.6556    0.0742    2.1823 O.3       1 RES1    0.0000
      2 O2         0.6104   -0.5128    8.3875 O.2       1 RES1    0.0000
      3 O3         1.6459   -2.3814    8.7752 O.2       1 RES1    0.0000
      4 N1         2.3242    1.4973    3.8539 N.ar      1 RES1    0.0000
      5 N2         1.2506   -1.4927    8.0181 N.pl3     1 RES1    0.0000
      6 C1         2.5745    1.6535    5.1896 C.ar      1 RES1    0.0000
      7 H1         2.9182    2.4948    5.4638 H         1 RES1    0.0000
      8 C2         2.3788    0.7181    6.1685 C.ar      1 RES1    0.0000
      9 C3         1.8543   -0.5556    5.7518 C.ar      1 RES1    0.0000
     10 C4         1.4867   -1.6527    6.5807 C.ar      1 RES1    0.0000
     11 C5         1.1879   -2.8926    6.0799 C.ar      1 RES1    0.0000
     12 H2         1.0004   -3.6077    6.6761 H         1 RES1    0.0000
     13 C6         1.1565   -3.1135    4.7051 C.ar      1 RES1    0.0000
     14 H3         0.9944   -3.9839    4.3617 H         1 RES1    0.0000
     15 C7         1.3620   -2.0613    3.8543 C.ar      1 RES1    0.0000
     16 H4         1.2708   -2.1884    2.9184 H         1 RES1    0.0000
     17 C8         1.7079   -0.7915    4.3556 C.ar      1 RES1    0.0000
     18 C9         1.9208    0.3181    3.4773 C.ar      1 RES1    0.0000
     19 C10        1.9604    1.1137    1.2273 C.3       1 RES1    0.0000
     20 H5         1.3799    1.8869    1.3903 H         1 RES1    0.0000
     21 H6         1.8095    0.7773    0.3200 H         1 RES1    0.0000
     22 H7         2.8973    1.3828    1.3246 H         1 RES1    0.0000
     23 C11        2.8360    1.0506    7.5463 C.ar      1 RES1    0.0000
     24 C12        2.5282    2.2872    8.1025 C.ar      1 RES1    0.0000
     25 H8         1.9596    2.8835    7.6298 H         1 RES1    0.0000
     26 C13        3.0355    2.6642    9.3340 C.ar      1 RES1    0.0000
     27 H9         2.8308    3.5205    9.6899 H         1 RES1    0.0000
     28 C14        3.8379    1.7955   10.0413 C.ar      1 RES1    0.0000
     29 H10        4.1733    2.0422   10.8958 H         1 RES1    0.0000
     30 C15        4.1524    0.5589    9.4987 C.ar      1 RES1    0.0000
     31 H11        4.7052   -0.0415    9.9845 H         1 RES1    0.0000
     32 C16        3.6712    0.1927    8.2601 C.ar      1 RES1    0.0000
     33 H12        3.9111   -0.6486    7.8905 H         1 RES1    0.0000
@<TRIPOS>BOND
     1    1   18 1
     2    2    5 2
     3    3    5 2
     4    4    6 ar
     5    5   10 1
     6    6    7 1
     7    8    6 ar
     8    9    8 ar
     9   10    9 ar
    10   11   10 ar
    11   12   11 1
    12   13   11 ar
    13   14   13 1
    14   15   13 ar
    15   16   15 1
    16   17    9 ar
    17   18    4 ar
    18   19    1 1
    19   20   19 1
    20   21   19 1
    21   22   19 1
    22   23    8 1
    23   24   23 ar
    24   25   24 1
    25   26   24 ar
    26   27   26 1
    27   28   26 ar
    28   29   28 1
    29   30   28 ar
    30   31   30 1
    31   32   23 ar
    32   33   32 1
    33   15   17 ar
    34   17   18 ar
    35   30   32 ar
@<TRIPOS>SUBSTRUCTURE
     1 RES1 1

@<TRIPOS>CRYSIN
   7.4710    8.3050   21.1940  90.0000  90.0000  90.0000  19 1

