# MOL2 file generated by ConQuest
# Please check atom types

@<TRIPOS>MOLECULE
ALASOV
    95    82     2
SMALL
NO_CHARGES
****
Generated from CSD

@<TRIPOS>ATOM
      1 O1         0.3462   18.3512    2.9549 O.3       1 RES1    0.0000
      2 O2         2.3811   18.4985    2.0167 O.2       1 RES1    0.0000
      3 O3        -2.3009   15.7468   -2.7396 O.2       1 RES1    0.0000
      4 O4        -0.5021   16.2885   -3.8567 O.2       1 RES1    0.0000
      5 O5         1.7423   17.0207    5.1144 O.3       1 RES1    0.0000
      6 O6         1.1083   15.9304    6.9385 O.2       1 RES1    0.0000
      7 O7         7.0180   12.2878    6.2247 O.2       1 RES1    0.0000
      8 O8         6.9721   12.8159    4.2261 O.2       1 RES1    0.0000
      9 N1        -1.2184   16.2794   -2.8620 N.pl3     1 RES1    0.0000
     10 N2         6.5352   12.9406    5.3251 N.pl3     1 RES1    0.0000
     11 O9         2.1682   21.7785    8.4771 O.3       1 RES1    0.0000
     12 O10        1.9960   23.1861    9.9137 O.2       1 RES1    0.0000
     13 O11        3.7563   21.6697    7.2353 Du        2 SUP2    0.0000
     14 C1         0.8105   21.5677    6.4830 C.1       1 RES1    0.0000
     15 C2         1.2747   22.4789    7.5956 C.3       1 RES1    0.0000
     16 H1         1.7158   23.2427    7.2172 H         1 RES1    0.0000
     17 H2         0.5144   22.7781    8.0987 H         1 RES1    0.0000
     18 C3         3.3080   21.5110    8.3253 Du        2 SUP2    0.0000
     19 C4         4.0815   21.0259    9.5149 Du        2 SUP2    0.0000
     20 C5         3.5683   21.0214   10.8065 Du        2 SUP2    0.0000
     21 H3         2.6948   21.3818   10.9742 Du        2 SUP2    0.0000
     22 C6         4.3172   20.4978   11.8534 Du        2 SUP2    0.0000
     23 H4         3.9624   20.4955   12.7440 Du        2 SUP2    0.0000
     24 C7         5.5856   19.9764   11.6087 Du        2 SUP2    0.0000
     25 C8         6.0988   19.9810   10.3171 Du        2 SUP2    0.0000
     26 H5         6.9736   19.6228   10.1494 Du        2 SUP2    0.0000
     27 C9         5.3498   20.5068    9.2702 Du        2 SUP2    0.0000
     28 H6         5.7060   20.5091    8.3797 Du        2 SUP2    0.0000
     29 N3         6.4561   19.2828   12.5446 Du        2 SUP2    0.0000
     30 O12        7.6735   19.2057   12.5378 Du        2 SUP2    0.0000
     31 O13        5.8390   19.1196   13.5847 Du        2 SUP2    0.0000
     32 C10        2.5633   22.2635    9.4741 C.2       1 RES1    0.0000
     33 C11        3.6521   21.4815   10.1403 C.ar      1 RES1    0.0000
     34 C12        3.6588   21.5609   11.5294 C.ar      1 RES1    0.0000
     35 H7         2.9636   22.0346   11.9871 H         1 RES1    0.0000
     36 C13        4.6772   20.9511   12.2523 C.ar      1 RES1    0.0000
     37 H8         4.6856   21.0055   13.2108 H         1 RES1    0.0000
     38 C14        5.6887   20.2643   11.5883 C.ar      1 RES1    0.0000
     39 C15        5.6817   20.1850   10.2015 C.ar      1 RES1    0.0000
     40 H9         6.3772   19.7112    9.7415 H         1 RES1    0.0000
     41 C16        4.6636   20.7947    9.4764 C.ar      1 RES1    0.0000
     42 H10        4.6552   20.7403    8.5179 H         1 RES1    0.0000
     43 N4         6.6476   19.6818   12.5196 N.pl3     1 RES1    0.0000
     44 O14        6.2486   19.1151   13.5235 O.2       1 RES1    0.0000
     45 O15        7.5632   19.2057   11.8693 O.2       1 RES1    0.0000
     46 C17        1.6588   24.8204    0.3784 C.3       1 RES1    0.0000
     47 H11        0.7229   24.7796    0.1677 H         1 RES1    0.0000
     48 H12        1.8610   25.6726    0.7750 H         1 RES1    0.0000
     49 H13        2.1720   24.7116   -0.4260 H         1 RES1    0.0000
     50 C18        3.4216   23.7187    1.8015 C.3       1 RES1    0.0000
     51 H14        3.5471   22.9911    2.4178 H         1 RES1    0.0000
     52 H15        3.9750   23.5827    1.0288 H         1 RES1    0.0000
     53 H16        3.6640   24.5438    2.2297 H         1 RES1    0.0000
     54 C19        2.0090   23.7323    1.3732 C.2       1 RES1    0.0000
     55 C20        1.0660   22.8801    1.7811 C.2       1 RES1    0.0000
     56 H17        0.1804   22.9617    1.4208 H         1 RES1    0.0000
     57 C21        1.2596   21.7785    2.7849 C.3       1 RES1    0.0000
     58 H18        1.6737   22.1525    3.5667 H         1 RES1    0.0000
     59 H19        1.8293   21.0984    2.4201 H         1 RES1    0.0000
     60 C22       -0.0738   21.1914    3.1996 C.3       1 RES1    0.0000
     61 H20       -0.4092   20.7494    2.4156 H         1 RES1    0.0000
     62 H21       -0.6560   21.9303    3.3831 H         1 RES1    0.0000
     63 C23       -0.1549   20.1986    4.3847 C.3       1 RES1    0.0000
     64 C24       -1.6257   19.8382    4.6657 C.3       1 RES1    0.0000
     65 H22       -1.6528   19.2261    5.4044 H         1 RES1    0.0000
     66 H23       -2.1181   20.6315    4.8900 H         1 RES1    0.0000
     67 H24       -2.0179   19.4256    3.8930 H         1 RES1    0.0000
     68 C25        0.7674   18.9972    4.1853 C.3       1 RES1    0.0000
     69 H25        1.6757   19.2964    4.0992 H         1 RES1    0.0000
     70 C26        1.2339   18.2265    1.9125 C.2       1 RES1    0.0000
     71 C27        0.5371   17.7301    0.7115 C.ar      1 RES1    0.0000
     72 C28        1.2469   17.7913   -0.4804 C.ar      1 RES1    0.0000
     73 H26        2.1207   18.1903   -0.4645 H         1 RES1    0.0000
     74 C29        0.6509   17.3357   -1.6610 C.ar      1 RES1    0.0000
     75 H27        1.1119   17.3652   -2.5017 H         1 RES1    0.0000
     76 C30       -0.5783   16.7940   -1.6134 C.ar      1 RES1    0.0000
     77 C31       -1.3365   16.6942   -0.4759 C.ar      1 RES1    0.0000
     78 H28       -2.2191   16.3180   -0.5008 H         1 RES1    0.0000
     79 C32       -0.7357   17.2065    0.7115 C.ar      1 RES1    0.0000
     80 H29       -1.2316   17.2043    1.5363 H         1 RES1    0.0000
     81 C33        0.6716   17.9681    5.3024 C.3       1 RES1    0.0000
     82 H30        0.7293   18.3875    6.1658 H         1 RES1    0.0000
     83 H31       -0.1739   17.5193    5.2254 H         1 RES1    0.0000
     84 C34        1.9225   16.0528    6.0502 C.2       1 RES1    0.0000
     85 C35        3.0963   15.2640    5.7624 C.ar      1 RES1    0.0000
     86 C36        3.8380   15.3886    4.6498 C.ar      1 RES1    0.0000
     87 H32        3.5719   16.0278    3.9836 H         1 RES1    0.0000
     88 C37        4.9842   14.5907    4.4595 C.ar      1 RES1    0.0000
     89 H33        5.5439   14.6565    3.6822 H         1 RES1    0.0000
     90 C38        5.2708   13.7135    5.4475 C.ar      1 RES1    0.0000
     91 C39        4.6090   13.5889    6.6326 C.ar      1 RES1    0.0000
     92 H34        4.9385   12.9973    7.3124 H         1 RES1    0.0000
     93 C40        3.4895   14.3550    6.7504 C.ar      1 RES1    0.0000
     94 H35        2.9383   14.2598    7.5299 H         1 RES1    0.0000
     95 C41        0.3862   20.9511    5.5404 C.1       1 RES1    0.0000
@<TRIPOS>BOND
     1    1   68 1
     2    2   70 2
     3    3    9 2
     4    4    9 2
     5    5   81 1
     6    6   84 2
     7    7   10 2
     8    8   10 2
     9    9   76 1
    10   10   90 1
    11   11   15 1
    12   12   32 2
    13   14   15 1
    14   15   16 1
    15   17   15 1
    16   32   11 1
    17   33   32 1
    18   34   33 ar
    19   35   34 1
    20   36   34 ar
    21   37   36 1
    22   38   36 ar
    23   39   38 ar
    24   40   39 1
    25   41   33 ar
    26   42   41 1
    27   43   38 1
    28   44   43 2
    29   45   43 2
    30   46   47 1
    31   48   46 1
    32   49   46 1
    33   50   51 1
    34   52   50 1
    35   53   50 1
    36   54   46 1
    37   55   54 2
    38   56   55 1
    39   57   55 1
    40   58   57 1
    41   59   57 1
    42   60   57 1
    43   61   60 1
    44   62   60 1
    45   63   60 1
    46   64   63 1
    47   65   64 1
    48   66   64 1
    49   67   64 1
    50   68   63 1
    51   69   68 1
    52   70    1 1
    53   71   70 1
    54   72   71 ar
    55   73   72 1
    56   74   72 ar
    57   75   74 1
    58   76   74 ar
    59   77   76 ar
    60   78   77 1
    61   79   71 ar
    62   80   79 1
    63   81   68 1
    64   82   81 1
    65   83   81 1
    66   84    5 1
    67   85   84 1
    68   86   85 ar
    69   87   86 1
    70   88   86 ar
    71   89   88 1
    72   90   88 ar
    73   91   90 ar
    74   92   91 1
    75   93   85 ar
    76   94   93 1
    77   95   14 3
    78   39   41 ar
    79   50   54 1
    80   63   95 1
    81   77   79 ar
    82   91   93 ar
@<TRIPOS>SUBSTRUCTURE
     1 RES1 1
     2 SUP2 13

@<TRIPOS>CRYSIN
   6.2704   22.6670   22.8660  90.0000  97.6970  90.0000  14 1

