# MOL2 file generated by ConQuest
# Please check atom types

@<TRIPOS>MOLECULE
ALEFON
    45    36     2
SMALL
NO_CHARGES
****
Generated from CSD

@<TRIPOS>ATOM
      1 O1         1.7570    6.0144    9.4851 O.2       1 RES1    0.0000
      2 N1         1.3345    5.5657    8.3705 N.3       1 RES1    0.0000
      3 C1         0.2334    6.3505    7.7158 C.3       1 RES1    0.0000
      4 C2         0.7990    7.6634    7.1629 C.3       1 RES1    0.0000
      5 H1         1.2282    8.1578    7.8792 H         1 RES1    0.0000
      6 H2         0.0782    8.1951    6.7904 H         1 RES1    0.0000
      7 H3         1.4495    7.4695    6.4700 H         1 RES1    0.0000
      8 C3        -0.8182    6.6406    8.7632 C.3       1 RES1    0.0000
      9 H4        -1.1414    5.8053    9.1367 H         1 RES1    0.0000
     10 H5        -1.5561    7.1198    8.3557 H         1 RES1    0.0000
     11 H6        -0.4310    7.1820    9.4689 H         1 RES1    0.0000
     12 C4        -0.3822    5.5231    6.5675 C.3       1 RES1    0.0000
     13 H7        -0.9959    4.8590    6.9454 H         1 RES1    0.0000
     14 H8        -0.9037    6.1176    5.9882 H         1 RES1    0.0000
     15 C5         0.6487    4.8231    5.7461 C.2       1 RES1    0.0000
     16 C6         1.4950    3.9043    6.5494 C.3       1 RES1    0.0000
     17 H9         2.1301    3.4496    5.9585 H         1 RES1    0.0000
     18 H10        0.9275    3.2212    6.9655 H         1 RES1    0.0000
     19 C7         2.2622    4.6503    7.6340 C.3       1 RES1    0.0000
     20 C8         3.4167    5.4541    7.0324 C.3       1 RES1    0.0000
     21 H11        3.0818    6.0119    6.3129 H         1 RES1    0.0000
     22 H12        4.0873    4.8450    6.6843 H         1 RES1    0.0000
     23 H13        3.8134    6.0135    7.7179 H         1 RES1    0.0000
     24 C9         2.8061    3.6393    8.6475 C.3       1 RES1    0.0000
     25 H14        3.3524    4.1007    9.3033 H         1 RES1    0.0000
     26 H15        3.3443    2.9772    8.1870 H         1 RES1    0.0000
     27 H16        2.0662    3.2010    9.0964 H         1 RES1    0.0000
     28 C10        0.8499    4.9744    4.4238 C.2       1 RES1    0.0000
     29 H17        1.5286    4.4456    4.0441 H         1 RES1    0.0000
     30 C11        0.1324    5.8694    3.5028 C.2       1 RES1    0.0000
     31 O2        -0.6589    6.7320    3.7755 O.2       1 RES1    0.0000
     32 O3         0.5035    5.5936    2.2444 O.3       1 RES1    0.0000
     33 C12       -0.0407    6.4242    1.2031 C.3       1 RES1    0.0000
     34 H18       -1.0059    6.3305    1.1853 H         1 RES1    0.0000
     35 H19        0.3269    6.1518    0.3470 H         1 RES1    0.0000
     36 H20        0.1904    7.3498    1.3742 H         1 RES1    0.0000
     37 H21        0.6094    7.7227    6.2142 Du        2 SUP2    0.0000
     38 H22        1.7587    7.6854    7.3030 Du        2 SUP2    0.0000
     39 H23        0.3874    8.4111    7.6235 Du        2 SUP2    0.0000
     40 H24       -0.9448    7.6000    8.8375 Du        2 SUP2    0.0000
     41 H25       -0.5293    6.2854    9.6185 Du        2 SUP2    0.0000
     42 H26       -1.6551    6.2232    8.5053 Du        2 SUP2    0.0000
     43 H27        0.6804    6.8914    0.7524 Du        2 SUP2    0.0000
     44 H28       -0.6524    7.0701    1.5907 Du        2 SUP2    0.0000
     45 H29       -0.5166    5.8705    0.5635 Du        2 SUP2    0.0000
@<TRIPOS>BOND
     1    1    2 1
     2    2    3 1
     3    3    4 1
     4    4    5 1
     5    6    4 1
     6    7    4 1
     7    8    3 1
     8    9    8 1
     9   10    8 1
    10   11    8 1
    11   12    3 1
    12   13   12 1
    13   14   12 1
    14   15   12 1
    15   16   15 1
    16   17   16 1
    17   18   16 1
    18   19    2 1
    19   20   19 1
    20   21   20 1
    21   22   20 1
    22   23   20 1
    23   24   19 1
    24   25   24 1
    25   26   24 1
    26   27   24 1
    27   28   15 2
    28   29   28 1
    29   30   28 1
    30   31   30 2
    31   32   30 1
    32   33   32 1
    33   34   33 1
    34   35   33 1
    35   36   33 1
    36   16   19 1
@<TRIPOS>SUBSTRUCTURE
     1 RES1 1
     2 SUP2 37

@<TRIPOS>CRYSIN
   7.7657   15.5387   11.2639  90.0000 109.5925  90.0000  14 1

