# MOL2 file generated by ConQuest
# Please check atom types

@<TRIPOS>MOLECULE
ALICUV01
    31    31     1
SMALL
NO_CHARGES
****
Generated from CSD

@<TRIPOS>ATOM
      1 C1         3.4867   12.0478    6.0077 C.3       1 RES1    0.0000
      2 H1         4.0215   11.8980    5.2390 H         1 RES1    0.0000
      3 H2         2.5310   12.0371    5.7841 H         1 RES1    0.0000
      4 H3         3.6865   12.9217    6.1722 H         1 RES1    0.0000
      5 C2         3.4973    9.6204    6.6286 C.3       1 RES1    0.0000
      6 H4         3.9425    9.4898    5.7194 H         1 RES1    0.0000
      7 H5         3.6865    9.0020    7.2255 H         1 RES1    0.0000
      8 H6         2.4530    9.5103    6.6342 H         1 RES1    0.0000
      9 C3         3.9242   11.0292    7.0537 C.3       1 RES1    0.0000
     10 C4         5.4007   11.1235    7.5101 C.3       1 RES1    0.0000
     11 C5         5.9702   12.5281    7.4815 C.3       1 RES1    0.0000
     12 H7         6.1210   12.8598    6.5880 H         1 RES1    0.0000
     13 H8         5.3638   13.1577    7.8908 H         1 RES1    0.0000
     14 H9         6.8020   12.6592    7.9924 H         1 RES1    0.0000
     15 C6         6.3568   10.1651    6.8384 C.3       1 RES1    0.0000
     16 H10        6.3487   10.3734    5.8026 H         1 RES1    0.0000
     17 H11        7.3265   10.2645    7.2717 H         1 RES1    0.0000
     18 H12        6.0561    9.3392    6.9853 H         1 RES1    0.0000
     19 N1         3.2302   11.2941    8.3463 N.pl3     1 RES1    0.0000
     20 O1         2.0031   11.6576    8.3824 O.2       1 RES1    0.0000
     21 C7         4.0045   10.9855    9.4126 C.2       1 RES1    0.0000
     22 N2         5.2595   10.7551    8.9700 N.pl3     1 RES1    0.0000
     23 O2         6.2626   10.3913    9.6602 O.2       1 RES1    0.0000
     24 C8         3.5334   10.8733   10.7875 C.2       1 RES1    0.0000
     25 N3         2.1999   10.6762   10.9390 N.3       1 RES1    0.0000
     26 H13        1.7732   10.8562   11.7993 H         1 RES1    0.0000
     27 H14        1.7072   10.8446   10.0899 H         1 RES1    0.0000
     28 C9         4.4195   10.9445   11.8094 C.2       1 RES1    0.0000
     29 H15        5.3254   11.0114   11.6976 H         1 RES1    0.0000
     30 C10        3.9987   10.8528   13.1621 C.1       1 RES1    0.0000
     31 N4         3.6613   10.7623   14.2450 N.1       1 RES1    0.0000
@<TRIPOS>BOND
     1    1    2 1
     2    3    1 1
     3    4    1 1
     4    5    6 1
     5    7    5 1
     6    8    5 1
     7    9    1 1
     8   10    9 1
     9   11   10 1
    10   12   11 1
    11   13   11 1
    12   14   11 1
    13   15   10 1
    14   16   15 1
    15   17   15 1
    16   18   15 1
    17   19    9 1
    18   20   19 un
    19   21   19 un
    20   22   10 1
    21   23   22 un
    22   24   21 1
    23   25   24 1
    24   26   25 1
    25   27   25 1
    26   28   24 2
    27   29   28 1
    28   30   28 1
    29   31   30 3
    30    5    9 1
    31   21   22 un
@<TRIPOS>SUBSTRUCTURE
     1 RES1 1

@<TRIPOS>CRYSIN
   7.1009    9.0783   10.2090  64.9780  86.5150  75.8150   2 1

