# MOL2 file generated by ConQuest
# Please check atom types

@<TRIPOS>MOLECULE
ALOFUE
    40    42     1
SMALL
NO_CHARGES
****
Generated from CSD

@<TRIPOS>ATOM
      1 O1        11.7616    7.0933    2.5825 O.2       1 RES1    0.0000
      2 O2        11.1238    9.0055    1.8742 O.2       1 RES1    0.0000
      3 O3         8.8960    6.7953    0.7717 O.3       1 RES1    0.0000
      4 H1         8.9627    6.0281    1.1077 H         1 RES1    0.0000
      5 O4         6.8078    9.9374    2.2153 O.2       1 RES1    0.0000
      6 O5         5.3726    6.2258    3.1427 O.3       1 RES1    0.0000
      7 O6         1.3691    8.0257    4.9681 O.3       1 RES1    0.0000
      8 N1        10.9133    7.9571    2.4550 N.pl3     1 RES1    0.0000
      9 C1         9.5271    7.6952    2.9546 C.3       1 RES1    0.0000
     10 H2         9.2717    8.3860    3.6166 H         1 RES1    0.0000
     11 H3         9.4925    6.8111    3.3994 H         1 RES1    0.0000
     12 C2         8.5563    7.7222    1.7792 C.3       1 RES1    0.0000
     13 H4         8.6278    8.6318    1.3686 H         1 RES1    0.0000
     14 C3         6.6003    6.4060    2.6115 C.2       1 RES1    0.0000
     15 H5         7.1148    5.6311    2.4191 H         1 RES1    0.0000
     16 C4         7.1501    7.6023    2.3327 C.2       1 RES1    0.0000
     17 C5         6.3878    8.8231    2.5723 C.2       1 RES1    0.0000
     18 C6         5.0977    8.6251    3.2196 C.ar      1 RES1    0.0000
     19 C7         4.6300    7.3331    3.4652 C.ar      1 RES1    0.0000
     20 C8         3.3895    7.0650    4.0418 C.ar      1 RES1    0.0000
     21 H6         3.0991    6.1716    4.1855 H         1 RES1    0.0000
     22 C9         2.5970    8.1380    4.3985 C.ar      1 RES1    0.0000
     23 C10        3.0454    9.4652    4.1923 C.ar      1 RES1    0.0000
     24 H7         2.5011   10.1966    4.4592 H         1 RES1    0.0000
     25 C11        4.2666    9.6974    3.6064 C.ar      1 RES1    0.0000
     26 H8         4.5547   10.5904    3.4610 H         1 RES1    0.0000
     27 C12        0.8507    6.6900    5.1127 C.3       1 RES1    0.0000
     28 H9         1.4044    6.1816    5.7560 H         1 RES1    0.0000
     29 H10        0.8800    6.2216    4.2402 H         1 RES1    0.0000
     30 C13       -0.5676    6.7640    5.6063 C.ar      1 RES1    0.0000
     31 C14       -1.0170    5.8190    6.5182 C.ar      1 RES1    0.0000
     32 H11       -0.4083    5.1840    6.8766 H         1 RES1    0.0000
     33 C15       -2.3554    5.7934    6.9142 C.ar      1 RES1    0.0000
     34 H12       -2.6569    5.1317    7.5250 H         1 RES1    0.0000
     35 C16       -3.2349    6.7266    6.4206 C.ar      1 RES1    0.0000
     36 H13       -4.1413    6.7188    6.7029 H         1 RES1    0.0000
     37 C17       -2.8006    7.6797    5.5096 C.ar      1 RES1    0.0000
     38 H14       -3.4114    8.3248    5.1709 H         1 RES1    0.0000
     39 C18       -1.4724    7.6933    5.0922 C.ar      1 RES1    0.0000
     40 H15       -1.1812    8.3359    4.4566 H         1 RES1    0.0000
@<TRIPOS>BOND
     1    1    8 2
     2    2    8 2
     3    3    4 1
     4    5   17 2
     5    6   14 1
     6    7   22 1
     7    8    9 1
     8    9   10 1
     9   11    9 1
    10   12    3 1
    11   13   12 1
    12   14   15 1
    13   16   12 1
    14   17   16 1
    15   18   17 1
    16   19    6 1
    17   20   19 ar
    18   21   20 1
    19   22   20 ar
    20   23   22 ar
    21   24   23 1
    22   25   18 ar
    23   26   25 1
    24   27    7 1
    25   28   27 1
    26   29   27 1
    27   30   27 1
    28   31   30 ar
    29   32   31 1
    30   33   31 ar
    31   34   33 1
    32   35   33 ar
    33   36   35 1
    34   37   35 ar
    35   38   37 1
    36   39   30 ar
    37   40   39 1
    38    9   12 1
    39   14   16 2
    40   18   19 ar
    41   23   25 ar
    42   37   39 ar
@<TRIPOS>SUBSTRUCTURE
     1 RES1 1

@<TRIPOS>CRYSIN
  16.7020   11.1220    8.7263  90.0000 101.4040  90.0000  14 1

