# MOL2 file generated by ConQuest
# Please check atom types

@<TRIPOS>MOLECULE
ALONAQ
    37    39     1
SMALL
USER_CHARGES
****
Generated from CSD

@<TRIPOS>ATOM
      1 C1         2.2318    4.5020    7.8630 C.ar      1 RES1    0.0000
      2 C2         3.4999    5.2312    8.0035 C.2       1 RES1    0.0000
      3 N1         3.3018    4.6185    5.8534 N.pl3     1 RES1    1.0000
      4 O1         3.4752    4.3708    4.5843 O.2       1 RES1   -1.0000
      5 C3         4.0808    5.2772    6.6824 C.2       1 RES1    0.0000
      6 C4         2.1276    4.1329    6.5515 C.ar      1 RES1    0.0000
      7 C5         1.1050    3.4262    6.0195 C.ar      1 RES1    0.0000
      8 H1         1.0832    3.1844    5.1006 H         1 RES1    0.0000
      9 C6         0.0910    3.0757    6.8952 C.ar      1 RES1    0.0000
     10 H2        -0.6568    2.5872    6.5717 H         1 RES1    0.0000
     11 C7         4.1159    5.7324    9.0680 C.2       1 RES1    0.0000
     12 H3         3.6856    5.6786    9.9136 H         1 RES1    0.0000
     13 C8         1.2235    4.1231    8.7402 C.ar      1 RES1    0.0000
     14 H4         1.2728    4.3385    9.6634 H         1 RES1    0.0000
     15 C9         0.1497    3.4242    8.2282 C.ar      1 RES1    0.0000
     16 H5        -0.5629    3.1785    8.8063 H         1 RES1    0.0000
     17 C10        5.3858    5.9243    6.3531 C.3       1 RES1    0.0000
     18 C11        5.4739    6.3824    8.9846 C.3       1 RES1    0.0000
     19 C12        5.7734    6.8366    7.5581 C.3       1 RES1    0.0000
     20 H6         6.7476    7.0040    7.5006 H         1 RES1    0.0000
     21 H7         5.3232    7.7088    7.4258 H         1 RES1    0.0000
     22 C13        6.4387    4.8583    6.0813 C.3       1 RES1    0.0000
     23 H8         6.5183    4.2709    6.8621 H         1 RES1    0.0000
     24 H9         7.3020    5.2890    5.9073 H         1 RES1    0.0000
     25 H10        6.1752    4.3297    5.3005 H         1 RES1    0.0000
     26 C14        5.3175    6.8210    5.1322 C.3       1 RES1    0.0000
     27 H11        5.0029    6.3022    4.3629 H         1 RES1    0.0000
     28 H12        6.2084    7.1812    4.9410 H         1 RES1    0.0000
     29 H13        4.6959    7.5591    5.3033 H         1 RES1    0.0000
     30 C15        5.5241    7.6256    9.8676 C.3       1 RES1    0.0000
     31 H14        6.4036    8.0505    9.7842 H         1 RES1    0.0000
     32 H15        5.3725    7.3701   10.8008 H         1 RES1    0.0000
     33 H16        4.8295    8.2560    9.5843 H         1 RES1    0.0000
     34 C16        6.4823    5.3654    9.5411 C.3       1 RES1    0.0000
     35 H17        6.4927    4.5685    8.9702 H         1 RES1    0.0000
     36 H18        6.2217    5.1118   10.4514 H         1 RES1    0.0000
     37 H19        7.3759    5.7667    9.5569 H         1 RES1    0.0000
@<TRIPOS>BOND
     1    1    2 1
     2    2    5 1
     3    3    4 1
     4    5    3 2
     5    6    1 ar
     6    7    6 ar
     7    8    7 1
     8    9    7 ar
     9   10    9 1
    10   11    2 2
    11   12   11 1
    12   13    1 ar
    13   14   13 1
    14   15    9 ar
    15   16   15 1
    16   17    5 1
    17   18   11 1
    18   19   17 1
    19   20   19 1
    20   21   19 1
    21   22   17 1
    22   23   22 1
    23   24   22 1
    24   25   22 1
    25   26   17 1
    26   27   26 1
    27   28   26 1
    28   29   26 1
    29   30   18 1
    30   31   30 1
    31   32   30 1
    32   33   30 1
    33   34   18 1
    34   35   34 1
    35   36   34 1
    36   37   34 1
    37    3    6 1
    38   13   15 ar
    39   18   19 1
@<TRIPOS>SUBSTRUCTURE
     1 RES1 1

@<TRIPOS>CRYSIN
   9.4770    9.7890   14.3800  90.0000  90.0000  90.0000  19 1

