# MOL2 file generated by ConQuest
# Please check atom types

@<TRIPOS>MOLECULE
ALORIE
    41    44     1
SMALL
NO_CHARGES
****
Generated from CSD

@<TRIPOS>ATOM
      1 O1         3.9579    1.1262   11.9991 O.3       1 RES1    0.0000
      2 O2         1.4808   -3.1657   15.9844 O.2       1 RES1    0.0000
      3 O3        -0.3786   -2.1133   15.1937 O.3       1 RES1    0.0000
      4 N1        -1.0824   -3.0583   15.9034 N.pl3     1 RES1    0.0000
      5 N2        -1.4813   -4.1823   15.2706 N.2       1 RES1    0.0000
      6 N3        -2.2163   -4.8556   16.1140 N.2       1 RES1    0.0000
      7 C1         4.9968    3.6584   10.1964 C.ar      1 RES1    0.0000
      8 H1         4.8184    4.2198   10.9421 H         1 RES1    0.0000
      9 C2         5.9383    4.0436    9.2614 C.ar      1 RES1    0.0000
     10 H2         6.4024    4.8651    9.3703 H         1 RES1    0.0000
     11 C3         6.2065    3.2462    8.1761 C.ar      1 RES1    0.0000
     12 H3         6.8561    3.5130    7.5377 H         1 RES1    0.0000
     13 C4         5.5253    2.0529    8.0186 C.ar      1 RES1    0.0000
     14 H4         5.7062    1.4964    7.2694 H         1 RES1    0.0000
     15 C5         4.5756    1.6709    8.9607 C.ar      1 RES1    0.0000
     16 H5         4.1046    0.8545    8.8463 H         1 RES1    0.0000
     17 C6         4.3094    2.4622   10.0613 C.ar      1 RES1    0.0000
     18 C7         3.2911    2.0221   11.0742 C.3       1 RES1    0.0000
     19 H6         2.9285    2.8061   11.5572 H         1 RES1    0.0000
     20 H7         2.5423    1.5557   10.6257 H         1 RES1    0.0000
     21 C8         3.1729    0.3875   12.8291 C.ar      1 RES1    0.0000
     22 C9         1.8049    0.5777   13.0030 C.ar      1 RES1    0.0000
     23 H8         1.3632    1.2907   12.5570 H         1 RES1    0.0000
     24 C10        1.0928   -0.2718   13.8241 C.ar      1 RES1    0.0000
     25 H9         0.1583   -0.1415   13.9415 H         1 RES1    0.0000
     26 C11        1.7311   -1.3192   14.4827 C.ar      1 RES1    0.0000
     27 C12        3.1148   -1.4780   14.3381 C.ar      1 RES1    0.0000
     28 H10        3.5653   -2.1709   14.8072 H         1 RES1    0.0000
     29 C13        3.8222   -0.6325   13.5191 C.ar      1 RES1    0.0000
     30 H11        4.7609   -0.7449   13.4226 H         1 RES1    0.0000
     31 C14        1.0271   -2.3000   15.3063 C.2       1 RES1    0.0000
     32 C15       -1.5607   -2.9649   17.1700 C.ar      1 RES1    0.0000
     33 C16       -1.4289   -2.0327   18.1900 C.ar      1 RES1    0.0000
     34 H12       -0.9099   -1.2437   18.0926 H         1 RES1    0.0000
     35 C17       -2.1020   -2.3269   19.3516 C.ar      1 RES1    0.0000
     36 H13       -2.0506   -1.7196   20.0795 H         1 RES1    0.0000
     37 C18       -2.8642   -3.5007   19.4946 C.ar      1 RES1    0.0000
     38 H14       -3.3153   -3.6611   20.3149 H         1 RES1    0.0000
     39 C19       -2.9753   -4.4200   18.4826 C.ar      1 RES1    0.0000
     40 H15       -3.4909   -5.2107   18.5836 H         1 RES1    0.0000
     41 C20       -2.2912   -4.1387   17.2932 C.ar      1 RES1    0.0000
@<TRIPOS>BOND
     1    1   18 1
     2    2   31 2
     3    3    4 1
     4    4    5 1
     5    5    6 2
     6    6   41 1
     7    7    8 1
     8    9    7 ar
     9   10    9 1
    10   11    9 ar
    11   12   11 1
    12   13   11 ar
    13   14   13 1
    14   15   13 ar
    15   16   15 1
    16   17    7 ar
    17   18   17 1
    18   19   18 1
    19   20   18 1
    20   21    1 1
    21   22   21 ar
    22   23   22 1
    23   24   22 ar
    24   25   24 1
    25   26   24 ar
    26   27   26 ar
    27   28   27 1
    28   29   21 ar
    29   30   29 1
    30   31    3 1
    31   32    4 1
    32   33   32 ar
    33   34   33 1
    34   35   33 ar
    35   36   35 1
    36   37   35 ar
    37   38   37 1
    38   39   37 ar
    39   40   39 1
    40   41   32 ar
    41   15   17 ar
    42   26   31 1
    43   27   29 ar
    44   39   41 ar
@<TRIPOS>SUBSTRUCTURE
     1 RES1 1

@<TRIPOS>CRYSIN
  11.5955    5.5921   25.3157  90.0000  91.0600  90.0000  14 1

