# MOL2 file generated by ConQuest
# Please check atom types

@<TRIPOS>MOLECULE
ALOTUS
    42    42     1
SMALL
NO_CHARGES
****
Generated from CSD

@<TRIPOS>ATOM
      1 N1         1.4374    7.2670   -0.8741 N.pl3     1 RES1    0.0000
      2 O1         1.9694    7.8566   -1.8074 O.2       1 RES1    0.0000
      3 O2         0.2230    7.2224   -0.6888 O.2       1 RES1    0.0000
      4 O3         5.9086    3.9744    2.2076 O.2       1 RES1    0.0000
      5 O4         2.4351    3.8768    5.2487 O.2       1 RES1    0.0000
      6 O5         3.1435    2.4172    3.6846 O.3       1 RES1    0.0000
      7 C1         4.4503    5.7344    0.6772 C.ar      1 RES1    0.0000
      8 C2         3.6508    6.4442   -0.2006 C.ar      1 RES1    0.0000
      9 C3         2.3085    6.5600    0.0862 C.ar      1 RES1    0.0000
     10 C4         1.7445    6.0240    1.2205 C.ar      1 RES1    0.0000
     11 C5         2.5633    5.3434    2.1136 C.ar      1 RES1    0.0000
     12 C6         3.9227    5.1765    1.8378 C.ar      1 RES1    0.0000
     13 C7         4.8742    4.3839    2.7027 C.2       1 RES1    0.0000
     14 C8         4.6043    4.1882    4.2028 C.3       1 RES1    0.0000
     15 C9         3.2603    3.5107    4.4517 C.2       1 RES1    0.0000
     16 C10        1.9277    1.6166    3.8418 C.3       1 RES1    0.0000
     17 C11        2.2493    0.2230    3.4198 C.3       1 RES1    0.0000
     18 C12        4.6162    5.5770    4.8911 C.3       1 RES1    0.0000
     19 C13        5.8279    6.3939    4.5879 C.2       1 RES1    0.0000
     20 C14        6.7400    6.7017    5.4831 C.2       1 RES1    0.0000
     21 C15        5.6966    3.2512    4.7811 C.3       1 RES1    0.0000
     22 C16        5.4567    2.8576    6.2041 C.2       1 RES1    0.0000
     23 C17        5.1081    1.6457    6.5809 C.2       1 RES1    0.0000
     24 H1         5.4079    5.5928    0.4814 H         1 RES1    0.0000
     25 H2         4.0268    6.8152   -1.0063 H         1 RES1    0.0000
     26 H3         0.8327    6.1356    1.4133 H         1 RES1    0.0000
     27 H4         2.1493    5.0332    2.9137 H         1 RES1    0.0000
     28 H5         1.2087    2.0531    3.2632 H         1 RES1    0.0000
     29 H6         1.6585    1.6641    4.7397 H         1 RES1    0.0000
     30 H7         1.4336   -0.3332    3.5832 H         1 RES1    0.0000
     31 H8         2.5523    0.1707    2.5263 H         1 RES1    0.0000
     32 H9         2.9896   -0.1734    3.9172 H         1 RES1    0.0000
     33 H10        3.8073    6.0601    4.5979 H         1 RES1    0.0000
     34 H11        4.5354    5.4247    5.8414 H         1 RES1    0.0000
     35 H12        5.9493    6.7039    3.6646 H         1 RES1    0.0000
     36 H13        7.5360    7.2422    5.2534 H         1 RES1    0.0000
     37 H14        6.6334    6.4241    6.4421 H         1 RES1    0.0000
     38 H15        6.5624    3.7289    4.6877 H         1 RES1    0.0000
     39 H16        5.7458    2.4456    4.2358 H         1 RES1    0.0000
     40 H17        5.5615    3.5521    6.8758 H         1 RES1    0.0000
     41 H18        4.9311    1.4082    7.4934 H         1 RES1    0.0000
     42 H19        5.0636    0.9049    5.9172 H         1 RES1    0.0000
@<TRIPOS>BOND
     1    1    2 2
     2    3    1 2
     3    4   13 2
     4    5   15 2
     5    6   15 1
     6    7    8 ar
     7    8    9 ar
     8    9    1 1
     9   10    9 ar
    10   11   10 ar
    11   12    7 ar
    12   13   12 1
    13   14   13 1
    14   15   14 1
    15   16    6 1
    16   17   16 1
    17   18   14 1
    18   19   18 1
    19   20   19 2
    20   21   14 1
    21   22   21 1
    22   23   22 2
    23   24    7 1
    24   25    8 1
    25   26   10 1
    26   27   11 1
    27   28   16 1
    28   29   16 1
    29   30   17 1
    30   31   17 1
    31   32   17 1
    32   33   18 1
    33   34   18 1
    34   35   19 1
    35   36   20 1
    36   37   20 1
    37   38   21 1
    38   39   21 1
    39   40   22 1
    40   41   23 1
    41   42   23 1
    42   11   12 ar
@<TRIPOS>SUBSTRUCTURE
     1 RES1 1

@<TRIPOS>CRYSIN
   6.8087    8.5425   14.0803  85.7800  87.8500  85.1970   2 1

