# MOL2 file generated by ConQuest
# Please check atom types

@<TRIPOS>MOLECULE
ALUJUO
    82    87     1
SMALL
NO_CHARGES
****
Generated from CSD

@<TRIPOS>ATOM
      1 C1         9.6487    7.5799   -5.9150 C.2       1 RES1    0.0000
      2 C2         9.9531    7.5641   -7.2520 C.2       1 RES1    0.0000
      3 H1         9.3958    7.2483   -7.9543 H         1 RES1    0.0000
      4 C3        11.2584    8.1077   -7.3885 C.2       1 RES1    0.0000
      5 H2        11.7318    8.2084   -8.2062 H         1 RES1    0.0000
      6 C4        11.7121    8.4573   -6.1726 C.2       1 RES1    0.0000
      7 C5        14.0186    7.7685   -5.5857 C.3       1 RES1    0.0000
      8 H3        14.8942    8.0713   -5.2662 H         1 RES1    0.0000
      9 H4        14.1223    7.3330   -6.4583 H         1 RES1    0.0000
     10 H5        13.6405    7.1301   -4.9454 H         1 RES1    0.0000
     11 C6        13.0745    8.9780   -5.7236 C.3       1 RES1    0.0000
     12 C7        13.6429    9.9160   -6.7763 C.3       1 RES1    0.0000
     13 H6        13.0812   10.7160   -6.8382 H         1 RES1    0.0000
     14 H7        13.6600    9.4607   -7.6446 H         1 RES1    0.0000
     15 H8        14.5538   10.1743   -6.5258 H         1 RES1    0.0000
     16 C8        12.9414    9.6549   -4.3726 C.2       1 RES1    0.0000
     17 C9        13.2339    9.2214   -3.1144 C.2       1 RES1    0.0000
     18 H9        13.6457    8.3946   -2.8921 H         1 RES1    0.0000
     19 C10       12.8211   10.2137   -2.1954 C.2       1 RES1    0.0000
     20 H10       12.9074   10.1715   -1.2511 H         1 RES1    0.0000
     21 C11       12.2724   11.2493   -2.9118 C.2       1 RES1    0.0000
     22 C12       12.6975   13.6984   -2.8456 C.3       1 RES1    0.0000
     23 H11       12.8400   13.6970   -3.8153 H         1 RES1    0.0000
     24 H12       13.5511   13.5467   -2.3897 H         1 RES1    0.0000
     25 H13       12.3294   14.5648   -2.5712 H         1 RES1    0.0000
     26 C13       11.7140   12.5860   -2.4727 C.3       1 RES1    0.0000
     27 C14       11.5644   12.5700   -0.9415 C.3       1 RES1    0.0000
     28 H14       11.2234   13.4378   -0.6375 H         1 RES1    0.0000
     29 H15       12.4374   12.4006   -0.5292 H         1 RES1    0.0000
     30 H16       10.9379   11.8631   -0.6811 H         1 RES1    0.0000
     31 C15       10.3738   12.8299   -3.1158 C.2       1 RES1    0.0000
     32 C16        9.9107   13.8519   -3.9068 C.2       1 RES1    0.0000
     33 H17       10.4107   14.6026   -4.2037 H         1 RES1    0.0000
     34 C17        8.5443   13.5814   -4.2023 C.2       1 RES1    0.0000
     35 H18        7.9641   14.1195   -4.7272 H         1 RES1    0.0000
     36 C18        8.2232   12.4058   -3.5929 C.2       1 RES1    0.0000
     37 C19        6.2788   11.9745   -2.0814 C.3       1 RES1    0.0000
     38 H19        6.8588   11.6075   -1.3820 H         1 RES1    0.0000
     39 H20        5.3930   11.5586   -2.0237 H         1 RES1    0.0000
     40 H21        6.1938   12.9426   -1.9618 H         1 RES1    0.0000
     41 C20        6.8965   11.6789   -3.4705 C.3       1 RES1    0.0000
     42 C21        5.9238   12.1664   -4.5584 C.3       1 RES1    0.0000
     43 H22        5.7333   13.1174   -4.4233 H         1 RES1    0.0000
     44 H23        5.0893   11.6545   -4.5021 H         1 RES1    0.0000
     45 H24        6.3283   12.0356   -5.4408 H         1 RES1    0.0000
     46 C22        7.1138   10.1880   -3.6464 C.2       1 RES1    0.0000
     47 C23        7.9289    9.5061   -4.5485 C.2       1 RES1    0.0000
     48 H25        8.4845    9.9109   -5.2043 H         1 RES1    0.0000
     49 C24        7.8003    8.1410   -4.3332 C.2       1 RES1    0.0000
     50 C25        6.8725    8.0031   -3.2946 C.2       1 RES1    0.0000
     51 C26        8.9756    5.9033   -4.2220 C.3       1 RES1    0.0000
     52 H26        9.3834    5.1975   -4.7666 H         1 RES1    0.0000
     53 H27        8.2233    5.5324   -3.7154 H         1 RES1    0.0000
     54 H28        9.6417    6.2630   -3.6014 H         1 RES1    0.0000
     55 C27        8.4678    7.0336   -5.1438 C.3       1 RES1    0.0000
     56 C28        7.4431    6.4446   -6.1289 C.3       1 RES1    0.0000
     57 H29        7.1202    7.1508   -6.7257 H         1 RES1    0.0000
     58 H30        6.6882    6.0690   -5.6279 H         1 RES1    0.0000
     59 H31        7.8681    5.7373   -6.6581 H         1 RES1    0.0000
     60 C29        5.0859    5.9195   -1.1287 C.ar      1 RES1    0.0000
     61 C30        4.0232    6.0851   -0.2392 C.ar      1 RES1    0.0000
     62 H32        3.6022    6.9331   -0.1618 H         1 RES1    0.0000
     63 C31        3.5743    5.0266    0.5320 C.ar      1 RES1    0.0000
     64 H33        2.8634    5.1424    1.1526 H         1 RES1    0.0000
     65 C32        4.1870    3.7940    0.3786 C.ar      1 RES1    0.0000
     66 C33        5.2093    3.5955   -0.5221 C.ar      1 RES1    0.0000
     67 H34        5.5960    2.7339   -0.6277 H         1 RES1    0.0000
     68 C34        5.6652    4.6610   -1.2666 C.ar      1 RES1    0.0000
     69 H35        6.3798    4.5355   -1.8802 H         1 RES1    0.0000
     70 N1        10.7287    8.1248   -5.2648 N.pl3     1 RES1    0.0000
     71 H36       10.7859    8.2460   -4.3951 H         1 RES1    0.0000
     72 N2        12.3603   10.8976   -4.2403 N.pl3     1 RES1    0.0000
     73 H37       12.0837   11.3964   -4.9102 H         1 RES1    0.0000
     74 N3         9.3342   11.9570   -2.9258 N.pl3     1 RES1    0.0000
     75 H38        9.3736   11.2195   -2.4474 H         1 RES1    0.0000
     76 N4         6.4733    9.2625   -2.9090 N.pl3     1 RES1    0.0000
     77 H39        5.8873    9.4369   -2.2757 H         1 RES1    0.0000
     78 N5         6.3974    6.8609   -2.7091 N.2       1 RES1    0.0000
     79 N6         5.5186    7.0850   -1.7859 N.2       1 RES1    0.0000
     80 N7         3.7759    2.6895    1.2356 N.pl3     1 RES1    0.0000
     81 O1         4.2862    1.5796    1.0639 O.2       1 RES1    0.0000
     82 O2         2.9470    2.9218    2.1223 O.2       1 RES1    0.0000
@<TRIPOS>BOND
     1    1    2 2
     2    2    3 1
     3    4    2 1
     4    5    4 1
     5    6    4 2
     6    7    8 1
     7    9    7 1
     8   10    7 1
     9   11    6 1
    10   12   11 1
    11   13   12 1
    12   14   12 1
    13   15   12 1
    14   16   11 1
    15   17   16 2
    16   18   17 1
    17   19   17 1
    18   20   19 1
    19   21   19 2
    20   22   23 1
    21   24   22 1
    22   25   22 1
    23   26   21 1
    24   27   26 1
    25   28   27 1
    26   29   27 1
    27   30   27 1
    28   31   26 1
    29   32   31 2
    30   33   32 1
    31   34   32 1
    32   35   34 1
    33   36   34 2
    34   37   38 1
    35   39   37 1
    36   40   37 1
    37   41   36 1
    38   42   41 1
    39   43   42 1
    40   44   42 1
    41   45   42 1
    42   46   41 1
    43   47   46 2
    44   48   47 1
    45   49   47 1
    46   50   49 2
    47   51   52 1
    48   53   51 1
    49   54   51 1
    50   55    1 1
    51   56   55 1
    52   57   56 1
    53   58   56 1
    54   59   56 1
    55   60   61 ar
    56   61   62 1
    57   63   61 ar
    58   64   63 1
    59   65   63 ar
    60   66   65 ar
    61   67   66 1
    62   68   60 ar
    63   69   68 1
    64   70    1 1
    65   71   70 1
    66   72   16 1
    67   73   72 1
    68   74   31 1
    69   75   74 1
    70   76   46 1
    71   77   76 1
    72   78   50 1
    73   79   60 1
    74   80   65 1
    75   81   80 2
    76   82   80 2
    77    6   70 1
    78    7   11 1
    79   21   72 1
    80   22   26 1
    81   36   74 1
    82   37   41 1
    83   49   55 1
    84   50   76 1
    85   51   55 1
    86   66   68 ar
    87   78   79 2
@<TRIPOS>SUBSTRUCTURE
     1 RES1 1

@<TRIPOS>CRYSIN
  10.0903   11.6041   14.4733  83.7190  76.7820  73.6990   2 1

