# MOL2 file generated by ConQuest
# Please check atom types

@<TRIPOS>MOLECULE
ALULEY
    54    57     1
SMALL
NO_CHARGES
****
Generated from CSD

@<TRIPOS>ATOM
      1 N1        -0.2633   -4.3480   -1.2851 N.3       1 RES1    0.0000
      2 O1         0.0012   -4.9125    0.9687 O.3       1 RES1    0.0000
      3 O2        -2.4487   -3.6545    2.4752 O.3       1 RES1    0.0000
      4 O3        -1.0938   -2.1461    1.5057 O.3       1 RES1    0.0000
      5 O4        -0.2913   -3.1181   -2.1093 O.3       1 RES1    0.0000
      6 O5         2.2673   -2.0168   -1.9101 O.2       1 RES1    0.0000
      7 O6         2.4689   -2.2629   -4.1356 O.3       1 RES1    0.0000
      8 O7         3.2348   -5.2789   -3.4439 O.2       1 RES1    0.0000
      9 O8         1.9540   -5.1855   -5.2762 O.3       1 RES1    0.0000
     10 C1        -0.0999   -3.8098    0.0932 C.3       1 RES1    0.0000
     11 H1         0.7449   -3.3053    0.2137 H         1 RES1    0.0000
     12 C2        -1.3655   -3.0939    0.4677 C.3       1 RES1    0.0000
     13 H2        -1.8146   -2.6712   -0.2479 H         1 RES1    0.0000
     14 C3        -2.2195   -4.1675    1.1585 C.3       1 RES1    0.0000
     15 H3        -2.9624   -4.2826    0.7951 H         1 RES1    0.0000
     16 C4        -1.3296   -5.3744    1.2064 C.3       1 RES1    0.0000
     17 H4        -1.3890   -5.8034    2.0742 H         1 RES1    0.0000
     18 H5        -1.5915   -6.0147    0.5258 H         1 RES1    0.0000
     19 C5        -2.1591   -2.2608    2.4615 C.3       1 RES1    0.0000
     20 C6        -1.6089   -1.8923    3.8099 C.3       1 RES1    0.0000
     21 H6        -2.3044   -1.9557    4.4682 H         1 RES1    0.0000
     22 H7        -1.2741   -0.9928    3.7842 H         1 RES1    0.0000
     23 H8        -0.8957   -2.4921    4.0390 H         1 RES1    0.0000
     24 C7        -3.3410   -1.4470    2.0580 C.3       1 RES1    0.0000
     25 H9        -4.0311   -1.5350    2.7198 H         1 RES1    0.0000
     26 H10       -3.6684   -1.7567    1.2107 H         1 RES1    0.0000
     27 H11       -3.0841   -0.5243    1.9836 H         1 RES1    0.0000
     28 C8         0.6326   -3.2569   -3.1592 C.3       1 RES1    0.0000
     29 H12        0.2205   -3.0044   -3.8133 H         1 RES1    0.0000
     30 C9         1.8707   -2.4357   -2.9609 C.2       1 RES1    0.0000
     31 C10        3.7317   -1.5810   -4.1561 C.3       1 RES1    0.0000
     32 H13        4.0521   -1.5288   -5.0599 H         1 RES1    0.0000
     33 H14        4.3651   -2.0634   -3.6201 H         1 RES1    0.0000
     34 H15        3.6227   -0.6947   -3.8030 H         1 RES1    0.0000
     35 C11        0.9058   -4.7582   -3.2439 C.3       1 RES1    0.0000
     36 H16        0.2551   -5.2059   -3.5995 H         1 RES1    0.0000
     37 C12        2.1775   -5.1158   -3.9544 C.2       1 RES1    0.0000
     38 C13        3.1387   -5.3718   -6.1098 C.3       1 RES1    0.0000
     39 H17        2.8783   -5.4057   -7.0332 H         1 RES1    0.0000
     40 H18        3.5734   -6.1941   -5.8696 H         1 RES1    0.0000
     41 H19        3.7437   -4.6387   -5.9747 H         1 RES1    0.0000
     42 C14        0.8697   -5.1426   -1.7596 C.3       1 RES1    0.0000
     43 H20        1.5918   -4.9201   -1.4022 H         1 RES1    0.0000
     44 C15        0.6762   -6.6177   -1.5304 C.ar      1 RES1    0.0000
     45 C16       -0.5442   -7.2154   -1.7946 C.ar      1 RES1    0.0000
     46 H21       -1.2632   -6.7065   -2.0905 H         1 RES1    0.0000
     47 C17       -0.6819   -8.5786   -1.6134 C.ar      1 RES1    0.0000
     48 H22       -1.5054   -8.9785   -1.7775 H         1 RES1    0.0000
     49 C18        0.3568   -9.3435   -1.2013 C.ar      1 RES1    0.0000
     50 H23        0.2394  -10.2596   -1.0858 H         1 RES1    0.0000
     51 C19        1.5755   -8.7813   -0.9533 C.ar      1 RES1    0.0000
     52 H24        2.2921   -9.3100   -0.6857 H         1 RES1    0.0000
     53 C20        1.7334   -7.4081   -1.1064 C.ar      1 RES1    0.0000
     54 H25        2.5565   -7.0167   -0.9225 H         1 RES1    0.0000
@<TRIPOS>BOND
     1    1    5 1
     2    2   10 1
     3    3   14 1
     4    4   12 1
     5    5   28 1
     6    6   30 2
     7    7   30 1
     8    8   37 2
     9    9   37 1
    10   10    1 1
    11   11   10 1
    12   12   10 1
    13   13   12 1
    14   14   12 1
    15   15   14 1
    16   16    2 1
    17   17   16 1
    18   18   16 1
    19   19    3 1
    20   20   19 1
    21   21   20 1
    22   22   20 1
    23   23   20 1
    24   24   19 1
    25   25   24 1
    26   26   24 1
    27   27   24 1
    28   28   29 1
    29   30   28 1
    30   31    7 1
    31   32   31 1
    32   33   31 1
    33   34   31 1
    34   35   28 1
    35   36   35 1
    36   37   35 1
    37   38    9 1
    38   39   38 1
    39   40   38 1
    40   41   38 1
    41   42    1 1
    42   43   42 1
    43   44   42 1
    44   45   44 ar
    45   46   45 1
    46   47   45 ar
    47   48   47 1
    48   49   47 ar
    49   50   49 1
    50   51   49 ar
    51   52   51 1
    52   53   44 ar
    53   54   53 1
    54    4   19 1
    55   14   16 1
    56   35   42 1
    57   51   53 ar
@<TRIPOS>SUBSTRUCTURE
     1 RES1 1

@<TRIPOS>CRYSIN
   6.2470    9.8070    9.3460 106.4800 105.1400  95.0800   1 1

