# MOL2 file generated by ConQuest
# Please check atom types

@<TRIPOS>MOLECULE
ALUNOL
    39    41     1
SMALL
USER_CHARGES
****
Generated from CSD

@<TRIPOS>ATOM
      1 O1         3.5469    4.8409   14.0481 O.3       1 RES1    0.0000
      2 O2         3.9337    8.6770   15.6674 O.3       1 RES1    0.0000
      3 O3         3.0439    7.2013   17.8440 O.3       1 RES1    0.0000
      4 O4         2.5320    4.8385   16.1714 O.3       1 RES1    0.0000
      5 O5         3.5277    3.0327   18.0460 O.3       1 RES1    0.0000
      6 O6         1.6476    3.7638   12.2729 O.2       1 RES1    0.0000
      7 O7         5.1610    2.6870   15.0006 O.2       1 RES1    0.0000
      8 N1         3.3602    3.4970   13.7911 N.am      1 RES1    0.0000
      9 N2         2.6044    7.3129   13.4776 N.2       1 RES1    0.0000
     10 N3         2.2275    8.4444   13.2759 N.1       1 RES1    1.0000
     11 N4         1.8767    9.4391   12.9120 N.2       1 RES1   -1.0000
     12 C1         2.4783    5.3477   14.8846 C.3       1 RES1    0.0000
     13 C2         2.6488    6.8618   14.8828 C.3       1 RES1    0.0000
     14 C3         3.9327    7.2578   15.5853 C.3       1 RES1    0.0000
     15 C4         3.9963    6.6216   16.9789 C.3       1 RES1    0.0000
     16 C5         3.7608    5.1262   16.8713 C.3       1 RES1    0.0000
     17 C6         3.6218    4.4390   18.2075 C.3       1 RES1    0.0000
     18 C7         2.4472    3.0564   12.8192 C.2       1 RES1    0.0000
     19 C8         2.7197    1.6067   12.7032 C.ar      1 RES1    0.0000
     20 C9         2.1161    0.6577   11.9026 C.ar      1 RES1    0.0000
     21 C10        2.6153   -0.6403   11.9940 C.ar      1 RES1    0.0000
     22 C11        3.6746   -0.9611   12.8260 C.ar      1 RES1    0.0000
     23 C12        4.2875    0.0148   13.6136 C.ar      1 RES1    0.0000
     24 C13        3.7775    1.2886   13.5372 C.ar      1 RES1    0.0000
     25 C14        4.2348    2.5141   14.2339 C.2       1 RES1    0.0000
     26 H1         4.7757    9.0041   15.8662 H         1 RES1    0.0000
     27 H2         3.3957    8.1196   18.0929 H         1 RES1    0.0000
     28 H3         2.5694    2.7302   17.9268 H         1 RES1    0.0000
     29 H4         1.6412    5.1262   14.4948 H         1 RES1    0.0000
     30 H5         1.9171    7.2498   15.3477 H         1 RES1    0.0000
     31 H6         4.6772    6.9692   15.0702 H         1 RES1    0.0000
     32 H7         4.8629    6.7679   17.3400 H         1 RES1    0.0000
     33 H8         4.4846    4.7329   16.3961 H         1 RES1    0.0000
     34 H9         2.8375    4.7558   18.6410 H         1 RES1    0.0000
     35 H10        4.3811    4.6403   18.7411 H         1 RES1    0.0000
     36 H11        1.3983    0.8779   11.3197 H         1 RES1    0.0000
     37 H12        2.2172   -1.3262   11.4698 H         1 RES1    0.0000
     38 H13        3.9884   -1.8564   12.8617 H         1 RES1    0.0000
     39 H14        5.0236   -0.1933   14.1763 H         1 RES1    0.0000
@<TRIPOS>BOND
     1    1    8 1
     2    2   14 1
     3    3   15 1
     4    4   12 1
     5    5   17 1
     6    6   18 2
     7    7   25 2
     8    8   18 1
     9    9   10 2
    10   10   11 2
    11   12    1 1
    12   13    9 1
    13   14   13 1
    14   15   14 1
    15   16    4 1
    16   17   16 1
    17   18   19 1
    18   19   20 ar
    19   20   21 ar
    20   21   22 ar
    21   22   23 ar
    22   23   24 ar
    23   24   19 ar
    24   25    8 1
    25   26    2 1
    26   27    3 1
    27   28    5 1
    28   29   12 1
    29   30   13 1
    30   31   14 1
    31   32   15 1
    32   33   16 1
    33   34   17 1
    34   35   17 1
    35   36   20 1
    36   37   21 1
    37   38   22 1
    38   39   23 1
    39   12   13 1
    40   15   16 1
    41   24   25 1
@<TRIPOS>SUBSTRUCTURE
     1 RES1 1

@<TRIPOS>CRYSIN
   4.9270   13.4230   22.7440  90.0000  90.0000  90.0000  19 1

