# MOL2 file generated by ConQuest
# Please check atom types

@<TRIPOS>MOLECULE
AMEVOF
    38    38     1
SMALL
NO_CHARGES
****
Generated from CSD

@<TRIPOS>ATOM
      1 C1         1.7155    6.8734    6.7665 C.ar      1 RES1    0.0000
      2 H1         2.1553    7.2168    5.9994 H         1 RES1    0.0000
      3 C2         2.1338    5.7061    7.3418 C.ar      1 RES1    0.0000
      4 H2         2.8834    5.2441    6.9854 H         1 RES1    0.0000
      5 C3         1.4654    5.1956    8.4445 C.ar      1 RES1    0.0000
      6 C4         0.3759    5.8383    9.0032 C.ar      1 RES1    0.0000
      7 H3        -0.0829    5.4828    9.7557 H         1 RES1    0.0000
      8 C5        -0.0091    7.0119    8.4154 C.ar      1 RES1    0.0000
      9 H4        -0.7545    7.4752    8.7802 H         1 RES1    0.0000
     10 C6         0.6244    7.5518    7.3314 C.ar      1 RES1    0.0000
     11 C7         0.6979    9.4498    5.7492 C.2       1 RES1    0.0000
     12 C8         0.2321   11.2170    4.1712 C.3       1 RES1    0.0000
     13 H5         0.3790   10.7096    3.3332 H         1 RES1    0.0000
     14 H6         1.0977   11.6127    4.4380 H         1 RES1    0.0000
     15 C9        -0.7429   12.3326    3.8940 C.3       1 RES1    0.0000
     16 H7        -0.8717   12.8591    4.7215 H         1 RES1    0.0000
     17 H8        -1.6191   11.9388    3.6501 H         1 RES1    0.0000
     18 C10       -0.2996   13.2682    2.7829 C.3       1 RES1    0.0000
     19 H9        -0.0647   12.7263    1.9887 H         1 RES1    0.0000
     20 H10        0.5155   13.7430    3.0747 H         1 RES1    0.0000
     21 C11       -1.3481   14.3021    2.3743 C.3       1 RES1    0.0000
     22 H11       -2.1614   13.8311    2.0595 H         1 RES1    0.0000
     23 H12       -1.5982   14.8388    3.1664 H         1 RES1    0.0000
     24 C12       -0.8723   15.2038    1.3112 C.3       1 RES1    0.0000
     25 H13       -0.6823   14.6684    0.5003 H         1 RES1    0.0000
     26 H14       -0.0243   15.6206    1.6030 H         1 RES1    0.0000
     27 C13       -1.8686   16.3124    0.9485 C.3       1 RES1    0.0000
     28 H15       -2.6513   15.9180    0.5086 H         1 RES1    0.0000
     29 H16       -1.4402   16.9512    0.3419 H         1 RES1    0.0000
     30 H17       -2.1534   16.7764    1.7635 H         1 RES1    0.0000
     31 N1         1.9095    3.9524    9.0241 N.pl3     1 RES1    0.0000
     32 N2         0.1054    8.7057    6.7206 N.am      1 RES1    0.0000
     33 H18       -0.6857    8.9750    6.9958 H         1 RES1    0.0000
     34 N3        -0.1861   10.3210    5.1739 N.am      1 RES1    0.0000
     35 H19       -1.0266   10.3216    5.4344 H         1 RES1    0.0000
     36 O1         1.2330    3.4539    9.8954 O.2       1 RES1    0.0000
     37 O2         2.9228    3.4067    8.5863 O.2       1 RES1    0.0000
     38 O3         1.8731    9.4032    5.4428 O.2       1 RES1    0.0000
@<TRIPOS>BOND
     1    1    2 1
     2    3    1 ar
     3    4    3 1
     4    5    3 ar
     5    6    5 ar
     6    7    6 1
     7    8    6 ar
     8    9    8 1
     9   10    1 ar
    10   11   32 1
    11   12   13 1
    12   14   12 1
    13   15   12 1
    14   16   15 1
    15   17   15 1
    16   18   15 1
    17   19   18 1
    18   20   18 1
    19   21   18 1
    20   22   21 1
    21   23   21 1
    22   24   21 1
    23   25   24 1
    24   26   24 1
    25   27   24 1
    26   28   27 1
    27   29   27 1
    28   30   27 1
    29   31    5 1
    30   32   10 1
    31   33   32 1
    32   34   11 1
    33   35   34 1
    34   36   31 2
    35   37   31 2
    36   38   11 2
    37    8   10 ar
    38   12   34 1
@<TRIPOS>SUBSTRUCTURE
     1 RES1 1

@<TRIPOS>CRYSIN
   4.9020    6.3820   20.8600  90.0000  92.1300  90.0000   4 1

