# MOL2 file generated by ConQuest
# Please check atom types

@<TRIPOS>MOLECULE
AMNAPH
    22    24     1
SMALL
USER_CHARGES
****
Generated from CSD

@<TRIPOS>ATOM
      1 N1        12.0682    2.7081    2.9243 N.pl3     1 RES1    1.0000
      2 O1        11.4807    3.9291    2.7428 O.2       1 RES1   -1.0000
      3 N2        12.7353    3.4494    5.0641 N.am      1 RES1    0.0000
      4 O2        12.5852    4.8197    4.7918 O.3       1 RES1    0.0000
      5 N3        10.6013    1.9712    1.3933 N.pl3     1 RES1    0.0000
      6 O3        11.6814    3.8005    7.0238 O.2       1 RES1    0.0000
      7 C1        11.6053    1.6992    2.2276 C.2       1 RES1    0.0000
      8 C2        12.1808    0.3141    2.3271 C.3       1 RES1    0.0000
      9 C3        13.5217    0.3437    3.0633 C.3       1 RES1    0.0000
     10 C4        13.4659    1.2180    4.3103 C.3       1 RES1    0.0000
     11 C5        12.4463    0.7214    5.3260 C.3       1 RES1    0.0000
     12 C6        12.4609    1.5669    6.5862 C.3       1 RES1    0.0000
     13 C7        12.2371    3.0251    6.2466 C.2       1 RES1    0.0000
     14 C8        13.1833    2.6733    3.9078 C.3       1 RES1    0.0000
     15 C9        14.4207    3.3533    3.3107 C.ar      1 RES1    0.0000
     16 C10       15.4287    3.7783    4.1625 C.ar      1 RES1    0.0000
     17 C11       16.5655    4.3851    3.6488 C.ar      1 RES1    0.0000
     18 C12       16.7062    4.5543    2.2920 C.ar      1 RES1    0.0000
     19 C13       15.7359    4.1013    1.4431 C.ar      1 RES1    0.0000
     20 C14       14.5786    3.5181    1.9510 C.ar      1 RES1    0.0000
     21 C15       12.3018   -0.3474    0.9557 C.3       1 RES1    0.0000
     22 C16       11.4421    1.0820    7.6078 C.3       1 RES1    0.0000
@<TRIPOS>BOND
     1    1    2 1
     2    3    4 1
     3    5    7 1
     4    6   13 2
     5    7    1 2
     6    8    7 1
     7    9    8 1
     8   10    9 1
     9   11   10 1
    10   12   11 1
    11   13    3 1
    12   14    1 1
    13   15   14 1
    14   16   15 ar
    15   17   16 ar
    16   18   17 ar
    17   19   18 ar
    18   20   15 ar
    19   21    8 1
    20   22   12 1
    21    3   14 1
    22   10   14 1
    23   12   13 1
    24   19   20 ar
@<TRIPOS>SUBSTRUCTURE
     1 RES1 1

@<TRIPOS>CRYSIN
  14.0610    7.3910   14.7010  90.0000  95.3900  90.0000 231 1

