# MOL2 file generated by ConQuest
# Please check atom types

@<TRIPOS>MOLECULE
AMNTPY
    15    15     1
SMALL
NO_CHARGES
****
Generated from CSD

@<TRIPOS>ATOM
      1 C1         0.8484    0.7899    6.6022 C.ar      1 RES1    0.0000
      2 C2        -0.0649   -0.2840    6.5173 C.ar      1 RES1    0.0000
      3 C3        -0.5853   -0.8531    7.6723 C.ar      1 RES1    0.0000
      4 C4        -0.2008   -0.3692    8.8917 C.ar      1 RES1    0.0000
      5 C5         0.6880    0.6845    8.9084 C.ar      1 RES1    0.0000
      6 H1         2.0815    2.1110    5.7569 H         1 RES1    0.0000
      7 H2         1.2642    1.1167    4.7720 H         1 RES1    0.0000
      8 H3        -1.2353   -1.5918    7.5602 H         1 RES1    0.0000
      9 H4        -0.5107   -0.7298    9.7381 H         1 RES1    0.0000
     10 H5         0.9885    1.0531    9.7242 H         1 RES1    0.0000
     11 N1         1.2020    1.2629    7.8316 N.ar      1 RES1    0.0000
     12 N2         1.4186    1.4302    5.5775 N.pl3     1 RES1    0.0000
     13 N3        -0.4686   -0.8491    5.2561 N.pl3     1 RES1    0.0000
     14 O1         0.0388   -0.4103    4.2189 O.2       1 RES1    0.0000
     15 O2        -1.3002   -1.7538    5.2455 O.2       1 RES1    0.0000
@<TRIPOS>BOND
     1    1    2 ar
     2    2    3 ar
     3    3    4 ar
     4    4    5 ar
     5    5   10 1
     6    6   12 1
     7    7   12 1
     8    8    3 1
     9    9    4 1
    10   11    1 ar
    11   12    1 1
    12   13    2 1
    13   14   13 2
    14   15   13 2
    15    5   11 ar
@<TRIPOS>SUBSTRUCTURE
     1 RES1 1

@<TRIPOS>CRYSIN
   8.7430    4.8980   14.4730  90.0000 106.5700  90.0000 231 1

