# MOL2 file generated by ConQuest
# Please check atom types

@<TRIPOS>MOLECULE
AMOLIZ
    42    44     1
SMALL
NO_CHARGES
****
Generated from CSD

@<TRIPOS>ATOM
      1 N1         2.6101   10.1726   11.8060 N.pl3     1 RES1    0.0000
      2 O1         1.1264    4.1979    9.9886 O.3       1 RES1    0.0000
      3 O2         1.2003    1.9577   10.6330 O.3       1 RES1    0.0000
      4 O3         2.8447   10.8031   10.8005 O.2       1 RES1    0.0000
      5 O4         2.6314   10.6710   12.9073 O.2       1 RES1    0.0000
      6 C1         1.8345    2.9642    9.8681 C.3       1 RES1    0.0000
      7 H1         1.7947    2.6912    8.9276 H         1 RES1    0.0000
      8 C2         1.0759    4.6562   11.3503 C.3       1 RES1    0.0000
      9 H2         0.1380    4.6310   11.6343 H         1 RES1    0.0000
     10 C3         1.1778    2.2777   12.0604 C.3       1 RES1    0.0000
     11 C4         3.3004    3.1232   10.2375 C.3       1 RES1    0.0000
     12 C5         3.2919    3.6069   11.7158 C.3       1 RES1    0.0000
     13 H3         3.8108    2.9981   12.2653 H         1 RES1    0.0000
     14 H4         3.6923    4.4883   11.7773 H         1 RES1    0.0000
     15 C6         1.8449    3.6554   12.2149 C.3       1 RES1    0.0000
     16 H5         1.8223    3.9350   13.1537 H         1 RES1    0.0000
     17 C7         1.5485    6.0958   11.4623 C.ar      1 RES1    0.0000
     18 C8         1.6500    6.6944   12.7043 C.ar      1 RES1    0.0000
     19 H6         1.4704    6.1961   13.4687 H         1 RES1    0.0000
     20 C9         2.0146    8.0220   12.8280 C.ar      1 RES1    0.0000
     21 H7         2.0937    8.4162   13.6671 H         1 RES1    0.0000
     22 C10        2.2580    8.7465   11.6894 C.ar      1 RES1    0.0000
     23 C11        2.1594    8.1917   10.4450 C.ar      1 RES1    0.0000
     24 H8         2.3343    8.6981    9.6844 H         1 RES1    0.0000
     25 C12        1.7943    6.8598   10.3388 C.ar      1 RES1    0.0000
     26 H9         1.7139    6.4745    9.4964 H         1 RES1    0.0000
     27 C13        1.9074    1.1750   12.8235 C.3       1 RES1    0.0000
     28 H10        1.5110    0.3266   12.6149 H         1 RES1    0.0000
     29 H11        1.8371    1.3385   13.7675 H         1 RES1    0.0000
     30 H12        2.8325    1.1671   12.5676 H         1 RES1    0.0000
     31 C14       -0.2797    2.2606   12.5030 C.3       1 RES1    0.0000
     32 H13       -0.7927    2.8447   11.9400 H         1 RES1    0.0000
     33 H14       -0.3408    2.5591   13.4133 H         1 RES1    0.0000
     34 H15       -0.6237    1.3670   12.4361 H         1 RES1    0.0000
     35 C15        4.0216    1.7812   10.0375 C.3       1 RES1    0.0000
     36 H16        3.5798    1.1011   10.5521 H         1 RES1    0.0000
     37 H17        4.9328    1.8613   10.3282 H         1 RES1    0.0000
     38 H18        4.0020    1.5437    9.1076 H         1 RES1    0.0000
     39 C16        3.9743    4.1533    9.3257 C.3       1 RES1    0.0000
     40 H19        3.8588    3.8940    8.4084 H         1 RES1    0.0000
     41 H20        4.9120    4.1974    9.5298 H         1 RES1    0.0000
     42 H21        3.5763    5.0147    9.4675 H         1 RES1    0.0000
@<TRIPOS>BOND
     1    1    4 2
     2    2    6 1
     3    3    6 1
     4    5    1 2
     5    6    7 1
     6    8    2 1
     7    9    8 1
     8   10    3 1
     9   11    6 1
    10   12   11 1
    11   13   12 1
    12   14   12 1
    13   15    8 1
    14   16   15 1
    15   17    8 1
    16   18   17 ar
    17   19   18 1
    18   20   18 ar
    19   21   20 1
    20   22    1 1
    21   23   22 ar
    22   24   23 1
    23   25   17 ar
    24   26   25 1
    25   27   10 1
    26   28   27 1
    27   29   27 1
    28   30   27 1
    29   31   10 1
    30   32   31 1
    31   33   31 1
    32   34   31 1
    33   35   11 1
    34   36   35 1
    35   37   35 1
    36   38   35 1
    37   39   11 1
    38   40   39 1
    39   41   39 1
    40   42   39 1
    41   10   15 1
    42   12   15 1
    43   20   22 ar
    44   23   25 ar
@<TRIPOS>SUBSTRUCTURE
     1 RES1 1

@<TRIPOS>CRYSIN
   7.2300   17.8460   11.9590  90.0000 105.2600  90.0000 231 1

