# MOL2 file generated by ConQuest
# Please check atom types

@<TRIPOS>MOLECULE
AMUZOY
    36    37     1
SMALL
NO_CHARGES
****
Generated from CSD

@<TRIPOS>ATOM
      1 O1         3.8219    1.7397   27.9184 O.2       1 RES1    0.0000
      2 O2         7.1663    1.9890   28.1721 O.3       1 RES1    0.0000
      3 H1         8.0481    1.9671   28.1955 H         1 RES1    0.0000
      4 O3         4.8878    7.5744   30.2614 O.3       1 RES1    0.0000
      5 O4         3.9603    2.0300   21.1902 O.3       1 RES1    0.0000
      6 N1         6.8806    1.9547   26.7934 N.2       1 RES1    0.0000
      7 C1         4.7338    3.8947   28.3360 C.ar      1 RES1    0.0000
      8 C2         5.7467    4.8270   28.0616 C.ar      1 RES1    0.0000
      9 H2         6.4126    4.6179   27.4185 H         1 RES1    0.0000
     10 C3         5.7900    6.0417   28.7142 C.ar      1 RES1    0.0000
     11 H3         6.4980    6.6523   28.5450 H         1 RES1    0.0000
     12 C4         4.7729    6.3663   29.6323 C.ar      1 RES1    0.0000
     13 C5         3.7612    5.4603   29.8982 C.ar      1 RES1    0.0000
     14 H4         3.0773    5.6782   30.5204 H         1 RES1    0.0000
     15 C6         3.7491    4.2267   29.2494 C.ar      1 RES1    0.0000
     16 H5         3.0556    3.6058   29.4376 H         1 RES1    0.0000
     17 C7         4.6857    2.5894   27.6594 C.2       1 RES1    0.0000
     18 C8         5.6691    2.2450   26.5618 C.2       1 RES1    0.0000
     19 C9         5.1597    2.1916   25.1706 C.ar      1 RES1    0.0000
     20 C10        3.9332    2.7364   24.8108 C.ar      1 RES1    0.0000
     21 H6         3.3852    3.1298   25.4805 H         1 RES1    0.0000
     22 C11        3.4881    2.7181   23.4867 C.ar      1 RES1    0.0000
     23 H7         2.6550    3.1108   23.2523 H         1 RES1    0.0000
     24 C12        4.2845    2.1141   22.5096 C.ar      1 RES1    0.0000
     25 C13        5.5007    1.5459   22.8635 C.ar      1 RES1    0.0000
     26 H8         6.0330    1.1196   22.2007 H         1 RES1    0.0000
     27 C14        5.9410    1.5949   24.1673 C.ar      1 RES1    0.0000
     28 H9         6.7849    1.2197   24.3914 H         1 RES1    0.0000
     29 C15        3.7840    8.0088   31.0322 C.3       1 RES1    0.0000
     30 H10        3.6559    7.4018   31.7906 H         1 RES1    0.0000
     31 H11        2.9774    8.0110   30.4768 H         1 RES1    0.0000
     32 H12        3.9537    8.9148   31.3630 H         1 RES1    0.0000
     33 C16        2.8421    2.7854   20.7380 C.3       1 RES1    0.0000
     34 H13        2.9822    3.7324   20.9461 H         1 RES1    0.0000
     35 H14        2.0313    2.4680   21.1864 H         1 RES1    0.0000
     36 H15        2.7434    2.6742   19.7696 H         1 RES1    0.0000
@<TRIPOS>BOND
     1    1   17 2
     2    2    3 1
     3    4   12 1
     4    5   24 1
     5    6    2 1
     6    7    8 ar
     7    8    9 1
     8   10    8 ar
     9   11   10 1
    10   12   10 ar
    11   13   12 ar
    12   14   13 1
    13   15    7 ar
    14   16   15 1
    15   17    7 1
    16   18    6 2
    17   19   18 1
    18   20   19 ar
    19   21   20 1
    20   22   20 ar
    21   23   22 1
    22   24   22 ar
    23   25   24 ar
    24   26   25 1
    25   27   19 ar
    26   28   27 1
    27   29    4 1
    28   30   29 1
    29   31   29 1
    30   32   29 1
    31   33    5 1
    32   34   33 1
    33   35   33 1
    34   36   33 1
    35   13   15 ar
    36   17   18 1
    37   25   27 ar
@<TRIPOS>SUBSTRUCTURE
     1 RES1 1

@<TRIPOS>CRYSIN
   6.0150    7.3126   31.2070  90.0000  90.0000  90.0000  19 1

