# MOL2 file generated by ConQuest
# Please check atom types

@<TRIPOS>MOLECULE
AMXZPY10
    21    22     1
SMALL
NO_CHARGES
****
Generated from CSD

@<TRIPOS>ATOM
      1 N1         3.3129    1.2480    1.3506 N.ar      1 RES1    0.0000
      2 N2         4.0706   -0.8926    1.6510 N.3       1 RES1    0.0000
      3 C1         3.6816    0.2763    2.2092 C.ar      1 RES1    0.0000
      4 C2         3.6356    0.4748    3.6117 C.ar      1 RES1    0.0000
      5 C3         3.2287    1.7144    4.0711 C.ar      1 RES1    0.0000
      6 C4         2.8535    2.7098    3.1882 C.ar      1 RES1    0.0000
      7 C5         2.9042    2.4196    1.8385 C.ar      1 RES1    0.0000
      8 O1         4.6330   -2.3613    5.5188 O.3       1 RES1    0.0000
      9 N3         4.4237   -1.7422    4.2602 N.2       1 RES1    0.0000
     10 C6         4.0118   -0.5483    4.5807 C.2       1 RES1    0.0000
     11 N4         3.9323   -0.3262    5.9405 N.2       1 RES1    0.0000
     12 C7         4.3128   -1.4507    6.4367 C.2       1 RES1    0.0000
     13 C8         4.2332   -1.8380    7.8727 C.3       1 RES1    0.0000
     14 H1         4.0919   -1.0134    0.6694 H         1 RES1    0.0000
     15 H2         4.2900   -1.5964    2.2929 H         1 RES1    0.0000
     16 H3         3.2029    1.9157    5.1380 H         1 RES1    0.0000
     17 H4         2.5133    3.6926    3.5397 H         1 RES1    0.0000
     18 H5         2.6080    3.1929    1.1381 H         1 RES1    0.0000
     19 H6         4.3413   -2.8042    7.9832 H         1 RES1    0.0000
     20 H7         3.7277   -1.2910    8.4099 H         1 RES1    0.0000
     21 H8         5.4316   -1.5687    8.2342 H         1 RES1    0.0000
@<TRIPOS>BOND
     1    1    3 ar
     2    2    3 1
     3    3    4 ar
     4    4    5 ar
     5    5    6 ar
     6    6    7 ar
     7    7    1 ar
     8    8    9 1
     9    9   10 2
    10   10    4 1
    11   11   10 1
    12   12    8 1
    13   13   12 1
    14   14    2 1
    15   15    2 1
    16   16    5 1
    17   17    6 1
    18   18    7 1
    19   19   13 1
    20   20   13 1
    21   21   13 1
    22   11   12 2
@<TRIPOS>SUBSTRUCTURE
     1 RES1 1

@<TRIPOS>CRYSIN
   7.2970   13.8820    8.9970  90.0000 111.5500  90.0000  14 1

