# MOL2 file generated by ConQuest
# Please check atom types

@<TRIPOS>MOLECULE
ANAMUZ
    38    40     1
SMALL
NO_CHARGES
****
Generated from CSD

@<TRIPOS>ATOM
      1 O1         5.9594    4.1274    0.9754 O.2       1 RES1    0.0000
      2 N1         5.0044    6.0767    1.6890 N.am      1 RES1    0.0000
      3 C1         5.3206    7.3498    2.3496 C.3       1 RES1    0.0000
      4 H1         4.5525    7.7132    2.8174 H         1 RES1    0.0000
      5 H2         5.6331    8.0228    1.7015 H         1 RES1    0.0000
      6 O2         7.8675    4.3999    5.5049 O.2       1 RES1    0.0000
      7 C2         6.4505    6.8590    3.2573 C.3       1 RES1    0.0000
      8 H3         6.0002    6.3518    4.0421 H         1 RES1    0.0000
      9 O3         6.4754    3.6041    3.9815 O.3       1 RES1    0.0000
     10 C3         7.4616    7.8072    3.8110 C.2       1 RES1    0.0000
     11 H4         7.1592    8.6915    4.0615 H         1 RES1    0.0000
     12 H5         6.1377    3.1442    4.7126 H         1 RES1    0.0000
     13 O4         3.8684    5.9445    0.8992 O.3       1 RES1    0.0000
     14 C4         8.7102    7.3983    4.0065 C.2       1 RES1    0.0000
     15 H6         9.4053    8.0431    4.3750 H         1 RES1    0.0000
     16 C5         9.2380    6.0240    3.6599 C.3       1 RES1    0.0000
     17 H7         9.6941    5.6450    4.4553 H         1 RES1    0.0000
     18 H8         9.9495    6.1132    2.9456 H         1 RES1    0.0000
     19 C6         8.1611    5.0282    3.1878 C.3       1 RES1    0.0000
     20 H9         8.5434    4.3521    2.6403 H         1 RES1    0.0000
     21 C7         7.1494    5.8191    2.3702 C.3       1 RES1    0.0000
     22 H10        7.6135    6.2744    1.6775 H         1 RES1    0.0000
     23 C8         6.0077    5.1809    1.6117 C.2       1 RES1    0.0000
     24 C9         7.5119    4.3161    4.3631 C.2       1 RES1    0.0000
     25 C10        2.8506    5.2574    1.6722 C.3       1 RES1    0.0000
     26 H11        3.2853    4.4130    2.0510 H         1 RES1    0.0000
     27 H12        2.5735    5.8607    2.4245 H         1 RES1    0.0000
     28 C11        1.7052    4.9311    0.7634 C.ar      1 RES1    0.0000
     29 C12        1.9102    4.5146   -0.5492 C.ar      1 RES1    0.0000
     30 H13        2.8105    4.4523   -0.9056 H         1 RES1    0.0000
     31 C13        0.8209    4.2130   -1.3601 C.ar      1 RES1    0.0000
     32 H14        1.0079    3.9448   -2.2779 H         1 RES1    0.0000
     33 C14       -0.4686    4.2949   -0.8589 C.ar      1 RES1    0.0000
     34 H15       -1.2162    4.1021   -1.4258 H         1 RES1    0.0000
     35 C15       -0.6758    4.6891    0.4536 C.ar      1 RES1    0.0000
     36 H16       -1.5664    4.7480    0.7986 H         1 RES1    0.0000
     37 C16        0.4047    5.0170    1.2528 C.ar      1 RES1    0.0000
     38 H17        0.2588    5.3088    2.1709 H         1 RES1    0.0000
@<TRIPOS>BOND
     1    1   23 2
     2    2    3 1
     3    3    4 1
     4    5    3 1
     5    6   24 2
     6    7    3 1
     7    8    7 1
     8    9   12 1
     9   10    7 1
    10   11   10 1
    11   13    2 1
    12   14   10 2
    13   15   14 1
    14   16   14 1
    15   17   16 1
    16   18   16 1
    17   19   16 1
    18   20   19 1
    19   21    7 1
    20   22   21 1
    21   23    2 1
    22   24    9 1
    23   25   13 1
    24   26   25 1
    25   27   25 1
    26   28   25 1
    27   29   28 ar
    28   30   29 1
    29   31   29 ar
    30   32   31 1
    31   33   31 ar
    32   34   33 1
    33   35   33 ar
    34   36   35 1
    35   37   28 ar
    36   38   37 1
    37   19   21 1
    38   19   24 1
    39   21   23 1
    40   35   37 ar
@<TRIPOS>SUBSTRUCTURE
     1 RES1 1

@<TRIPOS>CRYSIN
  11.8567   12.6883    9.4310  90.0000 102.0770  90.0000  14 1

