# MOL2 file generated by ConQuest
# Please check atom types

@<TRIPOS>MOLECULE
ANEVAS
    64    68     1
SMALL
NO_CHARGES
****
Generated from CSD

@<TRIPOS>ATOM
      1 O1        -8.0824   -5.6127   -3.1285 O.2       1 RES1    0.0000
      2 O2        -7.1099   -7.7811   -7.1657 O.3       1 RES1    0.0000
      3 C1        -7.2624   -6.6440   -6.4941 C.2       1 RES1    0.0000
      4 N1        -7.7685   -3.5406   -4.0721 N.am      1 RES1    0.0000
      5 C2        -6.3349   -6.5221   -5.3432 C.2       1 RES1    0.0000
      6 O3        -3.3091   -5.6712   -5.2667 O.2       1 RES1    0.0000
      7 O4        -8.0716   -5.8025   -6.7600 O.2       1 RES1    0.0000
      8 C3        -6.9484   -2.9995   -5.0711 C.ar      1 RES1    0.0000
      9 C4        -6.1843   -5.1952   -4.6543 C.3       1 RES1    0.0000
     10 C5        -6.0156   -3.9477   -5.4957 C.ar      1 RES1    0.0000
     11 O5        -5.5645   -3.4660    0.8539 O.3       1 RES1    0.0000
     12 C6        -5.4174   -7.6526   -2.2004 C.ar      1 RES1    0.0000
     13 C7        -5.6908   -7.5109   -4.7217 C.2       1 RES1    0.0000
     14 H1        -5.7125   -8.3949   -5.0105 H         1 RES1    0.0000
     15 N2        -3.6862   -5.0366   -4.3092 N.pl3     1 RES1    0.0000
     16 C8        -7.0386   -1.7491   -5.6660 C.ar      1 RES1    0.0000
     17 H2        -7.6395   -1.1097   -5.3571 H         1 RES1    0.0000
     18 C9        -5.0142   -5.4833   -3.6290 C.3       1 RES1    0.0000
     19 C10       -7.4708   -4.8534   -3.8481 C.2       1 RES1    0.0000
     20 C11       -5.3678   -3.9675   -1.5038 C.1       1 RES1    0.0000
     21 C12       -5.1495   -4.7117   -2.4028 C.1       1 RES1    0.0000
     22 C13       -5.1910   -3.6709   -6.5737 C.ar      1 RES1    0.0000
     23 H3        -4.5839   -4.3047   -6.8797 H         1 RES1    0.0000
     24 C14       -5.2893   -2.4196   -7.1917 C.ar      1 RES1    0.0000
     25 H4        -4.7381   -2.2165   -7.9134 H         1 RES1    0.0000
     26 C15       -4.5938   -7.5686   -1.0838 C.ar      1 RES1    0.0000
     27 H5        -3.7800   -7.1218   -1.1420 H         1 RES1    0.0000
     28 C16       -6.1942   -1.4875   -6.7411 C.ar      1 RES1    0.0000
     29 H6        -6.2438   -0.6620   -7.1645 H         1 RES1    0.0000
     30 C17       -4.9294   -7.0567   -3.5154 C.3       1 RES1    0.0000
     31 H7        -3.9929   -7.3173   -3.6333 H         1 RES1    0.0000
     32 O6        -3.1260   -4.0525   -3.8769 O.2       1 RES1    0.0000
     33 C18       -6.1662   -8.8275    0.2157 C.ar      1 RES1    0.0000
     34 H8        -6.4116   -9.2288    1.0182 H         1 RES1    0.0000
     35 C19       -6.6236   -8.3250   -2.0918 C.ar      1 RES1    0.0000
     36 H9        -7.1848   -8.3845   -2.8317 H         1 RES1    0.0000
     37 C20       -6.5343   -4.7230    2.6043 C.ar      1 RES1    0.0000
     38 C21       -5.7828   -5.7166    3.1505 C.ar      1 RES1    0.0000
     39 H10       -5.2632   -6.2360    2.5811 H         1 RES1    0.0000
     40 C22       -7.0034   -8.9115   -0.8916 C.ar      1 RES1    0.0000
     41 H11       -7.8154   -9.3601   -0.8294 H         1 RES1    0.0000
     42 C23       -7.9976   -7.9728   -8.2925 C.3       1 RES1    0.0000
     43 H12       -7.8334   -7.2918   -8.9471 H         1 RES1    0.0000
     44 H13       -8.9088   -7.9180   -7.9939 H         1 RES1    0.0000
     45 H14       -7.8397   -8.8360   -8.6809 H         1 RES1    0.0000
     46 C24       -8.8619   -2.8465   -3.4216 C.3       1 RES1    0.0000
     47 H15       -8.5209   -2.0862   -2.9462 H         1 RES1    0.0000
     48 H16       -9.2967   -3.4415   -2.8039 H         1 RES1    0.0000
     49 H17       -9.4934   -2.5537   -4.0820 H         1 RES1    0.0000
     50 C25       -7.2948   -3.9609    3.4433 C.ar      1 RES1    0.0000
     51 H18       -7.8127   -3.2771    3.0824 H         1 RES1    0.0000
     52 C26       -5.6664   -2.9806   -0.4593 C.3       1 RES1    0.0000
     53 H19       -5.0584   -2.2307   -0.5602 H         1 RES1    0.0000
     54 H20       -6.5668   -2.6472   -0.5973 H         1 RES1    0.0000
     55 C27       -4.9817   -8.1513    0.1188 C.ar      1 RES1    0.0000
     56 H21       -4.4305   -8.0804    0.8634 H         1 RES1    0.0000
     57 C28       -6.4982   -4.4501    1.1169 C.3       1 RES1    0.0000
     58 H22       -7.0233   -4.8770    0.4797 H         1 RES1    0.0000
     59 C29       -7.3210   -4.1620    4.7629 C.ar      1 RES1    0.0000
     60 H23       -7.8524   -3.6266    5.3045 H         1 RES1    0.0000
     61 C30       -5.7476   -5.9961    4.4887 C.ar      1 RES1    0.0000
     62 H24       -5.2235   -6.6884    4.8217 H         1 RES1    0.0000
     63 C31       -6.5253   -5.2094    5.3395 C.ar      1 RES1    0.0000
     64 H25       -6.5271   -5.3586    6.2577 H         1 RES1    0.0000
@<TRIPOS>BOND
     1    1   19 2
     2    2    3 1
     3    3    5 1
     4    4    8 1
     5    5    9 1
     6    6   15 2
     7    7    3 2
     8    8   10 ar
     9    9   10 1
    10   10   22 ar
    11   11   52 1
    12   12   26 ar
    13   13    5 2
    14   14   13 1
    15   15   18 1
    16   16    8 ar
    17   17   16 1
    18   18    9 1
    19   19    4 1
    20   20   21 3
    21   21   18 1
    22   22   23 1
    23   24   22 ar
    24   25   24 1
    25   26   27 1
    26   28   16 ar
    27   29   28 1
    28   30   12 1
    29   31   30 1
    30   32   15 2
    31   33   34 1
    32   35   12 ar
    33   36   35 1
    34   37   38 ar
    35   38   39 1
    36   40   33 ar
    37   41   40 1
    38   42    2 1
    39   43   42 1
    40   44   42 1
    41   45   42 1
    42   46    4 1
    43   47   46 1
    44   48   46 1
    45   49   46 1
    46   50   37 ar
    47   51   50 1
    48   52   20 1
    49   53   52 1
    50   54   52 1
    51   55   26 ar
    52   56   55 1
    53   57   11 1
    54   58   57 1
    55   59   50 ar
    56   60   59 1
    57   61   38 ar
    58   62   61 1
    59   63   59 ar
    60   64   63 1
    61    9   19 1
    62   13   30 1
    63   18   30 1
    64   24   28 ar
    65   33   55 ar
    66   35   40 ar
    67   37   57 1
    68   61   63 ar
@<TRIPOS>SUBSTRUCTURE
     1 RES1 1

@<TRIPOS>CRYSIN
   9.0216    9.4442   30.9480  90.0000  90.0000  90.0000  19 1

