# MOL2 file generated by ConQuest
# Please check atom types

@<TRIPOS>MOLECULE
ANOQUR
    34    35     1
SMALL
NO_CHARGES
****
Generated from CSD

@<TRIPOS>ATOM
      1 O1         1.1367    2.9061    9.5002 O.2       1 RES1    0.0000
      2 N1         6.6743    2.8015    7.1064 N.1       1 RES1    0.0000
      3 C1         2.6813    4.5771    5.0228 C.2       1 RES1    0.0000
      4 O2         1.7462    4.3200    7.9982 O.2       1 RES1    0.0000
      5 N2         1.6437    3.1831    8.4250 N.pl3     1 RES1    0.0000
      6 C2         2.2910    5.8960    5.5614 C.2       1 RES1    0.0000
      7 O3         3.0875    6.6163    6.1194 O.2       1 RES1    0.0000
      8 H1         0.3870    6.0503    6.2244 H         1 RES1    0.0000
      9 H2         0.8163    7.2585    5.3294 H         1 RES1    0.0000
     10 C3         0.8564    6.2926    5.4102 C.3       1 RES1    0.0000
     11 H3         0.3699    6.2346    3.5039 H         1 RES1    0.0000
     12 H4        -0.7980    5.8184    4.4538 H         1 RES1    0.0000
     13 C4         0.1536    5.7169    4.2939 C.3       1 RES1    0.0000
     14 H5         0.2363    4.1433    3.0629 H         1 RES1    0.0000
     15 H6        -0.1942    3.7602    4.5201 H         1 RES1    0.0000
     16 C5         0.4174    4.3068    4.0020 C.3       1 RES1    0.0000
     17 H7         2.0983    3.0645    3.9595 H         1 RES1    0.0000
     18 C6         1.8144    3.8803    4.3026 C.2       1 RES1    0.0000
     19 H8         4.6821    4.8286    5.2906 H         1 RES1    0.0000
     20 H9         4.3275    3.4393    4.6590 H         1 RES1    0.0000
     21 C7         4.0633    4.0832    5.3339 C.3       1 RES1    0.0000
     22 H10        3.8865    4.0667    7.4101 H         1 RES1    0.0000
     23 C8         4.1700    3.4198    6.7315 C.3       1 RES1    0.0000
     24 C9         3.3022    2.1757    6.8471 C.ar      1 RES1    0.0000
     25 C10        2.1426    2.0675    7.6109 C.ar      1 RES1    0.0000
     26 H11        0.6451    0.8614    8.2049 H         1 RES1    0.0000
     27 C11        1.4122    0.9007    7.6806 C.ar      1 RES1    0.0000
     28 H12        1.3191   -0.9856    7.0014 H         1 RES1    0.0000
     29 C12        1.8195   -0.2029    6.9744 C.ar      1 RES1    0.0000
     30 H13        3.2624   -0.8955    5.7656 H         1 RES1    0.0000
     31 C13        2.9702   -0.1439    6.2286 C.ar      1 RES1    0.0000
     32 H14        4.4669    1.0477    5.6509 H         1 RES1    0.0000
     33 C14        3.6931    1.0249    6.1653 C.ar      1 RES1    0.0000
     34 C15        5.5805    3.0707    6.9688 C.1       1 RES1    0.0000
@<TRIPOS>BOND
     1    1    5 2
     2    2   34 3
     3    3    6 1
     4    4    5 2
     5    5   25 1
     6    6    7 2
     7    8   10 1
     8    9   10 1
     9   10    6 1
    10   11   13 1
    11   12   13 1
    12   13   10 1
    13   14   16 1
    14   15   16 1
    15   16   13 1
    16   17   18 1
    17   18    3 2
    18   19   21 1
    19   20   21 1
    20   21    3 1
    21   22   23 1
    22   23   21 1
    23   24   23 1
    24   25   24 ar
    25   26   27 1
    26   27   25 ar
    27   28   29 1
    28   29   27 ar
    29   30   31 1
    30   31   29 ar
    31   32   33 1
    32   33   24 ar
    33   34   23 1
    34   16   18 1
    35   31   33 ar
@<TRIPOS>SUBSTRUCTURE
     1 RES1 1

@<TRIPOS>CRYSIN
   7.9981   10.3530   16.1740  90.0000  92.8040  90.0000  14 1

