# MOL2 file generated by ConQuest
# Please check atom types

@<TRIPOS>MOLECULE
ANORIF
    31    32     1
SMALL
NO_CHARGES
****
Generated from CSD

@<TRIPOS>ATOM
      1 O1         6.3682    6.8640    4.6899 O.3       1 RES1    0.0000
      2 N1         5.9111   10.1538    4.4889 N.pl3     1 RES1    0.0000
      3 O2         7.7526    5.7262    6.5761 O.3       1 RES1    0.0000
      4 C1         6.7386    6.5239    6.9948 C.ar      1 RES1    0.0000
      5 C2         4.8903    7.9476    6.2935 C.ar      1 RES1    0.0000
      6 O3         5.9421    6.8463    2.5529 O.2       1 RES1    0.0000
      7 C3         5.5318    7.0929    3.6397 C.2       1 RES1    0.0000
      8 C4         4.0989    8.5405    5.1629 C.3       1 RES1    0.0000
      9 H1         3.1661    8.5443    5.4634 H         1 RES1    0.0000
     10 C5         5.9765    7.1169    6.0040 C.ar      1 RES1    0.0000
     11 C6         6.4280    6.7831    8.3327 C.ar      1 RES1    0.0000
     12 H2         6.9325    6.4051    9.0169 H         1 RES1    0.0000
     13 O4         6.1647   10.0615    3.3140 O.2       1 RES1    0.0000
     14 O5         6.7307   10.2992    5.3463 O.2       1 RES1    0.0000
     15 C7         5.3559    7.6113    8.6247 C.ar      1 RES1    0.0000
     16 H3         5.1445    7.7820    9.5126 H         1 RES1    0.0000
     17 C8         4.1435    7.5999    3.9439 C.3       1 RES1    0.0000
     18 H4         3.6243    6.8097    4.2020 H         1 RES1    0.0000
     19 C9         4.6028    8.1815    7.6417 C.ar      1 RES1    0.0000
     20 H5         3.8893    8.7315    7.8709 H         1 RES1    0.0000
     21 C10        8.4994    5.0207    7.5602 C.3       1 RES1    0.0000
     22 H6         9.1696    4.4846    7.1306 H         1 RES1    0.0000
     23 H7         7.9104    4.4530    8.0644 H         1 RES1    0.0000
     24 H8         8.9222    5.6478    8.1510 H         1 RES1    0.0000
     25 C11        4.4591   10.0160    4.8879 C.3       1 RES1    0.0000
     26 H9         3.8949   10.3587    4.1782 H         1 RES1    0.0000
     27 H10        4.2917   10.5432    5.6858 H         1 RES1    0.0000
     28 C12        3.4812    8.1322    2.6893 C.3       1 RES1    0.0000
     29 H11        4.0510    8.7871    2.2801 H         1 RES1    0.0000
     30 H12        2.6413    8.5368    2.9185 H         1 RES1    0.0000
     31 H13        3.3318    7.4102    2.0747 H         1 RES1    0.0000
@<TRIPOS>BOND
     1    1    7 1
     2    2   13 2
     3    3    4 1
     4    4   10 ar
     5    5    8 1
     6    6    7 2
     7    7   17 1
     8    8    9 1
     9   10    1 1
    10   11    4 ar
    11   12   11 1
    12   14    2 2
    13   15   11 ar
    14   16   15 1
    15   17    8 1
    16   18   17 1
    17   19    5 ar
    18   20   19 1
    19   21    3 1
    20   22   21 1
    21   23   21 1
    22   24   21 1
    23   25    2 1
    24   26   25 1
    25   27   25 1
    26   28   17 1
    27   29   28 1
    28   30   28 1
    29   31   28 1
    30    5   10 ar
    31    8   25 1
    32   15   19 ar
@<TRIPOS>SUBSTRUCTURE
     1 RES1 1

@<TRIPOS>CRYSIN
   5.6366   12.6433   16.9777  90.0000  90.0000  90.0000  19 1

