# MOL2 file generated by ConQuest
# Please check atom types

@<TRIPOS>MOLECULE
ANOSAY
    49    53     1
SMALL
NO_CHARGES
****
Generated from CSD

@<TRIPOS>ATOM
      1 C1         2.5580    9.3174    2.7327 C.3       1 RES1    0.0000
      2 H1         1.6754    9.7864    2.7597 H         1 RES1    0.0000
      3 C2         2.2783    7.8891    3.1078 C.ar      1 RES1    0.0000
      4 C3         1.1871    7.6151    3.9327 C.ar      1 RES1    0.0000
      5 H2         0.6743    8.3415    4.2688 H         1 RES1    0.0000
      6 C4         0.8228    6.3283    4.2800 C.ar      1 RES1    0.0000
      7 H3         0.0759    6.1809    4.8484 H         1 RES1    0.0000
      8 C5         1.5494    5.2577    3.7976 C.ar      1 RES1    0.0000
      9 H4         1.2952    4.3686    4.0139 H         1 RES1    0.0000
     10 C6         2.6491    5.4938    2.9987 C.ar      1 RES1    0.0000
     11 C7         3.5855    4.5152    2.3683 C.3       1 RES1    0.0000
     12 H5         3.1317    3.9957    1.6586 H         1 RES1    0.0000
     13 H6         3.9508    3.8892    3.0426 H         1 RES1    0.0000
     14 C8         4.6881    5.3918    1.7840 C.3       1 RES1    0.0000
     15 H7         5.5215    5.3028    2.3123 H         1 RES1    0.0000
     16 H8         4.8766    5.1361    0.8461 H         1 RES1    0.0000
     17 C9         4.8954    7.8090    1.2633 C.ar      1 RES1    0.0000
     18 C10        6.1990    7.5551    0.8127 C.ar      1 RES1    0.0000
     19 H9         6.5975    6.7145    1.0072 H         1 RES1    0.0000
     20 C11        6.9214    8.4868    0.0962 C.ar      1 RES1    0.0000
     21 H10        7.7940    8.2736   -0.2121 H         1 RES1    0.0000
     22 C12        6.3775    9.7360   -0.1757 C.ar      1 RES1    0.0000
     23 C13        5.1146   10.0267    0.3220 C.ar      1 RES1    0.0000
     24 H11        4.7562   10.8943    0.1762 H         1 RES1    0.0000
     25 C14        4.3555    9.1036    1.0229 C.ar      1 RES1    0.0000
     26 C15        3.0189    6.8017    2.6499 C.ar      1 RES1    0.0000
     27 C16        3.4506   10.0465    3.7286 C.ar      1 RES1    0.0000
     28 C17        4.5444    9.4458    4.3441 C.ar      1 RES1    0.0000
     29 H12        4.7531    8.5406    4.1448 H         1 RES1    0.0000
     30 C18        5.3348   10.1445    5.2434 C.ar      1 RES1    0.0000
     31 H13        6.0849    9.7180    5.6423 H         1 RES1    0.0000
     32 C19        5.0430   11.4541    5.5645 C.ar      1 RES1    0.0000
     33 H14        5.5736   11.9385    6.1871 H         1 RES1    0.0000
     34 C20        3.9583   12.0335    4.9530 C.ar      1 RES1    0.0000
     35 C21        3.1689   11.3703    4.0351 C.ar      1 RES1    0.0000
     36 H15        2.4404   11.8152    3.6175 H         1 RES1    0.0000
     37 C22        7.0802   10.7579   -0.9837 C.2       1 RES1    0.0000
     38 C23        8.9984   11.2309   -2.2739 C.3       1 RES1    0.0000
     39 H16        8.5594   11.3277   -3.1446 H         1 RES1    0.0000
     40 H17        9.9060   10.8837   -2.4027 H         1 RES1    0.0000
     41 H18        9.0430   12.1050   -1.8313 H         1 RES1    0.0000
     42 N1         3.0328    9.4309    1.3467 N.pl3     1 RES1    0.0000
     43 H19        2.4832    9.7064    0.7163 H         1 RES1    0.0000
     44 N2         4.1745    6.7785    1.8522 N.pl3     1 RES1    0.0000
     45 N3         3.5963   13.4054    5.3158 N.pl3     1 RES1    0.0000
     46 O1         3.9283   13.8197    6.4103 O.2       1 RES1    0.0000
     47 O2         2.9961   14.0660    4.5041 O.2       1 RES1    0.0000
     48 O3         6.6526   11.8671   -1.1985 O.2       1 RES1    0.0000
     49 O4         8.2478   10.3176   -1.4565 O.3       1 RES1    0.0000
@<TRIPOS>BOND
     1    1    2 1
     2    3    1 1
     3    4    3 ar
     4    5    4 1
     5    6    4 ar
     6    7    6 1
     7    8    6 ar
     8    9    8 1
     9   10    8 ar
    10   11   10 1
    11   12   11 1
    12   13   11 1
    13   14   11 1
    14   15   14 1
    15   16   14 1
    16   17   18 ar
    17   18   19 1
    18   20   18 ar
    19   21   20 1
    20   22   20 ar
    21   23   22 ar
    22   24   23 1
    23   25   17 ar
    24   26    3 ar
    25   27    1 1
    26   28   27 ar
    27   29   28 1
    28   30   28 ar
    29   31   30 1
    30   32   30 ar
    31   33   32 1
    32   34   32 ar
    33   35   27 ar
    34   36   35 1
    35   37   22 1
    36   38   39 1
    37   40   38 1
    38   41   38 1
    39   42    1 1
    40   43   42 1
    41   44   14 1
    42   45   34 1
    43   46   45 2
    44   47   45 2
    45   48   37 2
    46   49   37 1
    47   10   26 ar
    48   17   44 1
    49   23   25 ar
    50   25   42 1
    51   26   44 1
    52   34   35 ar
    53   38   49 1
@<TRIPOS>SUBSTRUCTURE
     1 RES1 1

@<TRIPOS>CRYSIN
   6.7967   12.1325   12.4682  69.5460  81.7740  85.6650   2 1

