# MOL2 file generated by ConQuest
# Please check atom types

@<TRIPOS>MOLECULE
ANOXUX
    38    39     1
SMALL
NO_CHARGES
****
Generated from CSD

@<TRIPOS>ATOM
      1 O1         0.0961    1.3830    3.3276 O.2       1 RES1    0.0000
      2 O2         2.1845    1.9788    3.3799 O.2       1 RES1    0.0000
      3 O3         0.9914    2.7264    5.9922 O.2       1 RES1    0.0000
      4 O4         4.1084    1.4120    7.1118 O.3       1 RES1    0.0000
      5 H1         4.8147    1.8710    6.8551 H         1 RES1    0.0000
      6 N1         2.3585    3.3152    7.7060 N.am      1 RES1    0.0000
      7 H2         3.1308    3.1807    8.0266 H         1 RES1    0.0000
      8 N2         1.2487    1.2707    3.7470 N.pl3     1 RES1    0.0000
      9 C1         1.4498    4.2925    8.3140 C.3       1 RES1    0.0000
     10 H3         0.5583    3.9904    8.0967 H         1 RES1    0.0000
     11 C2         1.6235    5.6953    7.7232 C.3       1 RES1    0.0000
     12 H4         1.4458    5.6428    6.7025 H         1 RES1    0.0000
     13 H5         2.5340    5.9616    7.8703 H         1 RES1    0.0000
     14 C3         0.6568    6.6677    8.4063 C.3       1 RES1    0.0000
     15 H6         0.7731    7.5571    7.9712 H         1 RES1    0.0000
     16 H7        -0.2746    6.3784    8.1434 H         1 RES1    0.0000
     17 C4         0.8716    6.6884    9.9159 C.3       1 RES1    0.0000
     18 H8         0.2178    7.3521   10.2993 H         1 RES1    0.0000
     19 H9         1.8471    6.9695   10.0507 H         1 RES1    0.0000
     20 C5         0.7042    5.2890   10.5013 C.3       1 RES1    0.0000
     21 H10       -0.2492    4.9766   10.3165 H         1 RES1    0.0000
     22 H11        0.9423    5.3865   11.5298 H         1 RES1    0.0000
     23 C6         1.6484    4.2960    9.8266 C.3       1 RES1    0.0000
     24 H12        2.5867    4.5951   10.0003 H         1 RES1    0.0000
     25 H13        1.5380    3.3481   10.1898 H         1 RES1    0.0000
     26 C7         2.4701    0.3150    5.7163 C.ar      1 RES1    0.0000
     27 C8         1.5358    0.1708    4.6838 C.ar      1 RES1    0.0000
     28 C9         0.8733   -1.0303    4.4289 C.ar      1 RES1    0.0000
     29 H14        0.1722   -1.0500    3.6657 H         1 RES1    0.0000
     30 C10        1.1728   -2.1439    5.2010 C.ar      1 RES1    0.0000
     31 H15        0.7680   -3.0474    4.9749 H         1 RES1    0.0000
     32 C11        2.1364   -2.0474    6.2001 C.ar      1 RES1    0.0000
     33 H16        2.4104   -2.8481    6.7530 H         1 RES1    0.0000
     34 C12        2.7572   -0.8331    6.4593 C.ar      1 RES1    0.0000
     35 H17        3.4297   -0.7619    7.1714 H         1 RES1    0.0000
     36 C13        3.1265    1.6291    6.1210 C.3       1 RES1    0.0000
     37 H18        3.5128    2.0145    5.3699 H         1 RES1    0.0000
     38 C14        2.0548    2.6171    6.6174 C.2       1 RES1    0.0000
@<TRIPOS>BOND
     1    1    8 2
     2    2    8 2
     3    3   38 2
     4    4    5 1
     5    6    7 1
     6    8   27 1
     7    9    6 1
     8   10    9 1
     9   11    9 1
    10   12   11 1
    11   13   11 1
    12   14   11 1
    13   15   14 1
    14   16   14 1
    15   17   14 1
    16   18   17 1
    17   19   17 1
    18   20   17 1
    19   21   20 1
    20   22   20 1
    21   23    9 1
    22   24   23 1
    23   25   23 1
    24   26   27 ar
    25   27   28 ar
    26   28   29 1
    27   30   28 ar
    28   31   30 1
    29   32   30 ar
    30   33   32 1
    31   34   26 ar
    32   35   34 1
    33   36    4 1
    34   37   36 1
    35   38    6 1
    36   20   23 1
    37   26   36 1
    38   32   34 ar
    39   36   38 1
@<TRIPOS>SUBSTRUCTURE
     1 RES1 1

@<TRIPOS>CRYSIN
  10.1320   11.3880   12.3050  90.0000  90.0000  90.0000  19 1

