# MOL2 file generated by ConQuest
# Please check atom types

@<TRIPOS>MOLECULE
ANTZCO
    34    34     1
SMALL
NO_CHARGES
****
Generated from CSD

@<TRIPOS>ATOM
      1 C1         0.9260   -1.4326    0.3036 C.3       1 RES1    0.0000
      2 C2         0.7375    0.8720    1.4457 C.3       1 RES1    0.0000
      3 C3        -1.4048   -1.9469    0.6857 C.2       1 RES1    0.0000
      4 C4        -2.8202   -1.9495    0.2054 C.3       1 RES1    0.0000
      5 H1         1.4885   -1.2325   -0.4851 H         1 RES1    0.0000
      6 H2         1.1313   -2.3193    0.6109 H         1 RES1    0.0000
      7 H3         1.4113    1.4181    1.8985 H         1 RES1    0.0000
      8 H4        -0.1033    0.9145    1.9943 H         1 RES1    0.0000
      9 H5        -3.3689   -2.1735    0.9642 H         1 RES1    0.0000
     10 H6        -3.1350   -1.1000   -0.1437 H         1 RES1    0.0000
     11 H7        -2.9536   -2.6108   -0.4072 H         1 RES1    0.0000
     12 N1         1.2271   -0.5248    1.4092 N.3       1 RES1    0.0000
     13 N2        -0.4592   -1.3372   -0.1132 N.am      1 RES1    0.0000
     14 N3         1.5410   -1.0523    2.6142 N.pl3     1 RES1    0.0000
     15 O1         1.9428   -2.2040    2.6722 O.2       1 RES1    0.0000
     16 O2         1.4501   -0.2955    3.5826 O.2       1 RES1    0.0000
     17 O3        -1.0671   -2.4319    1.7464 O.2       1 RES1    0.0000
     18 N2B        0.4592    1.3372    0.1132 N.am      1 RES1    0.0000
     19 C2B       -0.7375   -0.8720   -1.4457 C.3       1 RES1    0.0000
     20 C1B       -0.9260    1.4326   -0.3036 C.3       1 RES1    0.0000
     21 C3B        1.4048    1.9469   -0.6857 C.2       1 RES1    0.0000
     22 H3B       -1.4113   -1.4181   -1.8985 H         1 RES1    0.0000
     23 H4B        0.1033   -0.9145   -1.9943 H         1 RES1    0.0000
     24 N1B       -1.2271    0.5248   -1.4092 N.3       1 RES1    0.0000
     25 H1B       -1.4885    1.2325    0.4851 H         1 RES1    0.0000
     26 H2B       -1.1313    2.3193   -0.6109 H         1 RES1    0.0000
     27 C4B        2.8202    1.9495   -0.2054 C.3       1 RES1    0.0000
     28 O3B        1.0671    2.4319   -1.7464 O.2       1 RES1    0.0000
     29 N3B       -1.5410    1.0523   -2.6142 N.pl3     1 RES1    0.0000
     30 H5B        3.3689    2.1735   -0.9642 H         1 RES1    0.0000
     31 H6B        3.1350    1.1000    0.1437 H         1 RES1    0.0000
     32 H7B        2.9536    2.6108    0.4072 H         1 RES1    0.0000
     33 O1B       -1.9428    2.2040   -2.6722 O.2       1 RES1    0.0000
     34 O2B       -1.4501    0.2955   -3.5826 O.2       1 RES1    0.0000
@<TRIPOS>BOND
     1    1    5 1
     2    2    7 1
     3    3    4 1
     4    4    9 1
     5    6    1 1
     6    8    2 1
     7   10    4 1
     8   11    4 1
     9   12    1 1
    10   13    1 1
    11   14   12 1
    12   15   14 2
    13   16   14 2
    14   17    3 2
    15   18    2 1
    16   19   13 1
    17   20   18 1
    18   21   18 1
    19   22   19 1
    20   23   19 1
    21   24   19 1
    22   25   20 1
    23   26   20 1
    24   27   21 1
    25   28   21 2
    26   29   24 1
    27   30   27 1
    28   31   27 1
    29   32   27 1
    30   33   29 2
    31   34   29 2
    32    2   12 1
    33    3   13 1
    34   20   24 1
@<TRIPOS>SUBSTRUCTURE
     1 RES1 1

@<TRIPOS>CRYSIN
   7.4220   13.2530    6.1560  90.0000 103.3800  90.0000  14 1

