# MOL2 file generated by ConQuest
# Please check atom types

@<TRIPOS>MOLECULE
ANUCUJ
    43    44     1
SMALL
NO_CHARGES
****
Generated from CSD

@<TRIPOS>ATOM
      1 C1         7.2371    2.6049   -0.3054 C.ar      1 RES1    0.0000
      2 C2        10.6859    1.2425    0.9160 C.ar      1 RES1    0.0000
      3 C3         8.3785    2.3034    0.5919 C.2       1 RES1    0.0000
      4 C4         5.1265    3.2474   -1.9780 C.ar      1 RES1    0.0000
      5 C5         9.4754    1.6013    0.2144 C.2       1 RES1    0.0000
      6 H1         9.4430    1.2928   -0.6623 H         1 RES1    0.0000
      7 C6         7.2666    2.2902   -1.6688 C.ar      1 RES1    0.0000
      8 H2         8.0080    1.8495   -2.0170 H         1 RES1    0.0000
      9 C7        11.7396    0.7106    0.1608 C.ar      1 RES1    0.0000
     10 H3        11.6083    0.5745   -0.7501 H         1 RES1    0.0000
     11 C8         6.2306    2.6150   -2.4997 C.ar      1 RES1    0.0000
     12 H4         6.2718    2.4116   -3.4066 H         1 RES1    0.0000
     13 C9         8.2659    2.8686    1.9050 C.1       1 RES1    0.0000
     14 C10       10.9240    1.3825    2.2863 C.ar      1 RES1    0.0000
     15 H5        10.2454    1.7134    2.8296 H         1 RES1    0.0000
     16 C11       13.1951    0.5381    2.0837 C.ar      1 RES1    0.0000
     17 C12       12.1247    1.0469    2.8540 C.ar      1 RES1    0.0000
     18 H6        12.2387    1.1567    3.7708 H         1 RES1    0.0000
     19 C13        6.0994    3.2490    0.1803 C.ar      1 RES1    0.0000
     20 H7         6.0527    3.4717    1.0818 H         1 RES1    0.0000
     21 C14       12.9566    0.3812    0.7056 C.ar      1 RES1    0.0000
     22 H8        13.6317    0.0503    0.1575 H         1 RES1    0.0000
     23 C15        5.0447    3.5637   -0.6473 C.ar      1 RES1    0.0000
     24 H9         4.2880    3.9851   -0.3077 H         1 RES1    0.0000
     25 C16       14.7290    0.5830    4.0437 C.3       1 RES1    0.0000
     26 H10       15.6770    0.7794    4.1026 H         1 RES1    0.0000
     27 H11       14.2428    1.3871    4.2817 H         1 RES1    0.0000
     28 C17       15.4961   -0.3657    1.8512 C.3       1 RES1    0.0000
     29 H12       16.0715   -0.8946    2.4269 H         1 RES1    0.0000
     30 H13       15.1301   -0.9518    1.1708 H         1 RES1    0.0000
     31 C18       14.3948   -0.4879    5.0029 C.3       1 RES1    0.0000
     32 H14       13.4722   -0.7322    4.9020 H         1 RES1    0.0000
     33 H15       14.5464   -0.1747    5.8972 H         1 RES1    0.0000
     34 H16       14.9486   -1.2534    4.8334 H         1 RES1    0.0000
     35 C19       16.2832    0.6920    1.2129 C.3       1 RES1    0.0000
     36 H17       15.7166    1.2054    0.6323 H         1 RES1    0.0000
     37 H18       16.9949    0.2985    0.7020 H         1 RES1    0.0000
     38 H19       16.6548    1.2665    1.8872 H         1 RES1    0.0000
     39 N1         4.0250    3.6209   -2.8729 N.pl3     1 RES1    0.0000
     40 N2         8.1427    3.3634    2.9287 N.1       1 RES1    0.0000
     41 N3        14.3958    0.2080    2.6494 N.3       1 RES1    0.0000
     42 O1         4.2145    3.5791   -4.0745 O.2       1 RES1    0.0000
     43 O2         2.9777    3.9766   -2.3734 O.2       1 RES1    0.0000
@<TRIPOS>BOND
     1    1    3 1
     2    2    5 1
     3    3    5 2
     4    4   11 ar
     5    5    6 1
     6    7    1 ar
     7    8    7 1
     8    9    2 ar
     9   10    9 1
    10   11    7 ar
    11   12   11 1
    12   13    3 1
    13   14    2 ar
    14   15   14 1
    15   16   17 ar
    16   17   14 ar
    17   18   17 1
    18   19    1 ar
    19   20   19 1
    20   21    9 ar
    21   22   21 1
    22   23    4 ar
    23   24   23 1
    24   25   26 1
    25   27   25 1
    26   28   29 1
    27   30   28 1
    28   31   25 1
    29   32   31 1
    30   33   31 1
    31   34   31 1
    32   35   28 1
    33   36   35 1
    34   37   35 1
    35   38   35 1
    36   39    4 1
    37   40   13 3
    38   41   16 1
    39   42   39 2
    40   43   39 2
    41   16   21 ar
    42   19   23 ar
    43   25   41 1
    44   28   41 1
@<TRIPOS>SUBSTRUCTURE
     1 RES1 1

@<TRIPOS>CRYSIN
  17.8320    7.7320   12.5884  90.0000 107.2760  90.0000  14 1

