# MOL2 file generated by ConQuest
# Please check atom types

@<TRIPOS>MOLECULE
ANUDEU
    57    59     1
SMALL
NO_CHARGES
****
Generated from CSD

@<TRIPOS>ATOM
      1 C1         0.7612   19.3983    6.2016 C.ar      1 RES1    0.0000
      2 C2         2.4608   20.6975    4.7832 C.2       1 RES1    0.0000
      3 C3         4.6431   19.4153    1.9663 C.ar      1 RES1    0.0000
      4 H1         4.8459   18.6070    1.5527 H         1 RES1    0.0000
      5 C4         5.2105   20.5817    1.5322 C.ar      1 RES1    0.0000
      6 C5         3.4191   20.6507    3.6538 C.ar      1 RES1    0.0000
      7 C6         1.7321   19.6193    5.1674 C.2       1 RES1    0.0000
      8 H2         1.8967   18.8632    4.6504 H         1 RES1    0.0000
      9 C7        -1.1335   18.7408    8.2439 C.ar      1 RES1    0.0000
     10 C8        -0.7589   17.7998    7.2711 C.ar      1 RES1    0.0000
     11 H3        -1.1239   16.9458    7.2954 H         1 RES1    0.0000
     12 C9         3.7627   19.4578    3.0310 C.ar      1 RES1    0.0000
     13 H4         3.3890   18.6637    3.3407 H         1 RES1    0.0000
     14 C10        0.1445   18.1277    6.2799 C.ar      1 RES1    0.0000
     15 C11       -0.5555   20.0230    8.1495 C.ar      1 RES1    0.0000
     16 H5        -0.7938   20.6763    8.7663 H         1 RES1    0.0000
     17 C12        4.0364   21.8050    3.1796 C.ar      1 RES1    0.0000
     18 H6         3.8459   22.6175    3.5889 H         1 RES1    0.0000
     19 C13        2.3345   21.9742    5.4255 C.1       1 RES1    0.0000
     20 C14       -2.5938   17.0779    9.3487 C.3       1 RES1    0.0000
     21 H7        -2.8325   16.7628    8.4619 H         1 RES1    0.0000
     22 H8        -3.4096   17.1305    9.8713 H         1 RES1    0.0000
     23 C15        0.1656   15.4102    3.8460 C.ar      1 RES1    0.0000
     24 C16        0.3478   20.3263    7.1693 C.ar      1 RES1    0.0000
     25 H9         0.7038   21.1849    7.1419 H         1 RES1    0.0000
     26 C17        4.9211   21.7803    2.1226 C.ar      1 RES1    0.0000
     27 H10        5.3144   22.5663    1.8162 H         1 RES1    0.0000
     28 C18       -0.1627   16.0110    5.1915 C.3       1 RES1    0.0000
     29 H11       -1.1206   16.1426    5.2720 H         1 RES1    0.0000
     30 H12        0.1258   15.4162    5.9013 H         1 RES1    0.0000
     31 C19       -2.4517   19.3905   10.2179 C.3       1 RES1    0.0000
     32 H13       -3.3483   19.1614   10.5108 H         1 RES1    0.0000
     33 H14       -2.4947   20.2628    9.7946 H         1 RES1    0.0000
     34 C20       -1.6861   16.0723    9.9839 C.3       1 RES1    0.0000
     35 H15       -0.9268   15.9230    9.4160 H         1 RES1    0.0000
     36 H16       -2.1603   15.2461   10.1092 H         1 RES1    0.0000
     37 H17       -1.3885   16.4024   10.8357 H         1 RES1    0.0000
     38 C21       -0.5196   14.2778    3.4495 C.ar      1 RES1    0.0000
     39 H18       -1.1603   13.9050    4.0109 H         1 RES1    0.0000
     40 C22        1.0847   15.9569    2.9834 C.ar      1 RES1    0.0000
     41 H19        1.5440   16.7280    3.2282 H         1 RES1    0.0000
     42 C23        0.6746   14.2304    1.3895 C.ar      1 RES1    0.0000
     43 H20        0.8632   13.8208    0.5756 H         1 RES1    0.0000
     44 C24       -1.5617   19.4885   11.4335 C.3       1 RES1    0.0000
     45 H21       -1.5187   18.6345   11.8691 H         1 RES1    0.0000
     46 H22       -1.9206   20.1384   12.0405 H         1 RES1    0.0000
     47 H23       -0.6799   19.7542   11.1631 H         1 RES1    0.0000
     48 C25       -0.2612   13.6953    2.2267 C.ar      1 RES1    0.0000
     49 H24       -0.7278   12.9334    1.9697 H         1 RES1    0.0000
     50 C26        1.3349   15.3745    1.7522 C.ar      1 RES1    0.0000
     51 H25        1.9512   15.7602    1.1716 H         1 RES1    0.0000
     52 N1         6.1603   20.5259    0.4070 N.pl3     1 RES1    0.0000
     53 N2        -2.0278   18.4208    9.2298 N.3       1 RES1    0.0000
     54 N3         2.2579   23.0122    5.8985 N.1       1 RES1    0.0000
     55 O1         0.5062   17.2509    5.2971 O.3       1 RES1    0.0000
     56 O2         6.3900   19.4466   -0.1016 O.2       1 RES1    0.0000
     57 O3         6.6909   21.5563    0.0573 O.2       1 RES1    0.0000
@<TRIPOS>BOND
     1    1    7 1
     2    2    6 1
     3    3    4 1
     4    5    3 ar
     5    6   12 ar
     6    7    2 2
     7    8    7 1
     8    9   10 ar
     9   10   11 1
    10   12    3 ar
    11   13   12 1
    12   14    1 ar
    13   15    9 ar
    14   16   15 1
    15   17    6 ar
    16   18   17 1
    17   19    2 1
    18   20   21 1
    19   22   20 1
    20   23   28 1
    21   24    1 ar
    22   25   24 1
    23   26    5 ar
    24   27   26 1
    25   28   29 1
    26   30   28 1
    27   31   32 1
    28   33   31 1
    29   34   20 1
    30   35   34 1
    31   36   34 1
    32   37   34 1
    33   38   23 ar
    34   39   38 1
    35   40   23 ar
    36   41   40 1
    37   42   43 1
    38   44   31 1
    39   45   44 1
    40   46   44 1
    41   47   44 1
    42   48   38 ar
    43   49   48 1
    44   50   40 ar
    45   51   50 1
    46   52    5 1
    47   53    9 1
    48   54   19 3
    49   55   14 1
    50   56   52 2
    51   57   52 2
    52   10   14 ar
    53   15   24 ar
    54   17   26 ar
    55   20   53 1
    56   28   55 1
    57   31   53 1
    58   42   48 ar
    59   42   50 ar
@<TRIPOS>SUBSTRUCTURE
     1 RES1 1

@<TRIPOS>CRYSIN
   4.7847   18.2960   25.5800  90.0000  90.0000  90.0000  19 1

