# MOL2 file generated by ConQuest
# Please check atom types

@<TRIPOS>MOLECULE
AOMOQU
    29    30     1
SMALL
NO_CHARGES
****
Generated from CSD

@<TRIPOS>ATOM
      1 C1         1.5561   -2.4297    7.2593 C.ar      1 RES1    0.0000
      2 C2        -0.2298   -5.1655   10.8286 C.3       1 RES1    0.0000
      3 C3        -0.4346   -1.0378    9.5257 C.2       1 RES1    0.0000
      4 C4        -0.4745    0.0389   10.5588 C.3       1 RES1    0.0000
      5 C5         2.6507   -2.2966    4.7546 C.ar      1 RES1    0.0000
      6 C6         2.5028   -1.1139    5.5029 C.ar      1 RES1    0.0000
      7 C7         1.9616   -1.1691    6.7544 C.ar      1 RES1    0.0000
      8 C8         0.9973   -2.6099    8.5539 C.ar      1 RES1    0.0000
      9 C9         0.6676   -3.8588    9.0374 C.ar      1 RES1    0.0000
     10 C10        0.8627   -4.9899    8.2179 C.ar      1 RES1    0.0000
     11 C11        1.3598   -4.8169    6.9531 C.ar      1 RES1    0.0000
     12 C12        1.7520   -3.5635    6.4217 C.ar      1 RES1    0.0000
     13 H1         3.0406   -2.2097    3.8573 H         1 RES1    0.0000
     14 H2        -0.8224   -5.7415   10.2972 H         1 RES1    0.0000
     15 H3        -0.4908   -4.9989   11.7706 H         1 RES1    0.0000
     16 H4         0.4996   -5.7324   10.7938 H         1 RES1    0.0000
     17 H5        -1.3307    0.6339   10.6117 H         1 RES1    0.0000
     18 H6        -0.3627   -0.4347   11.6381 H         1 RES1    0.0000
     19 H7         0.2552    0.6249   10.2972 H         1 RES1    0.0000
     20 H8         2.8239   -0.2173    5.0989 H         1 RES1    0.0000
     21 H9         1.8407   -0.3260    7.3007 H         1 RES1    0.0000
     22 H10        0.6213   -5.9226    8.3934 H         1 RES1    0.0000
     23 N1         2.3020   -3.4929    5.1701 N.ar      1 RES1    0.0000
     24 N2         1.4546   -6.0132    6.1071 N.pl3     1 RES1    0.0000
     25 O1         0.8318   -6.0241    5.0642 O.2       1 RES1    0.0000
     26 O2         2.1395   -6.9460    6.5193 O.2       1 RES1    0.0000
     27 O3         0.1437   -3.8941   10.2889 O.3       1 RES1    0.0000
     28 O4         0.8370   -1.4951    9.3618 O.3       1 RES1    0.0000
     29 O5        -1.3541   -1.4607    8.8950 O.2       1 RES1    0.0000
@<TRIPOS>BOND
     1    1    7 ar
     2    2   14 1
     3    3    4 1
     4    4   17 1
     5    5    6 ar
     6    6    7 ar
     7    7   21 1
     8    8    1 ar
     9    9    8 ar
    10   10    9 ar
    11   11   10 ar
    12   12    1 ar
    13   13    5 1
    14   15    2 1
    15   16    2 1
    16   18    4 1
    17   19    4 1
    18   20    6 1
    19   22   10 1
    20   23    5 ar
    21   24   11 1
    22   25   24 2
    23   26   24 2
    24   27    2 1
    25   28    3 1
    26   29    3 2
    27    8   28 1
    28    9   27 1
    29   11   12 ar
    30   12   23 ar
@<TRIPOS>SUBSTRUCTURE
     1 RES1 1

@<TRIPOS>CRYSIN
   7.9230    9.0560   16.6940  90.0000  97.4000  90.0000  14 1

