# MOL2 file generated by ConQuest
# Please check atom types

@<TRIPOS>MOLECULE
APACIF
    45    47     1
SMALL
NO_CHARGES
****
Generated from CSD

@<TRIPOS>ATOM
      1 O1         2.9495    9.1608    4.0035 O.2       1 RES1    0.0000
      2 O2         4.6892    9.0735    2.7726 O.2       1 RES1    0.0000
      3 O3         2.6767    8.7168   -0.4081 O.3       1 RES1    0.0000
      4 O4         2.3994    7.3764    1.3676 O.2       1 RES1    0.0000
      5 N1         1.3706   11.5138    2.7913 N.3       1 RES1    0.0000
      6 N2         3.5127    9.2960    2.9442 N.pl3     1 RES1    0.0000
      7 C1         3.4896   10.8540    1.0244 C.3       1 RES1    0.0000
      8 H1         4.3843   10.5469    0.8095 H         1 RES1    0.0000
      9 H2         3.0474   11.1017    0.1969 H         1 RES1    0.0000
     10 C2         3.5692   12.0472    1.9301 C.ar      1 RES1    0.0000
     11 C3         4.6806   12.8762    1.9287 C.ar      1 RES1    0.0000
     12 H3         5.3892   12.6836    1.3582 H         1 RES1    0.0000
     13 C4         4.7615   13.9812    2.7537 C.ar      1 RES1    0.0000
     14 H4         5.5054   14.5382    2.7298 H         1 RES1    0.0000
     15 C5         3.7199   14.2397    3.6102 C.ar      1 RES1    0.0000
     16 H5         3.7663   14.9789    4.1738 H         1 RES1    0.0000
     17 C6         2.6060   13.4284    3.6535 C.ar      1 RES1    0.0000
     18 H6         1.9185   13.6201    4.2496 H         1 RES1    0.0000
     19 C7         2.5023   12.3147    2.8032 C.ar      1 RES1    0.0000
     20 C8         0.2812   11.7616    3.7119 C.3       1 RES1    0.0000
     21 H7         0.3809   12.6350    4.0981 H         1 RES1    0.0000
     22 H8         0.2944   11.1004    4.4078 H         1 RES1    0.0000
     23 H9        -0.5530   11.7143    3.2398 H         1 RES1    0.0000
     24 C9         1.3140   10.2088    2.1384 C.3       1 RES1    0.0000
     25 H10        0.9800    9.5645    2.7971 H         1 RES1    0.0000
     26 C10        0.3522   10.1954    0.9595 C.ar      1 RES1    0.0000
     27 C11       -0.4270    9.0730    0.7159 C.ar      1 RES1    0.0000
     28 H11       -0.3920    8.3525    1.3026 H         1 RES1    0.0000
     29 C12       -1.2582    9.0162   -0.3937 C.ar      1 RES1    0.0000
     30 H12       -1.7678    8.2555   -0.5537 H         1 RES1    0.0000
     31 C13       -1.3297   10.0839   -1.2580 C.ar      1 RES1    0.0000
     32 H13       -1.8830   10.0432   -2.0045 H         1 RES1    0.0000
     33 C14       -0.5810   11.2106   -1.0135 C.ar      1 RES1    0.0000
     34 H14       -0.6347   11.9359   -1.5938 H         1 RES1    0.0000
     35 C15        0.2524   11.2728    0.0905 C.ar      1 RES1    0.0000
     36 H15        0.7488   12.0422    0.2508 H         1 RES1    0.0000
     37 C16        2.7174    9.7385    1.7013 C.3       1 RES1    0.0000
     38 C17        2.5923    8.4561    0.8747 C.2       1 RES1    0.0000
     39 C18        2.3854    7.6328   -1.3449 C.3       1 RES1    0.0000
     40 H16        1.5984    7.1419   -1.0603 H         1 RES1    0.0000
     41 H17        3.1338    7.0173   -1.3935 H         1 RES1    0.0000
     42 C19        2.1506    8.2646   -2.6570 C.3       1 RES1    0.0000
     43 H18        1.9534    7.5865   -3.3071 H         1 RES1    0.0000
     44 H19        2.9364    8.7460   -2.9251 H         1 RES1    0.0000
     45 H20        1.4096    8.8706   -2.5918 H         1 RES1    0.0000
@<TRIPOS>BOND
     1    1    6 2
     2    2    6 2
     3    3   38 1
     4    4   38 2
     5    5   19 1
     6    6   37 1
     7    7    8 1
     8    9    7 1
     9   10    7 1
    10   11   10 ar
    11   12   11 1
    12   13   11 ar
    13   14   13 1
    14   15   13 ar
    15   16   15 1
    16   17   15 ar
    17   18   17 1
    18   19   10 ar
    19   20    5 1
    20   21   20 1
    21   22   20 1
    22   23   20 1
    23   24    5 1
    24   25   24 1
    25   26   24 1
    26   27   26 ar
    27   28   27 1
    28   29   27 ar
    29   30   29 1
    30   31   29 ar
    31   32   31 1
    32   33   31 ar
    33   34   33 1
    34   35   26 ar
    35   36   35 1
    36   37    7 1
    37   38   37 1
    38   39    3 1
    39   40   39 1
    40   41   39 1
    41   42   39 1
    42   43   42 1
    43   44   42 1
    44   45   42 1
    45   17   19 ar
    46   24   37 1
    47   33   35 ar
@<TRIPOS>SUBSTRUCTURE
     1 RES1 1

@<TRIPOS>CRYSIN
   7.7910   13.1164   16.9526  90.0000  96.8950  90.0000 231 1

