# MOL2 file generated by ConQuest
# Please check atom types

@<TRIPOS>MOLECULE
APAKUZ
    30    32     1
SMALL
NO_CHARGES
****
Generated from CSD

@<TRIPOS>ATOM
      1 C1         4.3380    0.7086    2.8713 C.ar      1 RES1    0.0000
      2 C2         5.7365    0.8191    2.8885 C.ar      1 RES1    0.0000
      3 C3         6.4428    1.2753    1.7981 C.ar      1 RES1    0.0000
      4 C4         5.7969    1.7004    0.6311 C.ar      1 RES1    0.0000
      5 C5         4.3878    1.6465    0.6149 C.ar      1 RES1    0.0000
      6 C6         3.6733    2.1416   -0.5846 C.2       1 RES1    0.0000
      7 C7         2.1997    2.0932   -0.6086 C.ar      1 RES1    0.0000
      8 C8         1.5229    2.5473   -1.7435 C.ar      1 RES1    0.0000
      9 H1         2.0083    2.8726   -2.4935 H         1 RES1    0.0000
     10 C9         0.1308    2.5192   -1.7663 C.ar      1 RES1    0.0000
     11 H2        -0.3340    2.8237   -2.5366 H         1 RES1    0.0000
     12 C10       -0.5807    2.0505   -0.6742 C.ar      1 RES1    0.0000
     13 H3        -1.5308    2.0501   -0.6957 H         1 RES1    0.0000
     14 C11        0.0827    1.5821    0.4493 C.ar      1 RES1    0.0000
     15 H4        -0.4109    1.2523    1.1914 H         1 RES1    0.0000
     16 C12        1.4806    1.5959    0.4875 C.ar      1 RES1    0.0000
     17 C13        2.1841    1.0561    1.6677 C.2       1 RES1    0.0000
     18 C14        3.6700    1.1396    1.7113 C.ar      1 RES1    0.0000
     19 N1         6.4594    0.3905    4.0949 N.pl3     1 RES1    0.0000
     20 N2         7.9097    1.3996    1.8883 N.pl3     1 RES1    0.0000
     21 O1         3.7307    0.1969    3.9435 O.3       1 RES1    0.0000
     22 O2         6.5365    2.1654   -0.3813 O.3       1 RES1    0.0000
     23 O3         4.3079    2.5959   -1.5389 O.2       1 RES1    0.0000
     24 O4         1.5676    0.5387    2.6002 O.2       1 RES1    0.0000
     25 O5         6.1538    0.8943    5.1515 O.2       1 RES1    0.0000
     26 O6         7.3250   -0.4601    3.9401 O.2       1 RES1    0.0000
     27 O7         8.3579    2.0261    2.8365 O.2       1 RES1    0.0000
     28 O8         8.5662    0.8673    1.0120 O.2       1 RES1    0.0000
     29 H5         5.9202    2.4260   -1.0728 H         1 RES1    0.0000
     30 H6         2.8997    0.1967    3.7434 H         1 RES1    0.0000
@<TRIPOS>BOND
     1    1    2 ar
     2    2    3 ar
     3    3    4 ar
     4    4    5 ar
     5    5    6 1
     6    6    7 1
     7    7    8 ar
     8    8    9 1
     9   10    8 ar
    10   11   10 1
    11   12   10 ar
    12   13   12 1
    13   14   12 ar
    14   15   14 1
    15   16    7 ar
    16   17   16 1
    17   18    1 ar
    18   19    2 1
    19   20    3 1
    20   21    1 1
    21   22    4 1
    22   23    6 2
    23   24   17 2
    24   25   19 2
    25   26   19 2
    26   27   20 2
    27   28   20 2
    28   29   22 1
    29   30   21 1
    30    5   18 ar
    31   14   16 ar
    32   17   18 1
@<TRIPOS>SUBSTRUCTURE
     1 RES1 1

@<TRIPOS>CRYSIN
  11.7590    7.2852   15.9670  90.0000 105.4200  90.0000  14 1

