# MOL2 file generated by ConQuest
# Please check atom types

@<TRIPOS>MOLECULE
APEMIT
    40    42     1
SMALL
NO_CHARGES
****
Generated from CSD

@<TRIPOS>ATOM
      1 O1         7.7527   12.9432    6.6237 O.3       1 RES1    0.0000
      2 O2         9.8590   13.6846    6.5376 O.2       1 RES1    0.0000
      3 O3        11.8452    7.9636    9.8262 O.3       1 RES1    0.0000
      4 H1        12.2938    8.1928   10.7079 H         1 RES1    0.0000
      5 N1         7.1324    8.6345   11.9873 N.ar      1 RES1    0.0000
      6 N2        10.4788    8.3307   10.0320 N.3       1 RES1    0.0000
      7 C1         7.7751    9.9296   13.8918 C.ar      1 RES1    0.0000
      8 H2         7.5529   10.5691   14.5298 H         1 RES1    0.0000
      9 C2         6.8767    9.5458   12.9392 C.ar      1 RES1    0.0000
     10 H3         6.0354    9.9413   12.9497 H         1 RES1    0.0000
     11 C3         8.3520    8.0864   11.9687 C.ar      1 RES1    0.0000
     12 C4         8.5993    7.0539   10.9239 C.ar      1 RES1    0.0000
     13 C5         9.6560    7.1462   10.0204 C.ar      1 RES1    0.0000
     14 C6        10.1085    9.4145    9.2120 C.ar      1 RES1    0.0000
     15 C7         8.7993    9.5929    8.7795 C.ar      1 RES1    0.0000
     16 H4         8.1497    8.9646    9.0000 H         1 RES1    0.0000
     17 C8         8.4594   10.6958    8.0262 C.ar      1 RES1    0.0000
     18 H5         7.5804   10.7972    7.7400 H         1 RES1    0.0000
     19 C9         9.3986   11.6562    7.6872 C.ar      1 RES1    0.0000
     20 C10        9.0641   12.8543    6.8949 C.2       1 RES1    0.0000
     21 C11        7.3201   14.0812    5.8457 C.3       1 RES1    0.0000
     22 H6         7.5982   14.8913    6.2813 H         1 RES1    0.0000
     23 H7         6.3631   14.0719    5.7689 H         1 RES1    0.0000
     24 H8         7.7116   14.0381    4.9706 H         1 RES1    0.0000
     25 C12        9.0094    9.3457   13.8797 C.ar      1 RES1    0.0000
     26 H9         9.6415    9.5731   14.5235 H         1 RES1    0.0000
     27 C13        9.3121    8.4201   12.9103 C.ar      1 RES1    0.0000
     28 H10       10.1518    8.0215   12.8864 H         1 RES1    0.0000
     29 C14        7.7438    5.9597   10.8197 C.ar      1 RES1    0.0000
     30 H11        7.0158    5.8921   11.3949 H         1 RES1    0.0000
     31 C15        7.9561    4.9768    9.8809 C.ar      1 RES1    0.0000
     32 H12        7.3713    4.2572    9.8211 H         1 RES1    0.0000
     33 C16        9.0350    5.0595    9.0300 C.ar      1 RES1    0.0000
     34 H13        9.1939    4.3824    8.4130 H         1 RES1    0.0000
     35 C17        9.8757    6.1427    9.0927 C.ar      1 RES1    0.0000
     36 H14       10.5977    6.2032    8.5091 H         1 RES1    0.0000
     37 C18       11.0624   10.3712    8.8697 C.ar      1 RES1    0.0000
     38 H15       11.9428   10.2685    9.1506 H         1 RES1    0.0000
     39 C19       10.7065   11.4685    8.1167 C.ar      1 RES1    0.0000
     40 H16       11.3541   12.0962    7.8918 H         1 RES1    0.0000
@<TRIPOS>BOND
     1    1   20 1
     2    2   20 2
     3    3    4 1
     4    5    9 ar
     5    6    3 1
     6    7    8 1
     7    9    7 ar
     8   10    9 1
     9   11    5 ar
    10   12   11 1
    11   13    6 1
    12   14    6 1
    13   15   14 ar
    14   16   15 1
    15   17   15 ar
    16   18   17 1
    17   19   17 ar
    18   20   19 1
    19   21    1 1
    20   22   21 1
    21   23   21 1
    22   24   21 1
    23   25    7 ar
    24   26   25 1
    25   27   11 ar
    26   28   27 1
    27   29   12 ar
    28   30   29 1
    29   31   29 ar
    30   32   31 1
    31   33   31 ar
    32   34   33 1
    33   35   13 ar
    34   36   35 1
    35   37   14 ar
    36   38   37 1
    37   39   19 ar
    38   40   39 1
    39   12   13 ar
    40   25   27 ar
    41   33   35 ar
    42   37   39 ar
@<TRIPOS>SUBSTRUCTURE
     1 RES1 1

@<TRIPOS>CRYSIN
   6.2622   10.5075   12.8740  82.7870  80.4140  73.3320   2 1

