# MOL2 file generated by ConQuest
# Please check atom types

@<TRIPOS>MOLECULE
APERIX
    51    55     1
SMALL
NO_CHARGES
****
Generated from CSD

@<TRIPOS>ATOM
      1 C1         8.7277    6.1974    8.3995 C.3       1 RES1    0.0000
      2 H1         8.5884    6.6136    9.2521 H         1 RES1    0.0000
      3 H2         8.8399    6.8742    7.7276 H         1 RES1    0.0000
      4 H3         9.5135    5.6484    8.4351 H         1 RES1    0.0000
      5 C2         7.2877    4.3523    8.9045 C.ar      1 RES1    0.0000
      6 C3         7.9479    4.0563   10.0759 C.ar      1 RES1    0.0000
      7 H4         8.6861    4.5560   10.3414 H         1 RES1    0.0000
      8 C4         7.4972    3.0049   10.8491 C.ar      1 RES1    0.0000
      9 H5         7.9374    2.8110   11.6455 H         1 RES1    0.0000
     10 C5         6.4120    2.2328   10.4796 C.ar      1 RES1    0.0000
     11 C6         5.7686    2.5052    9.2712 C.ar      1 RES1    0.0000
     12 C7         6.2151    3.5733    8.5118 C.ar      1 RES1    0.0000
     13 H6         5.7816    3.7728    7.7140 H         1 RES1    0.0000
     14 C8         4.5602    1.6866    8.8073 C.3       1 RES1    0.0000
     15 H7         3.7825    2.2815    8.8498 H         1 RES1    0.0000
     16 C9         4.2704    0.5163    9.7365 C.3       1 RES1    0.0000
     17 H8         4.8008   -0.2467    9.4601 H         1 RES1    0.0000
     18 H9         3.3353    0.2724    9.6558 H         1 RES1    0.0000
     19 C10        4.5767    0.8304   11.1967 C.3       1 RES1    0.0000
     20 H10        4.0366    1.5963   11.4840 H         1 RES1    0.0000
     21 C11        4.2632   -0.3662   12.0807 C.ar      1 RES1    0.0000
     22 C12        5.1511   -1.4232   12.1573 C.ar      1 RES1    0.0000
     23 H11        5.9629   -1.3739   11.7057 H         1 RES1    0.0000
     24 C13        4.8520   -2.5462   12.8908 C.ar      1 RES1    0.0000
     25 H12        5.4579   -3.2488   12.9455 H         1 RES1    0.0000
     26 C14        3.6504   -2.6157   13.5367 C.ar      1 RES1    0.0000
     27 C15        2.7470   -1.5747   13.4724 C.ar      1 RES1    0.0000
     28 H13        1.9327   -1.6303   13.9185 H         1 RES1    0.0000
     29 C16        3.0621   -0.4642   12.7485 C.ar      1 RES1    0.0000
     30 H14        2.4564    0.2398   12.7033 H         1 RES1    0.0000
     31 C17        4.6710    1.2182    7.3787 C.2       1 RES1    0.0000
     32 C18        4.0279    1.6296    6.2702 C.2       1 RES1    0.0000
     33 H15        3.4051    2.3190    6.2292 H         1 RES1    0.0000
     34 C19        4.4623    0.8360    5.1686 C.ar      1 RES1    0.0000
     35 C20        4.1850    0.7443    3.8043 C.ar      1 RES1    0.0000
     36 H16        3.5866    1.3405    3.4157 H         1 RES1    0.0000
     37 C21        4.7780   -0.2015    3.0380 C.ar      1 RES1    0.0000
     38 H17        4.5916   -0.2363    2.1279 H         1 RES1    0.0000
     39 C22        5.6614   -1.1216    3.5908 C.ar      1 RES1    0.0000
     40 H18        6.0336   -1.7860    3.0585 H         1 RES1    0.0000
     41 C23        5.9845   -1.0507    4.9264 C.ar      1 RES1    0.0000
     42 H19        6.5976   -1.6421    5.2986 H         1 RES1    0.0000
     43 C24        5.3809   -0.0876    5.6996 C.ar      1 RES1    0.0000
     44 N1         5.9776    1.1717   11.2883 N.3       1 RES1    0.0000
     45 H20        6.1959    1.2578   12.0697 H         1 RES1    0.0000
     46 N2         3.3336   -3.8166   14.3030 N.pl3     1 RES1    0.0000
     47 N3         5.5008    0.1918    7.0379 N.pl3     1 RES1    0.0000
     48 H21        5.9836   -0.2085    7.5265 H         1 RES1    0.0000
     49 O1         7.6144    5.4010    8.0793 O.3       1 RES1    0.0000
     50 O2         4.1362   -4.7359   14.3222 O.2       1 RES1    0.0000
     51 O3         2.2638   -3.8562   14.8750 O.2       1 RES1    0.0000
@<TRIPOS>BOND
     1    1    2 1
     2    3    1 1
     3    4    1 1
     4    5    6 ar
     5    6    7 1
     6    8    6 ar
     7    9    8 1
     8   10    8 ar
     9   11   10 ar
    10   12    5 ar
    11   13   12 1
    12   14   11 1
    13   15   14 1
    14   16   14 1
    15   17   16 1
    16   18   16 1
    17   19   16 1
    18   20   19 1
    19   21   19 1
    20   22   21 ar
    21   23   22 1
    22   24   22 ar
    23   25   24 1
    24   26   24 ar
    25   27   26 ar
    26   28   27 1
    27   29   21 ar
    28   30   29 1
    29   31   14 1
    30   32   31 2
    31   33   32 1
    32   34   32 1
    33   35   34 ar
    34   36   35 1
    35   37   35 ar
    36   38   37 1
    37   39   37 ar
    38   40   39 1
    39   41   39 ar
    40   42   41 1
    41   43   34 ar
    42   44   10 1
    43   45   44 1
    44   46   26 1
    45   47   31 1
    46   48   47 1
    47   49    1 1
    48   50   46 2
    49   51   46 2
    50    5   49 1
    51   11   12 ar
    52   19   44 1
    53   27   29 ar
    54   41   43 ar
    55   43   47 1
@<TRIPOS>SUBSTRUCTURE
     1 RES1 1

@<TRIPOS>CRYSIN
  10.5425    6.9493   14.3390  90.0000 107.3780  90.0000   4 1

