# MOL2 file generated by ConQuest
# Please check atom types

@<TRIPOS>MOLECULE
APERUK
    38    39     1
SMALL
NO_CHARGES
****
Generated from CSD

@<TRIPOS>ATOM
      1 N1         1.8878    8.2172   14.6609 N.2       1 RES1    0.0000
      2 O1         1.1203    8.1469   13.4595 O.3       1 RES1    0.0000
      3 O2        -1.0361    5.8869   12.5362 O.3       1 RES1    0.0000
      4 O3        -3.1990    6.3263   12.1570 O.2       1 RES1    0.0000
      5 C1        -0.2578    8.3139   13.8159 C.3       1 RES1    0.0000
      6 H1        -0.7772    8.4508   13.0079 H         1 RES1    0.0000
      7 H2        -0.3470    9.1103   14.3611 H         1 RES1    0.0000
      8 C2        -0.8231    7.1470   14.5628 C.ar      1 RES1    0.0000
      9 C3        -0.9379    7.1743   15.9511 C.ar      1 RES1    0.0000
     10 H3        -0.6868    7.9398   16.4172 H         1 RES1    0.0000
     11 C4        -1.4158    6.0890   16.6453 C.ar      1 RES1    0.0000
     12 H4        -1.4760    6.1220   17.5735 H         1 RES1    0.0000
     13 C5        -1.8037    4.9608   15.9789 C.ar      1 RES1    0.0000
     14 H5        -2.1254    4.2283   16.4523 H         1 RES1    0.0000
     15 C6        -1.7194    4.9078   14.6050 C.ar      1 RES1    0.0000
     16 H6        -1.9977    4.1480   14.1467 H         1 RES1    0.0000
     17 C7        -1.2212    5.9822   13.9242 C.ar      1 RES1    0.0000
     18 C8        -2.1186    6.0410   11.7377 C.2       1 RES1    0.0000
     19 C9        -1.7854    5.8167   10.3149 C.ar      1 RES1    0.0000
     20 C10       -2.7215    6.1686    9.3547 C.ar      1 RES1    0.0000
     21 H7        -3.5340    6.5385    9.6162 H         1 RES1    0.0000
     22 C11       -2.4580    5.9744    8.0255 C.ar      1 RES1    0.0000
     23 H8        -3.0918    6.2145    7.3879 H         1 RES1    0.0000
     24 C12       -1.2567    5.4239    7.6283 C.ar      1 RES1    0.0000
     25 H9        -1.0796    5.2906    6.7236 H         1 RES1    0.0000
     26 C13       -0.3241    5.0748    8.5713 C.ar      1 RES1    0.0000
     27 H10        0.4856    4.7035    8.3052 H         1 RES1    0.0000
     28 C14       -0.5774    5.2676    9.9108 C.ar      1 RES1    0.0000
     29 H11        0.0614    5.0304   10.5441 H         1 RES1    0.0000
     30 C15        3.1339    8.1491   14.4198 C.2       1 RES1    0.0000
     31 C16        4.0388    8.2186   15.6032 C.3       1 RES1    0.0000
     32 H12        3.5135    8.2996   16.4031 H         1 RES1    0.0000
     33 H13        4.6160    8.9805   15.5209 H         1 RES1    0.0000
     34 H14        4.5678    7.4187   15.6474 H         1 RES1    0.0000
     35 C17        3.7713    8.0165   13.0771 C.3       1 RES1    0.0000
     36 H15        3.0894    7.9670   12.4034 H         1 RES1    0.0000
     37 H16        4.3027    7.2180   13.0536 H         1 RES1    0.0000
     38 H17        4.3304    8.7791   12.9130 H         1 RES1    0.0000
@<TRIPOS>BOND
     1    1    2 1
     2    2    5 1
     3    3   17 1
     4    4   18 2
     5    5    6 1
     6    7    5 1
     7    8    5 1
     8    9    8 ar
     9   10    9 1
    10   11    9 ar
    11   12   11 1
    12   13   11 ar
    13   14   13 1
    14   15   13 ar
    15   16   15 1
    16   17    8 ar
    17   18    3 1
    18   19   18 1
    19   20   19 ar
    20   21   20 1
    21   22   20 ar
    22   23   22 1
    23   24   22 ar
    24   25   24 1
    25   26   24 ar
    26   27   26 1
    27   28   19 ar
    28   29   28 1
    29   30    1 2
    30   31   30 1
    31   32   31 1
    32   33   31 1
    33   34   31 1
    34   35   30 1
    35   36   35 1
    36   37   35 1
    37   38   35 1
    38   15   17 ar
    39   26   28 ar
@<TRIPOS>SUBSTRUCTURE
     1 RES1 1

@<TRIPOS>CRYSIN
  12.0490    7.1678   35.1470  90.0000  90.0000  90.0000  61 1

