# MOL2 file generated by ConQuest
# Please check atom types

@<TRIPOS>MOLECULE
APEZOL
    26    28     1
SMALL
NO_CHARGES
****
Generated from CSD

@<TRIPOS>ATOM
      1 O1        -1.8757    3.4939    4.5354 O.3       1 RES1    0.0000
      2 O2        -3.8944    2.9084    4.0466 O.3       1 RES1    0.0000
      3 O3         2.7855   -0.2117   -0.2496 O.2       1 RES1    0.0000
      4 O4         1.1400    1.0526   -0.7463 O.2       1 RES1    0.0000
      5 N1        -0.3831    2.0036    1.9576 N.2       1 RES1    0.0000
      6 N2         1.6264    3.1890    1.5385 N.2       1 RES1    0.0000
      7 N3        -2.7604    3.1890    3.7500 N.2       1 RES1    0.0000
      8 N4         1.8931    0.5470    0.0533 N.2       1 RES1    0.0000
      9 C1        -0.9774    3.1890    2.0684 C.2       1 RES1    0.0000
     10 C2         0.9275    2.0718    1.6874 C.2       1 RES1    0.0000
     11 C3        -2.4582    3.1890    2.3213 C.3       1 RES1    0.0000
     12 H1        -2.8543    2.4045    1.9101 H         1 RES1    0.0000
     13 C4         1.6703    0.7802    1.5063 C.3       1 RES1    0.0000
     14 H2         1.1556    0.0485    1.8827 H         1 RES1    0.0000
     15 H3         2.5219    0.8228    1.9682 H         1 RES1    0.0000
     16 O1G       -1.8757    2.8841    4.5354 O.3       1 RES1    0.0000
     17 O2G       -3.8944    3.4696    4.0466 O.3       1 RES1    0.0000
     18 O3G        2.7855    6.5897   -0.2496 O.2       1 RES1    0.0000
     19 O4G        1.1400    5.3254   -0.7463 O.2       1 RES1    0.0000
     20 N1G       -0.3831    4.3744    1.9576 N.2       1 RES1    0.0000
     21 N4G        1.8931    5.8310    0.0533 N.2       1 RES1    0.0000
     22 C2G        0.9275    4.3062    1.6874 C.2       1 RES1    0.0000
     23 H1G       -2.8543    3.9735    1.9101 H         1 RES1    0.0000
     24 C4G        1.6703    5.5978    1.5063 C.3       1 RES1    0.0000
     25 H2G        1.1556    6.3295    1.8827 H         1 RES1    0.0000
     26 H3G        2.5219    5.5552    1.9682 H         1 RES1    0.0000
@<TRIPOS>BOND
     1    1    7 1
     2    2    7 1
     3    3    8 1
     4    4    8 1
     5    5    9 1
     6    6   10 1
     7    7   11 1
     8    8   13 1
     9    9   11 1
    10   10    5 1
    11   11   12 1
    12   13   10 1
    13   14   13 1
    14   15   13 1
    15   16    1 1
    16   17    2 1
    17   18   21 1
    18   19   21 1
    19   20    9 1
    20   21   24 1
    21   22    6 1
    22   23   11 1
    23   24   22 1
    24   25   24 1
    25   26   24 1
    26    7   16 1
    27    7   17 1
    28   20   22 1
@<TRIPOS>SUBSTRUCTURE
     1 RES1 1

@<TRIPOS>CRYSIN
  15.3870   12.7560    5.2780  90.0000  90.0000  90.0000  62 1

