# MOL2 file generated by ConQuest
# Please check atom types

@<TRIPOS>MOLECULE
APMCOX
    14    14     1
SMALL
NO_CHARGES
****
Generated from CSD

@<TRIPOS>ATOM
      1 C1         0.7858    2.7964    3.3256 C.ar      1 RES1    0.0000
      2 C2         0.3977    2.7302    1.9959 C.ar      1 RES1    0.0000
      3 C3        -0.3261    4.8383    2.0923 C.ar      1 RES1    0.0000
      4 C4         0.5709    3.9829    3.9849 C.ar      1 RES1    0.0000
      5 C5         0.8953    4.2961    5.3844 C.2       1 RES1    0.0000
      6 H1         1.2004    2.0598    3.7153 H         1 RES1    0.0000
      7 H2         0.5538    2.0387    1.5783 H         1 RES1    0.0000
      8 H3        -0.7610    5.5277    1.6342 H         1 RES1    0.0000
      9 H4         0.6619    5.1599    5.6707 H         1 RES1    0.0000
     10 H5         2.0601    2.0387    6.6065 H         1 RES1    0.0000
     11 N1        -0.1649    3.7496    1.3548 N.ar      1 RES1    0.0000
     12 N2        -0.0006    5.0233    3.3479 N.ar      1 RES1    0.0000
     13 N3         1.4205    3.5804    6.3132 N.2       1 RES1    0.0000
     14 O1         1.7402    2.2983    5.9207 O.3       1 RES1    0.0000
@<TRIPOS>BOND
     1    1    2 ar
     2    2    7 1
     3    3    8 1
     4    4    1 ar
     5    5    4 1
     6    6    1 1
     7    9    5 1
     8   10   14 1
     9   11    2 ar
    10   12    3 ar
    11   13    5 2
    12   14   13 1
    13    3   11 ar
    14    4   12 ar
@<TRIPOS>SUBSTRUCTURE
     1 RES1 1

@<TRIPOS>CRYSIN
   3.7700   10.5090   14.0630  90.0000  96.6900  90.0000  14 1

