# MOL2 file generated by ConQuest
# Please check atom types

@<TRIPOS>MOLECULE
APOYOU
    32    33     1
SMALL
NO_CHARGES
****
Generated from CSD

@<TRIPOS>ATOM
      1 N1         0.0438   -1.6829    3.5474 N.3       1 RES1    0.0000
      2 H1         0.4466   -2.2991    3.0303 H         1 RES1    0.0000
      3 N2        -1.2034   -3.7235   -1.2889 N.pl3     1 RES1    0.0000
      4 O1         2.2837   -2.7122    4.9773 O.3       1 RES1    0.0000
      5 H2         3.1121   -2.9633    5.2359 H         1 RES1    0.0000
      6 O2         1.6280    0.6694    5.9209 O.3       1 RES1    0.0000
      7 H3         1.1436    1.3539    6.2045 H         1 RES1    0.0000
      8 O3         0.2652    0.0153    2.0130 O.3       1 RES1    0.0000
      9 O4        -0.0462   -3.4794   -1.5894 O.2       1 RES1    0.0000
     10 O5        -1.8689   -4.5995   -1.8421 O.2       1 RES1    0.0000
     11 C1         2.4416   -1.5730    4.1439 C.3       1 RES1    0.0000
     12 H4         2.7060   -1.8563    3.2333 H         1 RES1    0.0000
     13 H5         3.1526   -0.9869    4.5064 H         1 RES1    0.0000
     14 C2         0.7069   -0.3353    5.4745 C.3       1 RES1    0.0000
     15 H6        -0.2087    0.0392    5.4390 H         1 RES1    0.0000
     16 H7         0.7072   -1.0968    6.1072 H         1 RES1    0.0000
     17 C3         1.1242   -0.8134    4.0881 C.3       1 RES1    0.0000
     18 C4         1.1832    0.3607    3.0665 C.3       1 RES1    0.0000
     19 H8         0.9134    1.2100    3.4977 H         1 RES1    0.0000
     20 H9         2.1000    0.4632    2.7089 H         1 RES1    0.0000
     21 C5        -0.7149   -0.7882    2.6751 C.3       1 RES1    0.0000
     22 H10       -1.2942   -0.1984    3.2376 H         1 RES1    0.0000
     23 C6        -1.5798   -1.5422    1.7034 C.ar      1 RES1    0.0000
     24 C7        -2.9434   -1.6897    1.9590 C.ar      1 RES1    0.0000
     25 H11       -3.3348   -1.2424    2.7004 H         1 RES1    0.0000
     26 C8        -3.7344   -2.4844    1.1394 C.ar      1 RES1    0.0000
     27 H12       -4.6619   -2.5750    1.3217 H         1 RES1    0.0000
     28 C9        -3.1796   -3.1455    0.0577 C.ar      1 RES1    0.0000
     29 H13       -3.7118   -3.6990   -0.5033 H         1 RES1    0.0000
     30 C10       -1.8265   -2.9767   -0.1844 C.ar      1 RES1    0.0000
     31 C11       -1.0118   -2.1773    0.6040 C.ar      1 RES1    0.0000
     32 H14       -0.0911   -2.0667    0.3976 H         1 RES1    0.0000
@<TRIPOS>BOND
     1    1    2 1
     2    3    9 2
     3    4    5 1
     4    6    7 1
     5    8   18 1
     6   10    3 2
     7   11    4 1
     8   12   11 1
     9   13   11 1
    10   14    6 1
    11   15   14 1
    12   16   14 1
    13   17    1 1
    14   18   17 1
    15   19   18 1
    16   20   18 1
    17   21    1 1
    18   22   21 1
    19   23   21 1
    20   24   23 ar
    21   25   24 1
    22   26   24 ar
    23   27   26 1
    24   28   26 ar
    25   29   28 1
    26   30    3 1
    27   31   23 ar
    28   32   31 1
    29    8   21 1
    30   11   17 1
    31   14   17 1
    32   28   30 ar
    33   30   31 ar
@<TRIPOS>SUBSTRUCTURE
     1 RES1 1

@<TRIPOS>CRYSIN
  12.6509    8.5153   21.1468  90.0000  90.0000  90.0000  61 1

