# MOL2 file generated by ConQuest
# Please check atom types

@<TRIPOS>MOLECULE
APPXDZ
    29    31     1
SMALL
NO_CHARGES
****
Generated from CSD

@<TRIPOS>ATOM
      1 C1        -0.0148   11.3092   10.9806 C.ar      1 RES1    0.0000
      2 C2        -0.1996   10.9831   12.3304 C.ar      1 RES1    0.0000
      3 C3         0.2791    9.7982   12.8358 C.ar      1 RES1    0.0000
      4 C4         0.9679    8.8987   12.0326 C.ar      1 RES1    0.0000
      5 C5         1.1660    9.2361   10.6905 C.ar      1 RES1    0.0000
      6 C6         0.6953   10.4211   10.1774 C.ar      1 RES1    0.0000
      7 C7         1.4547    7.6363   12.5986 C.2       1 RES1    0.0000
      8 C8         1.8597    6.1532   14.0206 C.2       1 RES1    0.0000
      9 C9         2.0248    5.3336   15.2248 C.ar      1 RES1    0.0000
     10 C10        1.4991    5.7954   16.4186 C.ar      1 RES1    0.0000
     11 C11        1.6499    5.0355   17.5738 C.ar      1 RES1    0.0000
     12 C12        2.3098    3.8264   17.5235 C.ar      1 RES1    0.0000
     13 C13        2.8312    3.3735   16.3426 C.ar      1 RES1    0.0000
     14 C14        2.6836    4.1220   15.1835 C.ar      1 RES1    0.0000
     15 N1         1.3213    7.3293   13.9381 N.2       1 RES1    0.0000
     16 N2         2.0358    6.7051   11.8921 N.2       1 RES1    0.0000
     17 N3        -0.4968   12.4891   10.4661 N.3       1 RES1    0.0000
     18 O1         2.3146    5.6901   12.8513 O.3       1 RES1    0.0000
     19 H1        -0.6837   11.5959   12.9054 H         1 RES1    0.0000
     20 H2         0.1041    9.6041   13.7176 H         1 RES1    0.0000
     21 H3         1.6385    8.6145   10.1335 H         1 RES1    0.0000
     22 H4         0.8760   10.6317    9.2568 H         1 RES1    0.0000
     23 H5         1.0220    6.6226   16.4380 H         1 RES1    0.0000
     24 H6         1.3251    5.4047   18.4105 H         1 RES1    0.0000
     25 H7         2.4637    3.2986   18.3589 H         1 RES1    0.0000
     26 H8         3.2879    2.5120   16.2961 H         1 RES1    0.0000
     27 H9         3.0067    3.8061   14.2978 H         1 RES1    0.0000
     28 H10       -0.4593   12.6109    9.5662 H         1 RES1    0.0000
     29 H11       -1.0123   13.0042   10.9715 H         1 RES1    0.0000
@<TRIPOS>BOND
     1    1    2 ar
     2    2    3 ar
     3    3    4 ar
     4    4    5 ar
     5    5    6 ar
     6    6    1 ar
     7    7    4 1
     8    8    9 1
     9    9   10 ar
    10   10   11 ar
    11   11   12 ar
    12   12   13 ar
    13   13   14 ar
    14   14    9 ar
    15   15    7 1
    16   16    7 2
    17   17    1 1
    18   18    8 1
    19   19    2 1
    20   20    3 1
    21   21    5 1
    22   22    6 1
    23   23   10 1
    24   24   11 1
    25   25   12 1
    26   26   13 1
    27   27   14 1
    28   28   17 1
    29   29   17 1
    30    8   15 2
    31   16   18 1
@<TRIPOS>SUBSTRUCTURE
     1 RES1 1

@<TRIPOS>CRYSIN
   7.3480   12.6870   13.3830  90.0000 105.5600  90.0000  14 1

