# MOL2 file generated by ConQuest
# Please check atom types

@<TRIPOS>MOLECULE
APUHAV
    48    51     1
SMALL
NO_CHARGES
****
Generated from CSD

@<TRIPOS>ATOM
      1 C1        -0.2007   11.6289    5.9914 C.3       1 RES1    0.0000
      2 C2        -1.2769   10.4385    4.1775 C.3       1 RES1    0.0000
      3 C3        -1.7622   11.8731    4.2984 C.3       1 RES1    0.0000
      4 C4         1.0640   10.1662    4.4231 C.2       1 RES1    0.0000
      5 C5         0.7153    9.4798    3.0780 C.3       1 RES1    0.0000
      6 C6        -0.7419    9.9636    2.8286 C.3       1 RES1    0.0000
      7 C7         1.7800   10.0345    2.1505 C.2       1 RES1    0.0000
      8 C8         2.5973   12.0261    1.1743 C.3       1 RES1    0.0000
      9 C9         0.7879    7.9754    3.1839 C.ar      1 RES1    0.0000
     10 C10        0.8216    7.0910    2.0931 C.ar      1 RES1    0.0000
     11 C11        0.8726    5.7351    2.2415 C.ar      1 RES1    0.0000
     12 C12        0.8827    5.2097    3.5118 C.ar      1 RES1    0.0000
     13 C13        0.8535    5.9917    4.6163 C.ar      1 RES1    0.0000
     14 C14        0.8067    7.3723    4.4380 C.ar      1 RES1    0.0000
     15 C15       -0.2493   11.2464    7.4312 C.ar      1 RES1    0.0000
     16 C16       -0.4096    9.9411    7.8626 C.ar      1 RES1    0.0000
     17 C17       -0.4435    9.6418    9.2127 C.ar      1 RES1    0.0000
     18 C18       -0.3470   10.6286   10.1589 C.ar      1 RES1    0.0000
     19 C19       -0.1938   11.9361    9.7375 C.ar      1 RES1    0.0000
     20 C20       -0.1390   12.2422    8.3924 C.ar      1 RES1    0.0000
     21 N1        -0.0938   10.5240    5.0364 N.am      1 RES1    0.0000
     22 N2         0.7956    7.5827    0.7068 N.pl3     1 RES1    0.0000
     23 N3         0.9173    3.7390    3.6689 N.pl3     1 RES1    0.0000
     24 O1        -1.4586   12.2354    5.6473 O.3       1 RES1    0.0000
     25 O2         2.1828   10.3575    4.8494 O.2       1 RES1    0.0000
     26 O3         2.7577    9.4281    1.7927 O.2       1 RES1    0.0000
     27 O4         1.5514   11.3026    1.8612 O.3       1 RES1    0.0000
     28 O5         1.3527    6.9144   -0.1496 O.2       1 RES1    0.0000
     29 O6         0.2068    8.6303    0.4662 O.2       1 RES1    0.0000
     30 O7         0.9219    3.0662    2.6703 O.2       1 RES1    0.0000
     31 O8         0.9437    3.3092    4.8008 O.2       1 RES1    0.0000
     32 H1         0.5269   12.2669    5.8430 H         1 RES1    0.0000
     33 H2        -1.9343    9.8084    4.5403 H         1 RES1    0.0000
     34 H3        -1.2971   12.4492    3.6714 H         1 RES1    0.0000
     35 H4        -2.7165   11.9305    4.1314 H         1 RES1    0.0000
     36 H5        -0.7523   10.6905    2.1854 H         1 RES1    0.0000
     37 H6        -1.2860    9.2379    2.4846 H         1 RES1    0.0000
     38 H7         3.1195   11.4129    0.6520 H         1 RES1    0.0000
     39 H8         3.1618   12.4605    1.8164 H         1 RES1    0.0000
     40 H9         2.2042   12.6844    0.5959 H         1 RES1    0.0000
     41 H10        0.9001    5.1782    1.4972 H         1 RES1    0.0000
     42 H11        0.8642    5.6181    5.4690 H         1 RES1    0.0000
     43 H12        0.7872    7.9158    5.1923 H         1 RES1    0.0000
     44 H13       -0.4961    9.2581    7.2380 H         1 RES1    0.0000
     45 H14       -0.5330    8.7563    9.4820 H         1 RES1    0.0000
     46 H15       -0.3832   10.4227   11.0652 H         1 RES1    0.0000
     47 H16       -0.1278   12.6180   10.3671 H         1 RES1    0.0000
     48 H17       -0.0272   13.1266    8.1281 H         1 RES1    0.0000
@<TRIPOS>BOND
     1    1   15 1
     2    2    3 1
     3    3   24 1
     4    4    5 1
     5    5    6 1
     6    6    2 1
     7    7    5 1
     8    8   27 1
     9    9    5 1
    10   10    9 ar
    11   11   10 ar
    12   12   11 ar
    13   13   12 ar
    14   14    9 ar
    15   15   16 ar
    16   16   17 ar
    17   17   18 ar
    18   18   19 ar
    19   19   20 ar
    20   20   15 ar
    21   21    1 1
    22   22   10 1
    23   23   12 1
    24   24    1 1
    25   25    4 2
    26   26    7 2
    27   27    7 1
    28   28   22 2
    29   29   22 2
    30   30   23 2
    31   31   23 2
    32   32    1 1
    33   33    2 1
    34   34    3 1
    35   35    3 1
    36   36    6 1
    37   37    6 1
    38   38    8 1
    39   39    8 1
    40   40    8 1
    41   41   11 1
    42   42   13 1
    43   43   14 1
    44   44   16 1
    45   45   17 1
    46   46   18 1
    47   47   19 1
    48   48   20 1
    49    2   21 1
    50    4   21 1
    51   13   14 ar
@<TRIPOS>SUBSTRUCTURE
     1 RES1 1

@<TRIPOS>CRYSIN
   6.8966   11.2520   12.7990  90.0000 103.0900  90.0000   4 1

