# MOL2 file generated by ConQuest
# Please check atom types

@<TRIPOS>MOLECULE
APUTUA
    49    50     1
SMALL
NO_CHARGES
****
Generated from CSD

@<TRIPOS>ATOM
      1 C1        -0.4616    2.8234   -0.1560 C.3       1 RES1    0.0000
      2 C2        -0.9257    4.0425   -1.0372 C.3       1 RES1    0.0000
      3 H1        -1.2328    4.7156   -0.4510 H         1 RES1    0.0000
      4 C3        -2.0925    3.4549   -1.8473 C.3       1 RES1    0.0000
      5 H2        -1.9783    3.5664   -2.7909 H         1 RES1    0.0000
      6 C4        -2.1481    1.9982   -1.3832 C.3       1 RES1    0.0000
      7 H3        -2.9880    1.5570   -1.5246 H         1 RES1    0.0000
      8 C5        -0.9229    1.2827   -1.9736 C.3       1 RES1    0.0000
      9 H4        -1.0592    0.3126   -1.9143 H         1 RES1    0.0000
     10 H5        -0.7756    1.5582   -2.9058 H         1 RES1    0.0000
     11 C6         0.2289    1.7794   -1.0603 C.3       1 RES1    0.0000
     12 H6         0.5677    1.0517   -0.5286 H         1 RES1    0.0000
     13 C7         0.1225    4.6990   -1.9149 C.2       1 RES1    0.0000
     14 C8         2.3347    5.5110   -1.9587 C.3       1 RES1    0.0000
     15 H7         2.2218    6.3889   -2.3384 H         1 RES1    0.0000
     16 H8         3.0673    5.5241   -1.3350 H         1 RES1    0.0000
     17 H9         2.5214    4.8625   -2.6460 H         1 RES1    0.0000
     18 C9         0.3095    3.2241    1.0954 C.3       1 RES1    0.0000
     19 H10       -0.1891    3.9259    1.5858 H         1 RES1    0.0000
     20 H11        1.1742    3.5699    0.8108 H         1 RES1    0.0000
     21 C10        2.0460    1.4733   -2.5361 C.3       1 RES1    0.0000
     22 H12        2.2828    0.7062   -1.9905 H         1 RES1    0.0000
     23 H13        1.5491    1.1763   -3.3075 H         1 RES1    0.0000
     24 H14        2.8208    1.9354   -2.8147 H         1 RES1    0.0000
     25 C11       -2.6225    2.2826    1.0839 C.2       1 RES1    0.0000
     26 C12       -5.0171    1.9477    1.6119 C.3       1 RES1    0.0000
     27 C13       -5.1907    3.3335    2.2160 C.3       1 RES1    0.0000
     28 H15       -5.1756    4.0035    1.5141 H         1 RES1    0.0000
     29 H16       -6.0604    3.3654    2.6744 H         1 RES1    0.0000
     30 H17       -4.5198    3.5511    2.8864 H         1 RES1    0.0000
     31 C14       -6.1616    1.6182    0.6685 C.3       1 RES1    0.0000
     32 H18       -6.9847    1.5793    1.1647 H         1 RES1    0.0000
     33 H19       -6.0086    0.7427    0.2150 H         1 RES1    0.0000
     34 H20       -6.2279    2.3466   -0.0134 H         1 RES1    0.0000
     35 C15       -4.8436    0.8511    2.6480 C.3       1 RES1    0.0000
     36 H21       -5.6294    0.8508    3.2388 H         1 RES1    0.0000
     37 H22       -4.8128   -0.0294    2.1980 H         1 RES1    0.0000
     38 H23       -4.0352    0.9636    3.1671 H         1 RES1    0.0000
     39 N1        -1.7504    2.1131    0.0385 N.am      1 RES1    0.0000
     40 N2        -3.4203    4.1460   -1.5658 N.pl3     1 RES1    0.0000
     41 O1        -2.2989    2.6418    2.1992 O.2       1 RES1    0.0000
     42 O2        -3.8535    1.9263    0.6888 O.3       1 RES1    0.0000
     43 O3        -4.4316    3.5603   -1.9149 O.2       1 RES1    0.0000
     44 O4        -3.4153    5.2461   -1.0674 O.2       1 RES1    0.0000
     45 O5         0.0078    4.8751   -3.1025 O.2       1 RES1    0.0000
     46 O6         1.1656    5.1221   -1.1910 O.3       1 RES1    0.0000
     47 O7         0.5722    2.1275    1.9526 O.3       1 RES1    0.0000
     48 H24       -0.1041    2.0223    2.4638 H         1 RES1    0.0000
     49 O8         1.3031    2.3914   -1.7425 O.3       1 RES1    0.0000
@<TRIPOS>BOND
     1    1    2 1
     2    2    3 1
     3    4    2 1
     4    5    4 1
     5    6    4 1
     6    7    6 1
     7    8    6 1
     8    9    8 1
     9   10    8 1
    10   11    1 1
    11   12   11 1
    12   13    2 1
    13   14   15 1
    14   16   14 1
    15   17   14 1
    16   18    1 1
    17   19   18 1
    18   20   18 1
    19   21   22 1
    20   23   21 1
    21   24   21 1
    22   25   39 1
    23   26   27 1
    24   27   28 1
    25   29   27 1
    26   30   27 1
    27   31   26 1
    28   32   31 1
    29   33   31 1
    30   34   31 1
    31   35   26 1
    32   36   35 1
    33   37   35 1
    34   38   35 1
    35   39    1 1
    36   40    4 1
    37   41   25 2
    38   42   25 1
    39   43   40 2
    40   44   40 2
    41   45   13 2
    42   46   13 1
    43   47   18 1
    44   48   47 1
    45   49   11 1
    46    6   39 1
    47    8   11 1
    48   14   46 1
    49   21   49 1
    50   26   42 1
@<TRIPOS>SUBSTRUCTURE
     1 RES1 1

@<TRIPOS>CRYSIN
   9.8001   11.7508   14.9782  90.0000  94.4850  90.0000  14 1

