# MOL2 file generated by ConQuest
# Please check atom types

@<TRIPOS>MOLECULE
APUVAI
    49    50     1
SMALL
NO_CHARGES
****
Generated from CSD

@<TRIPOS>ATOM
      1 C1         1.1115   10.4915    2.1087 C.3       1 RES1    0.0000
      2 C2         2.2953   11.3432    2.6813 C.3       1 RES1    0.0000
      3 C3         2.6329   12.3459    1.5640 C.3       1 RES1    0.0000
      4 C4         1.6067   11.9552    0.4714 C.3       1 RES1    0.0000
      5 C5         2.0274   10.6022   -0.1357 C.3       1 RES1    0.0000
      6 C6         1.5967    9.5875    0.9585 C.3       1 RES1    0.0000
      7 C7         2.4955   13.7742    2.0695 C.2       1 RES1    0.0000
      8 C8         2.5764   16.0563    1.4942 C.3       1 RES1    0.0000
      9 C9         0.2736    9.7990    3.1741 C.3       1 RES1    0.0000
     10 C10        2.9063    7.7041    0.4454 C.3       1 RES1    0.0000
     11 C11       -0.6095   12.3128    1.6730 C.2       1 RES1    0.0000
     12 C12       -1.7865   14.3644    1.0243 C.3       1 RES1    0.0000
     13 C13       -2.9354   13.6182    0.3695 C.3       1 RES1    0.0000
     14 C14       -1.3323   15.5287    0.1614 C.3       1 RES1    0.0000
     15 C15       -2.1105   14.8272    2.4357 C.3       1 RES1    0.0000
     16 N1         0.4491   11.5337    1.2921 N.am      1 RES1    0.0000
     17 N2         3.4744   10.5299    3.1609 N.pl3     1 RES1    0.0000
     18 O1        -1.4704   11.9438    2.4517 O.2       1 RES1    0.0000
     19 O2        -0.5873   13.4860    1.0247 O.3       1 RES1    0.0000
     20 O3         3.2644    9.8272    4.1458 O.2       1 RES1    0.0000
     21 O4         4.5559   10.6239    2.5964 O.2       1 RES1    0.0000
     22 O5         2.3135   14.0709    3.2211 O.2       1 RES1    0.0000
     23 O6         2.6474   14.6576    1.0892 O.3       1 RES1    0.0000
     24 O7        -0.9093    9.2165    2.6475 O.3       1 RES1    0.0000
     25 O8         2.6152    8.7139    1.4086 O.3       1 RES1    0.0000
     26 H1         2.0079   11.7851    3.4599 H         1 RES1    0.0000
     27 H2         3.5369   12.2294    1.2419 H         1 RES1    0.0000
     28 H3         1.3999   12.6560   -0.1474 H         1 RES1    0.0000
     29 H4         3.0023   10.5634   -0.2873 H         1 RES1    0.0000
     30 H5         1.5506   10.4259   -0.9578 H         1 RES1    0.0000
     31 H6         0.8399    9.0632    0.6586 H         1 RES1    0.0000
     32 H7        -1.4228    9.8582    2.5484 H         1 RES1    0.0000
     33 H8         3.2617   16.2400    2.1448 H         1 RES1    0.0000
     34 H9         1.7037   16.2471    1.8467 H         1 RES1    0.0000
     35 H10        2.7592   16.5820    0.6963 H         1 RES1    0.0000
     36 H11        0.0881   10.4294    3.8915 H         1 RES1    0.0000
     37 H12        0.8237    9.0879    3.5439 H         1 RES1    0.0000
     38 H13        3.2822    8.1112   -0.3487 H         1 RES1    0.0000
     39 H14        2.0823    7.2192    0.1851 H         1 RES1    0.0000
     40 H15        3.5300    7.0975    0.8685 H         1 RES1    0.0000
     41 H16       -3.7029   14.2056    0.3239 H         1 RES1    0.0000
     42 H17       -3.1751   12.8129    0.8685 H         1 RES1    0.0000
     43 H18       -2.6836   13.3524   -0.5596 H         1 RES1    0.0000
     44 H19       -2.0898   16.1554    0.0441 H         1 RES1    0.0000
     45 H20       -0.6164   16.0003    0.5887 H         1 RES1    0.0000
     46 H21       -1.0178   15.2052   -0.6866 H         1 RES1    0.0000
     47 H22       -2.8124   15.4643    2.3751 H         1 RES1    0.0000
     48 H23       -1.3302   15.2792    2.8411 H         1 RES1    0.0000
     49 H24       -2.4071   14.1104    2.9810 H         1 RES1    0.0000
@<TRIPOS>BOND
     1    1    2 1
     2    2    3 1
     3    3    4 1
     4    4    5 1
     5    5    6 1
     6    6    1 1
     7    7    3 1
     8    8   23 1
     9    9    1 1
    10   10   25 1
    11   11   16 1
    12   12   13 1
    13   13   41 1
    14   14   12 1
    15   15   12 1
    16   16    1 1
    17   17    2 1
    18   18   11 2
    19   19   11 1
    20   20   17 2
    21   21   17 2
    22   22    7 2
    23   23    7 1
    24   24    9 1
    25   25    6 1
    26   26    2 1
    27   27    3 1
    28   28    4 1
    29   29    5 1
    30   30    5 1
    31   31    6 1
    32   32   24 1
    33   33    8 1
    34   34    8 1
    35   35    8 1
    36   36    9 1
    37   37    9 1
    38   38   10 1
    39   39   10 1
    40   40   10 1
    41   42   13 1
    42   43   13 1
    43   44   14 1
    44   45   14 1
    45   46   14 1
    46   47   15 1
    47   48   15 1
    48   49   15 1
    49    4   16 1
    50   12   19 1
@<TRIPOS>SUBSTRUCTURE
     1 RES1 1

@<TRIPOS>CRYSIN
   8.9977   17.6292   11.0600  90.0000 103.3340  90.0000  14 1

