# MOL2 file generated by ConQuest
# Please check atom types

@<TRIPOS>MOLECULE
APUYEP
    68    71     1
SMALL
NO_CHARGES
****
Generated from CSD

@<TRIPOS>ATOM
      1 O1         7.4778    4.2489   10.7996 O.2       1 RES1    0.0000
      2 O2        -0.3164   11.9621   16.4130 O.2       1 RES1    0.0000
      3 N1         6.2128    3.9016   10.9011 N.3       1 RES1    0.0000
      4 N2         0.9315   12.0924   16.1058 N.3       1 RES1    0.0000
      5 C1         5.9360    2.4604   11.2427 C.3       1 RES1    0.0000
      6 C2         4.5436    2.0811   10.7590 C.3       1 RES1    0.0000
      7 H1         3.8767    2.6327   11.2197 H         1 RES1    0.0000
      8 H2         4.3759    1.1360   10.9564 H         1 RES1    0.0000
      9 H3         4.4799    2.2308    9.7930 H         1 RES1    0.0000
     10 C3         6.9694    1.5884   10.5615 C.3       1 RES1    0.0000
     11 H4         6.8956    1.6935    9.5898 H         1 RES1    0.0000
     12 H5         6.8148    0.6508   10.8016 H         1 RES1    0.0000
     13 H6         7.8662    1.8558   10.8519 H         1 RES1    0.0000
     14 C4         6.0397    2.3098   12.7592 C.3       1 RES1    0.0000
     15 H7         6.9083    2.6470   13.0626 H         1 RES1    0.0000
     16 H8         5.9526    1.3639   13.0006 H         1 RES1    0.0000
     17 H9         5.3227    2.8228   13.1884 H         1 RES1    0.0000
     18 C5         5.3642    4.9316   11.4541 C.ar      1 RES1    0.0000
     19 C6         5.8035    5.6581   12.5554 C.ar      1 RES1    0.0000
     20 H10        6.6474    5.4597   12.9425 H         1 RES1    0.0000
     21 C7         5.0239    6.6638   13.0897 C.ar      1 RES1    0.0000
     22 H11        5.3239    7.1549   13.8465 H         1 RES1    0.0000
     23 C8         3.7887    6.9505   12.5021 C.ar      1 RES1    0.0000
     24 C9         2.7702    7.9411   12.8103 C.2       1 RES1    0.0000
     25 C10        2.5170    8.9930   13.7722 C.ar      1 RES1    0.0000
     26 C11        3.2122    9.4269   14.9062 C.ar      1 RES1    0.0000
     27 H12        4.0311    9.0140   15.1551 H         1 RES1    0.0000
     28 C12        2.6949   10.4620   15.6573 C.ar      1 RES1    0.0000
     29 H13        3.1591   10.7630   16.4288 H         1 RES1    0.0000
     30 C13        1.4929   11.0682   15.2926 C.ar      1 RES1    0.0000
     31 C14        0.7757   10.6318   14.1698 C.ar      1 RES1    0.0000
     32 H14       -0.0500   11.0388   13.9317 H         1 RES1    0.0000
     33 C15        1.2928    9.6043   13.4228 C.ar      1 RES1    0.0000
     34 C16        0.7058    8.9341   12.1576 C.3       1 RES1    0.0000
     35 C17        1.7551    7.8662   11.8966 C.2       1 RES1    0.0000
     36 C18        2.0006    6.7698   10.8806 C.3       1 RES1    0.0000
     37 C19        3.3561    6.2224   11.3742 C.ar      1 RES1    0.0000
     38 C20        4.1261    5.2251   10.8465 C.ar      1 RES1    0.0000
     39 H15        3.8340    4.7382   10.0853 H         1 RES1    0.0000
     40 C21        0.5764    9.9524   11.0172 C.3       1 RES1    0.0000
     41 H16        1.4529   10.3468   10.8306 H         1 RES1    0.0000
     42 H17       -0.0505   10.6596   11.2797 H         1 RES1    0.0000
     43 H18        0.2426    9.5026   10.2131 H         1 RES1    0.0000
     44 C22       -0.6813    8.3396   12.4886 C.3       1 RES1    0.0000
     45 H19       -1.0302    7.8654   11.7036 H         1 RES1    0.0000
     46 H20       -1.2978    9.0619   12.7335 H         1 RES1    0.0000
     47 H21       -0.5987    7.7140   13.2387 H         1 RES1    0.0000
     48 C23        2.1516    7.2919    9.4492 C.3       1 RES1    0.0000
     49 H22        1.3007    7.6771    9.1504 H         1 RES1    0.0000
     50 H23        2.4007    6.5520    8.8561 H         1 RES1    0.0000
     51 H24        2.8483    7.9798    9.4233 H         1 RES1    0.0000
     52 C24        0.9256    5.6640   10.9193 C.3       1 RES1    0.0000
     53 H25        0.8325    5.3311   11.8353 H         1 RES1    0.0000
     54 H26        1.1925    4.9283   10.3292 H         1 RES1    0.0000
     55 H27        0.0690    6.0315   10.6157 H         1 RES1    0.0000
     56 C25        1.4558   13.5008   16.1664 C.3       1 RES1    0.0000
     57 C26        0.7238   14.2879   15.0972 C.3       1 RES1    0.0000
     58 H28        0.9466   13.9246   14.2143 H         1 RES1    0.0000
     59 H29        0.9954   15.2288   15.1416 H         1 RES1    0.0000
     60 H30       -0.2427   14.2198   15.2442 H         1 RES1    0.0000
     61 C27        1.1408   14.0533   17.5429 C.3       1 RES1    0.0000
     62 H31        0.1749   14.0070   17.7006 H         1 RES1    0.0000
     63 H32        1.4357   14.9866   17.5961 H         1 RES1    0.0000
     64 H33        1.6095   13.5236   18.2214 H         1 RES1    0.0000
     65 C28        2.9556   13.5563   15.8926 C.3       1 RES1    0.0000
     66 H34        3.4345   13.0670   16.5934 H         1 RES1    0.0000
     67 H35        3.2524   14.4905   15.8849 H         1 RES1    0.0000
     68 H36        3.1428   13.1477   15.0215 H         1 RES1    0.0000
@<TRIPOS>BOND
     1    1    3 1
     2    2    4 1
     3    3    5 1
     4    4   30 1
     5    5    6 1
     6    6    7 1
     7    8    6 1
     8    9    6 1
     9   10    5 1
    10   11   10 1
    11   12   10 1
    12   13   10 1
    13   14    5 1
    14   15   14 1
    15   16   14 1
    16   17   14 1
    17   18    3 1
    18   19   18 ar
    19   20   19 1
    20   21   19 ar
    21   22   21 1
    22   23   21 ar
    23   24   23 1
    24   25   24 1
    25   26   25 ar
    26   27   26 1
    27   28   26 ar
    28   29   28 1
    29   30   28 ar
    30   31   30 ar
    31   32   31 1
    32   33   25 ar
    33   34   33 1
    34   35   24 2
    35   36   35 1
    36   37   23 ar
    37   38   18 ar
    38   39   38 1
    39   40   34 1
    40   41   40 1
    41   42   40 1
    42   43   40 1
    43   44   34 1
    44   45   44 1
    45   46   44 1
    46   47   44 1
    47   48   36 1
    48   49   48 1
    49   50   48 1
    50   51   48 1
    51   52   36 1
    52   53   52 1
    53   54   52 1
    54   55   52 1
    55   56    4 1
    56   57   56 1
    57   58   57 1
    58   59   57 1
    59   60   57 1
    60   61   56 1
    61   62   61 1
    62   63   61 1
    63   64   61 1
    64   65   56 1
    65   66   65 1
    66   67   65 1
    67   68   65 1
    68   31   33 ar
    69   34   35 1
    70   36   37 1
    71   37   38 ar
@<TRIPOS>SUBSTRUCTURE
     1 RES1 1

@<TRIPOS>CRYSIN
  15.0340    8.4086   19.4200  90.0000  94.5920  90.0000  13 1

