# MOL2 file generated by ConQuest
# Please check atom types

@<TRIPOS>MOLECULE
APUYIT
    71    75     1
SMALL
NO_CHARGES
****
Generated from CSD

@<TRIPOS>ATOM
      1 N1         6.6382    3.7200   17.0931 N.pl3     1 RES1    0.0000
      2 N2         9.6599    1.3621    8.2840 N.3       1 RES1    0.0000
      3 O1         7.5979    2.9004   17.4624 O.2       1 RES1    0.0000
      4 O2        10.6523    2.2016    8.3732 O.2       1 RES1    0.0000
      5 C1         6.4460    4.9587   17.9868 C.3       1 RES1    0.0000
      6 C2         4.9448    5.1561   18.2853 C.3       1 RES1    0.0000
      7 H1         4.5060    5.5529   17.5047 H         1 RES1    0.0000
      8 H2         4.8408    5.7522   19.0565 H         1 RES1    0.0000
      9 H3         4.5350    4.2875   18.4864 H         1 RES1    0.0000
     10 C3         7.0685    6.1845   17.2658 C.3       1 RES1    0.0000
     11 H4         8.0064    5.9970   17.0529 H         1 RES1    0.0000
     12 H5         7.0165    6.9702   17.8501 H         1 RES1    0.0000
     13 H6         6.5753    6.3622   16.4379 H         1 RES1    0.0000
     14 C4         7.1966    4.7100   19.3048 C.3       1 RES1    0.0000
     15 H7         6.8400    3.9046   19.7354 H         1 RES1    0.0000
     16 H8         7.0769    5.4798   19.8986 H         1 RES1    0.0000
     17 H9         8.1503    4.5856   19.1180 H         1 RES1    0.0000
     18 C5         6.0918    3.4971   15.7954 C.ar      1 RES1    0.0000
     19 C6         6.4629    2.3015   15.1077 C.ar      1 RES1    0.0000
     20 H10        6.9355    1.6187   15.5674 H         1 RES1    0.0000
     21 C7         6.1329    2.1351   13.7641 C.ar      1 RES1    0.0000
     22 H11        6.4146    1.3463   13.3154 H         1 RES1    0.0000
     23 C8         5.3896    3.1065   13.0417 C.ar      1 RES1    0.0000
     24 C9         4.9291    4.2204   13.8029 C.ar      1 RES1    0.0000
     25 H12        4.3707    4.8600   13.3769 H         1 RES1    0.0000
     26 C10        5.2542    4.4115   15.1276 C.ar      1 RES1    0.0000
     27 H13        4.9122    5.1660   15.5934 H         1 RES1    0.0000
     28 C11        5.0959    2.9671   11.5377 C.3       1 RES1    0.0000
     29 C12        6.2937    2.3941   10.7339 C.ar      1 RES1    0.0000
     30 C13        7.6184    2.8272   11.0242 C.ar      1 RES1    0.0000
     31 H14        7.7707    3.3795   11.7826 H         1 RES1    0.0000
     32 C14        8.6966    2.4594   10.2213 C.ar      1 RES1    0.0000
     33 H15        9.5705    2.7537   10.4460 H         1 RES1    0.0000
     34 C15        8.5056    1.6562    9.0816 C.ar      1 RES1    0.0000
     35 C16        7.2063    1.2095    8.7777 C.ar      1 RES1    0.0000
     36 H16        7.0624    0.6494    8.0238 H         1 RES1    0.0000
     37 C17        6.1233    1.5910    9.5860 C.ar      1 RES1    0.0000
     38 H17        5.2494    1.2989    9.3532 H         1 RES1    0.0000
     39 C18        9.8763    0.1105    7.4378 C.3       1 RES1    0.0000
     40 C19        9.1910    0.2665    6.0912 C.3       1 RES1    0.0000
     41 H18        8.2228    0.3336    6.2236 H         1 RES1    0.0000
     42 H19        9.3916   -0.5113    5.5305 H         1 RES1    0.0000
     43 H20        9.5173    1.0778    5.6512 H         1 RES1    0.0000
     44 C20        9.3771   -1.1350    8.2272 C.3       1 RES1    0.0000
     45 H21        9.8074   -1.1587    9.1072 H         1 RES1    0.0000
     46 H22        9.6043   -1.9483    7.7305 H         1 RES1    0.0000
     47 H23        8.4053   -1.0818    8.3384 H         1 RES1    0.0000
     48 C21       11.4005   -0.0415    7.2100 C.3       1 RES1    0.0000
     49 H24       11.7389    0.7422    6.7298 H         1 RES1    0.0000
     50 H25       11.5721   -0.8488    6.6802 H         1 RES1    0.0000
     51 H26       11.8537   -0.1184    8.0758 H         1 RES1    0.0000
     52 C22        4.7284    4.3389   10.8740 C.ar      1 RES1    0.0000
     53 C23        5.5129    5.4897   10.7969 C.ar      1 RES1    0.0000
     54 H27        6.3831    5.5134   11.1770 H         1 RES1    0.0000
     55 C24        4.9786    6.6228   10.1409 C.ar      1 RES1    0.0000
     56 H28        5.4863    7.4242   10.0960 H         1 RES1    0.0000
     57 C25        3.7155    6.5714    9.5611 C.ar      1 RES1    0.0000
     58 H29        3.3819    7.3354    9.1072 H         1 RES1    0.0000
     59 C26        2.9275    5.4186    9.6335 C.ar      1 RES1    0.0000
     60 H30        2.0608    5.3949    9.2444 H         1 RES1    0.0000
     61 C27        3.4496    4.2875   10.3006 C.ar      1 RES1    0.0000
     62 C28        2.8404    2.9511   10.5920 C.ar      1 RES1    0.0000
     63 C29        1.5810    2.4280   10.2663 C.ar      1 RES1    0.0000
     64 H31        0.9512    2.9452    9.7790 H         1 RES1    0.0000
     65 C30        1.2691    1.1232   10.6755 C.ar      1 RES1    0.0000
     66 H32        0.4122    0.7620   10.4815 H         1 RES1    0.0000
     67 C31        2.2095    0.3455   11.3691 C.ar      1 RES1    0.0000
     68 H33        1.9895   -0.5448   11.6193 H         1 RES1    0.0000
     69 C32        3.4702    0.8686   11.6960 C.ar      1 RES1    0.0000
     70 H34        4.0963    0.3455   12.1823 H         1 RES1    0.0000
     71 C33        3.7929    2.1734   11.2960 C.ar      1 RES1    0.0000
@<TRIPOS>BOND
     1    1    3 1
     2    2    4 1
     3    5    1 1
     4    6    5 1
     5    7    6 1
     6    8    6 1
     7    9    6 1
     8   10    5 1
     9   11   10 1
    10   12   10 1
    11   13   10 1
    12   14    5 1
    13   15   14 1
    14   16   14 1
    15   17   14 1
    16   18    1 1
    17   19   18 ar
    18   20   19 1
    19   21   19 ar
    20   22   21 1
    21   23   21 ar
    22   24   23 ar
    23   25   24 1
    24   26   18 ar
    25   27   26 1
    26   28   23 1
    27   29   28 1
    28   30   29 ar
    29   31   30 1
    30   32   30 ar
    31   33   32 1
    32   34    2 1
    33   35   34 ar
    34   36   35 1
    35   37   29 ar
    36   38   37 1
    37   39    2 1
    38   40   39 1
    39   41   40 1
    40   42   40 1
    41   43   40 1
    42   44   39 1
    43   45   44 1
    44   46   44 1
    45   47   44 1
    46   48   39 1
    47   49   48 1
    48   50   48 1
    49   51   48 1
    50   52   28 1
    51   53   52 ar
    52   54   53 1
    53   55   53 ar
    54   56   55 1
    55   57   55 ar
    56   58   57 1
    57   59   57 ar
    58   60   59 1
    59   61   52 ar
    60   62   61 1
    61   63   62 ar
    62   64   63 1
    63   65   63 ar
    64   66   65 1
    65   67   65 ar
    66   68   67 1
    67   69   67 ar
    68   70   69 1
    69   71   28 1
    70   24   26 ar
    71   32   34 ar
    72   35   37 ar
    73   59   61 ar
    74   62   71 ar
    75   69   71 ar
@<TRIPOS>SUBSTRUCTURE
     1 RES1 1

@<TRIPOS>CRYSIN
  12.0870   19.7400   23.6550  90.0000  90.0000  90.0000  61 1

