# MOL2 file generated by ConQuest
# Please check atom types

@<TRIPOS>MOLECULE
APUYAL
    78    79     1
SMALL
NO_CHARGES
****
Generated from CSD

@<TRIPOS>ATOM
      1 O1         6.3961    5.6702    6.6081 O.2       1 RES1    0.0000
      2 O2        -0.4173    8.6061   -1.1582 O.2       1 RES1    0.0000
      3 N1         5.1116    5.7609    6.5803 N.pl3     1 RES1    0.0000
      4 N2         0.8558    8.4337   -1.1104 N.3       1 RES1    0.0000
      5 C1         4.3228    4.7238    7.3491 C.3       1 RES1    0.0000
      6 C2         3.2939    5.4126    8.2225 C.3       1 RES1    0.0000
      7 H1         3.7245    6.1312    8.7301 H         1 RES1    0.0000
      8 H2         2.9045    4.7620    8.8439 H         1 RES1    0.0000
      9 H3         2.5868    5.7895    7.6587 H         1 RES1    0.0000
     10 C3         5.3119    3.9758    8.2285 C.3       1 RES1    0.0000
     11 H4         5.9712    3.5208    7.6638 H         1 RES1    0.0000
     12 H5         4.8325    3.3145    8.7697 H         1 RES1    0.0000
     13 H6         5.7694    4.6102    8.8181 H         1 RES1    0.0000
     14 C4         3.7004    3.7422    6.3671 C.3       1 RES1    0.0000
     15 H7         3.0861    4.2210    5.7712 H         1 RES1    0.0000
     16 H8         3.2077    3.0544    6.8616 H         1 RES1    0.0000
     17 H9         4.4076    3.3194    5.8367 H         1 RES1    0.0000
     18 C5         4.5703    6.8877    5.9056 C.ar      1 RES1    0.0000
     19 C6         5.4314    7.9541    5.6369 C.ar      1 RES1    0.0000
     20 H10        6.3381    7.9147    5.9161 H         1 RES1    0.0000
     21 C7         4.9641    9.0646    4.9649 C.ar      1 RES1    0.0000
     22 H11        5.5629    9.7808    4.7895 H         1 RES1    0.0000
     23 C8         3.6509    9.1707    4.5370 C.ar      1 RES1    0.0000
     24 C9         2.8283    8.0648    4.7524 C.ar      1 RES1    0.0000
     25 H12        1.9436    8.0765    4.4047 H         1 RES1    0.0000
     26 C10        3.2559    6.9495    5.4539 C.ar      1 RES1    0.0000
     27 H13        2.6566    6.2332    5.6262 H         1 RES1    0.0000
     28 C11        3.1829   10.3580    3.7412 C.2       1 RES1    0.0000
     29 C12        2.6404    9.8987    2.4332 C.ar      1 RES1    0.0000
     30 C13        1.3367   10.2175    2.0598 C.ar      1 RES1    0.0000
     31 H14        0.8149   10.7700    2.6294 H         1 RES1    0.0000
     32 C14        0.7853    9.7543    0.8925 C.ar      1 RES1    0.0000
     33 H15       -0.1042    9.9975    0.6642 H         1 RES1    0.0000
     34 C15        1.5194    8.9273    0.0357 C.ar      1 RES1    0.0000
     35 C16        2.8166    8.5755    0.4054 C.ar      1 RES1    0.0000
     36 H16        3.3317    8.0082   -0.1570 H         1 RES1    0.0000
     37 C17        3.3530    9.0454    1.5818 C.ar      1 RES1    0.0000
     38 H17        4.2331    8.7828    1.8237 H         1 RES1    0.0000
     39 C18        1.4831    7.6749   -2.2508 C.3       1 RES1    0.0000
     40 C19        1.7700    6.2468   -1.8202 C.3       1 RES1    0.0000
     41 H18        2.3974    6.2518   -1.0662 H         1 RES1    0.0000
     42 H19        2.1640    5.7517   -2.5690 H         1 RES1    0.0000
     43 H20        0.9347    5.8141   -1.5459 H         1 RES1    0.0000
     44 C20        0.4649    7.6561   -3.3832 C.3       1 RES1    0.0000
     45 H21       -0.3235    7.1451   -3.1056 H         1 RES1    0.0000
     46 H22        0.8641    7.2383   -4.1752 H         1 RES1    0.0000
     47 H23        0.1994    8.5749   -3.5973 H         1 RES1    0.0000
     48 C21        2.7429    8.3835   -2.7565 C.3       1 RES1    0.0000
     49 H24        2.5327    9.3197   -2.9555 H         1 RES1    0.0000
     50 H25        3.0631    7.9406   -3.5697 H         1 RES1    0.0000
     51 H26        3.4388    8.3459   -2.0669 H         1 RES1    0.0000
     52 C22        3.2483   11.6543    4.1544 C.2       1 RES1    0.0000
     53 C23        3.3449   12.8076    3.1009 C.3       1 RES1    0.0000
     54 C24        3.9305   12.3493    1.7414 C.3       1 RES1    0.0000
     55 H27        3.2710   11.7971    1.2716 H         1 RES1    0.0000
     56 H28        4.7441   11.8254    1.8961 H         1 RES1    0.0000
     57 H29        4.1456   13.1343    1.1974 H         1 RES1    0.0000
     58 C25        2.0276   13.5156    2.7726 C.3       1 RES1    0.0000
     59 H30        1.3950   12.8697    2.3947 H         1 RES1    0.0000
     60 H31        2.1939   14.2304    2.1221 H         1 RES1    0.0000
     61 H32        1.6504   13.9006    3.5904 H         1 RES1    0.0000
     62 C26        4.3656   13.8904    3.5415 C.3       1 RES1    0.0000
     63 H33        4.4013   14.5988    2.8657 H         1 RES1    0.0000
     64 H34        5.2520   13.4835    3.6370 H         1 RES1    0.0000
     65 H35        4.0870   14.2714    4.4013 H         1 RES1    0.0000
     66 C27        3.2039   12.0138    5.6766 C.3       1 RES1    0.0000
     67 C28        2.5732   10.8869    6.5388 C.3       1 RES1    0.0000
     68 H36        3.2026   10.1386    6.6097 H         1 RES1    0.0000
     69 H37        1.7441   10.5787    6.1179 H         1 RES1    0.0000
     70 H38        2.3757   11.2331    7.4344 H         1 RES1    0.0000
     71 C29        2.2689   13.2191    5.9492 C.3       1 RES1    0.0000
     72 H39        2.2372   13.3971    6.9133 H         1 RES1    0.0000
     73 H40        1.3670   13.0134    5.6245 H         1 RES1    0.0000
     74 H41        2.6110   14.0107    5.4830 H         1 RES1    0.0000
     75 C30        4.5808   12.3055    6.3084 C.3       1 RES1    0.0000
     76 H42        4.4707   12.4781    7.2670 H         1 RES1    0.0000
     77 H43        4.9780   13.0902    5.8781 H         1 RES1    0.0000
     78 H44        5.1684   11.5314    6.1818 H         1 RES1    0.0000
@<TRIPOS>BOND
     1    1    3 1
     2    2    4 1
     3    3    5 1
     4    4   34 1
     5    5    6 1
     6    6    7 1
     7    8    6 1
     8    9    6 1
     9   10    5 1
    10   11   10 1
    11   12   10 1
    12   13   10 1
    13   14    5 1
    14   15   14 1
    15   16   14 1
    16   17   14 1
    17   18    3 1
    18   19   18 ar
    19   20   19 1
    20   21   19 ar
    21   22   21 1
    22   23   21 ar
    23   24   23 ar
    24   25   24 1
    25   26   18 ar
    26   27   26 1
    27   28   23 1
    28   29   28 1
    29   30   29 ar
    30   31   30 1
    31   32   30 ar
    32   33   32 1
    33   34   32 ar
    34   35   34 ar
    35   36   35 1
    36   37   29 ar
    37   38   37 1
    38   39    4 1
    39   40   39 1
    40   41   40 1
    41   42   40 1
    42   43   40 1
    43   44   39 1
    44   45   44 1
    45   46   44 1
    46   47   44 1
    47   48   39 1
    48   49   48 1
    49   50   48 1
    50   51   48 1
    51   52   28 2
    52   53   52 1
    53   54   53 1
    54   55   54 1
    55   56   54 1
    56   57   54 1
    57   58   53 1
    58   59   58 1
    59   60   58 1
    60   61   58 1
    61   62   53 1
    62   63   62 1
    63   64   62 1
    64   65   62 1
    65   66   52 1
    66   67   66 1
    67   68   67 1
    68   69   67 1
    69   70   67 1
    70   71   66 1
    71   72   71 1
    72   73   71 1
    73   74   71 1
    74   75   66 1
    75   76   75 1
    76   77   75 1
    77   78   75 1
    78   24   26 ar
    79   35   37 ar
@<TRIPOS>SUBSTRUCTURE
     1 RES1 1

@<TRIPOS>CRYSIN
   6.1904   12.7300   17.5280  85.8580  80.3070  83.1990   2 1

