# MOL2 file generated by ConQuest
# Please check atom types

@<TRIPOS>MOLECULE
APUZUH
    34    34     1
SMALL
NO_CHARGES
****
Generated from CSD

@<TRIPOS>ATOM
      1 O1        10.2699    7.5618    1.7094 O.3       1 RES1    0.0000
      2 O2         8.3758    5.7419    0.7062 O.3       1 RES1    0.0000
      3 O3         6.4443    5.0243   -1.1774 O.3       1 RES1    0.0000
      4 H1         6.0294    5.5515   -1.5510 H         1 RES1    0.0000
      5 O4        15.8486    9.5334    1.5726 O.2       1 RES1    0.0000
      6 O5        15.2941    7.4806    1.4346 O.2       1 RES1    0.0000
      7 N1         9.6357   10.0593    1.6610 N.pl3     1 RES1    0.0000
      8 H2         9.0751    9.3590    1.7147 H         1 RES1    0.0000
      9 N2        14.9899    8.6561    1.5550 N.pl3     1 RES1    0.0000
     10 C1         9.1287   11.4079    1.5838 C.3       1 RES1    0.0000
     11 H3         8.1491   11.3906    1.6086 H         1 RES1    0.0000
     12 H4         9.4268   11.8219    0.7467 H         1 RES1    0.0000
     13 H5         9.4648   11.9284    2.3429 H         1 RES1    0.0000
     14 C2        10.9430    9.7704    1.6538 C.ar      1 RES1    0.0000
     15 C3        11.9443   10.7250    1.6479 C.ar      1 RES1    0.0000
     16 H6        11.7094   11.6449    1.6584 H         1 RES1    0.0000
     17 C4        13.2716   10.3722    1.6263 C.ar      1 RES1    0.0000
     18 H7        13.9464   11.0405    1.6211 H         1 RES1    0.0000
     19 C5        13.6084    9.0369    1.6119 C.ar      1 RES1    0.0000
     20 C6        12.6448    8.0317    1.6276 C.ar      1 RES1    0.0000
     21 H8        12.8941    7.1158    1.6204 H         1 RES1    0.0000
     22 C7        11.3290    8.4005    1.6531 C.ar      1 RES1    0.0000
     23 C8        10.5278    6.1613    1.7297 C.3       1 RES1    0.0000
     24 H9        11.0934    5.9243    2.5065 H         1 RES1    0.0000
     25 H10       10.9925    5.8830    0.9012 H         1 RES1    0.0000
     26 C9         9.1893    5.4916    1.8325 C.3       1 RES1    0.0000
     27 H11        9.3216    4.5144    1.9260 H         1 RES1    0.0000
     28 H12        8.7255    5.8138    2.6453 H         1 RES1    0.0000
     29 C10        8.6772    4.8832   -0.3691 C.3       1 RES1    0.0000
     30 H13        8.5312    3.9420   -0.1014 H         1 RES1    0.0000
     31 H14        9.6255    4.9897   -0.6322 H         1 RES1    0.0000
     32 C11        7.7913    5.2320   -1.5105 C.3       1 RES1    0.0000
     33 H15        7.9279    6.1812   -1.7565 H         1 RES1    0.0000
     34 H16        8.0280    4.6742   -2.2938 H         1 RES1    0.0000
@<TRIPOS>BOND
     1    1   22 1
     2    2   26 1
     3    3    4 1
     4    5    9 2
     5    6    9 2
     6    7    8 1
     7    9   19 1
     8   10    7 1
     9   11   10 1
    10   12   10 1
    11   13   10 1
    12   14    7 1
    13   15   14 ar
    14   16   15 1
    15   17   15 ar
    16   18   17 1
    17   19   17 ar
    18   20   19 ar
    19   21   20 1
    20   22   14 ar
    21   23    1 1
    22   24   23 1
    23   25   23 1
    24   26   23 1
    25   27   26 1
    26   28   26 1
    27   29    2 1
    28   30   29 1
    29   31   29 1
    30   32    3 1
    31   33   32 1
    32   34   32 1
    33   20   22 ar
    34   29   32 1
@<TRIPOS>SUBSTRUCTURE
     1 RES1 1

@<TRIPOS>CRYSIN
  13.8300   13.3130    6.7310  90.0000 103.5190  90.0000  14 1

