# MOL2 file generated by ConQuest
# Please check atom types

@<TRIPOS>MOLECULE
APYRCX
    15    15     1
SMALL
NO_CHARGES
****
Generated from CSD

@<TRIPOS>ATOM
      1 C1         2.9374    1.0221    5.9971 C.ar      1 RES1    0.0000
      2 C2         2.2745    1.1477    4.7863 C.ar      1 RES1    0.0000
      3 C3         1.1541   -0.8144    5.0793 C.ar      1 RES1    0.0000
      4 C4         1.7670   -1.0297    6.3046 C.ar      1 RES1    0.0000
      5 C5         2.6795   -0.0913    6.7865 C.ar      1 RES1    0.0000
      6 C6         3.2951   -0.3789    8.0954 C.2       1 RES1    0.0000
      7 H1         3.5503    1.7017    6.2598 H         1 RES1    0.0000
      8 H2         2.4788    1.8919    4.2499 H         1 RES1    0.0000
      9 H3         0.5448   -1.4679    4.7221 H         1 RES1    0.0000
     10 H4         1.5436   -1.8213    6.8168 H         1 RES1    0.0000
     11 H5         3.1235   -1.2504    8.4514 H         1 RES1    0.0000
     12 H6         4.8669    1.9191    8.9841 H         1 RES1    0.0000
     13 N1         1.3929    0.2561    4.3298 N.ar      1 RES1    0.0000
     14 N2         4.0560    0.3137    8.8546 N.2       1 RES1    0.0000
     15 O1         4.3520    1.5647    8.3654 O.3       1 RES1    0.0000
@<TRIPOS>BOND
     1    1    2 ar
     2    2    8 1
     3    3    4 ar
     4    4    5 ar
     5    5    1 ar
     6    6    5 1
     7    7    1 1
     8    9    3 1
     9   10    4 1
    10   11    6 1
    11   12   15 1
    12   13    2 ar
    13   14    6 2
    14   15   14 1
    15    3   13 ar
@<TRIPOS>SUBSTRUCTURE
     1 RES1 1

@<TRIPOS>CRYSIN
   9.0800    5.4366   12.1080  90.0000  90.0000  90.0000 231 1

