# MOL2 file generated by ConQuest
# Please check atom types

@<TRIPOS>MOLECULE
AQADUS
    31    33     1
SMALL
NO_CHARGES
****
Generated from CSD

@<TRIPOS>ATOM
      1 O1         8.4754   -0.9224   -0.1158 O.2       1 RES1    0.0000
      2 O2         7.7992    2.1545    3.2208 O.3       1 RES1    0.0000
      3 O3         7.4894    1.9002    5.7842 O.3       1 RES1    0.0000
      4 H1         7.3887    1.7191    6.5990 H         1 RES1    0.0000
      5 N1         7.5809    0.7062    5.0469 N.2       1 RES1    0.0000
      6 C1         8.2841    0.2637    0.1872 C.2       1 RES1    0.0000
      7 C2         8.4548    1.3851   -0.8068 C.3       1 RES1    0.0000
      8 H2         9.4225    1.5690   -0.9124 H         1 RES1    0.0000
      9 H3         8.1098    1.0841   -1.6844 H         1 RES1    0.0000
     10 C3         7.7665    2.6538   -0.4335 C.3       1 RES1    0.0000
     11 H4         6.7894    2.5273   -0.5381 H         1 RES1    0.0000
     12 H5         8.0471    3.3635   -1.0645 H         1 RES1    0.0000
     13 C4         8.0484    3.1250    0.9881 C.3       1 RES1    0.0000
     14 H6         8.9585    3.5087    1.0478 H         1 RES1    0.0000
     15 H7         7.3958    3.8205    1.2550 H         1 RES1    0.0000
     16 C5         7.9313    1.9519    1.8701 C.2       1 RES1    0.0000
     17 C6         7.9764    0.6588    1.5369 C.2       1 RES1    0.0000
     18 C7         7.8376   -0.2019    2.7624 C.3       1 RES1    0.0000
     19 H8         8.6797   -0.7206    2.9077 H         1 RES1    0.0000
     20 C8         7.7253    0.9059    3.8165 C.2       1 RES1    0.0000
     21 C9         6.6404   -1.1458    2.8081 C.ar      1 RES1    0.0000
     22 C10        5.5896   -1.0424    1.9105 C.ar      1 RES1    0.0000
     23 H9         5.6087   -0.3736    1.2366 H         1 RES1    0.0000
     24 C11        4.5131   -1.9095    1.9916 C.ar      1 RES1    0.0000
     25 H10        3.8057   -1.8441    1.3619 H         1 RES1    0.0000
     26 C12        4.4630   -2.8679    2.9840 C.ar      1 RES1    0.0000
     27 H11        3.7133   -3.4483    3.0530 H         1 RES1    0.0000
     28 C13        5.5090   -2.9742    3.8750 C.ar      1 RES1    0.0000
     29 H12        5.4784   -3.6351    4.5570 H         1 RES1    0.0000
     30 C14        6.5936   -2.1358    3.7906 C.ar      1 RES1    0.0000
     31 H13        7.3133   -2.2306    4.4033 H         1 RES1    0.0000
@<TRIPOS>BOND
     1    1    6 2
     2    2   16 1
     3    3    4 1
     4    5    3 1
     5    6    7 1
     6    7    8 1
     7    9    7 1
     8   10    7 1
     9   11   10 1
    10   12   10 1
    11   13   10 1
    12   14   13 1
    13   15   13 1
    14   16   13 1
    15   17    6 1
    16   18   17 1
    17   19   18 1
    18   20    2 1
    19   21   18 1
    20   22   21 ar
    21   23   22 1
    22   24   22 ar
    23   25   24 1
    24   26   24 ar
    25   27   26 1
    26   28   26 ar
    27   29   28 1
    28   30   21 ar
    29   31   30 1
    30    5   20 2
    31   16   17 2
    32   18   20 1
    33   28   30 ar
@<TRIPOS>SUBSTRUCTURE
     1 RES1 1

@<TRIPOS>CRYSIN
  20.1880    7.1840   17.0270  90.0000 101.0620  90.0000  15 1

