# MOL2 file generated by ConQuest
# Please check atom types

@<TRIPOS>MOLECULE
AQEKOY
    63    62     2
SMALL
NO_CHARGES
****
Generated from CSD

@<TRIPOS>ATOM
      1 C1        -1.7540   11.8977   -1.4623 C.ar      1 RES1    0.0000
      2 C2        -1.7866   11.7286   -0.1065 C.ar      1 RES1    0.0000
      3 H1        -2.4795   12.0778    0.4062 H         1 RES1    0.0000
      4 C3        -0.7576   11.0224    0.4704 C.ar      1 RES1    0.0000
      5 C4         0.3104   10.4913   -0.2564 C.ar      1 RES1    0.0000
      6 C5         0.2656   10.6851   -1.6423 C.ar      1 RES1    0.0000
      7 H2         0.9460   10.3341   -2.1701 H         1 RES1    0.0000
      8 C6        -0.7451   11.3734   -2.2380 C.ar      1 RES1    0.0000
      9 H3        -0.7554   11.4878   -3.1607 H         1 RES1    0.0000
     10 C7         3.2586    8.6348    0.1980 C.ar      1 RES1    0.0000
     11 C8         3.4926    8.2984    1.5684 C.ar      1 RES1    0.0000
     12 C9         4.5529    7.4769    1.8881 C.ar      1 RES1    0.0000
     13 H4         4.7086    7.2694    2.7817 H         1 RES1    0.0000
     14 C10        5.4054    6.9441    0.9103 C.ar      1 RES1    0.0000
     15 C11        5.1894    7.3044   -0.4413 C.ar      1 RES1    0.0000
     16 H5         5.7566    6.9885   -1.1069 H         1 RES1    0.0000
     17 C12        4.1530    8.1114   -0.7564 C.ar      1 RES1    0.0000
     18 H6         4.0231    8.3334   -1.6506 H         1 RES1    0.0000
     19 C13        2.5984    8.5486    3.8799 C.2       1 RES1    0.0000
     20 C14        1.6625    9.4162    4.6493 C.3       1 RES1    0.0000
     21 H7         0.7580    9.1412    4.4791 H         1 RES1    0.0000
     22 H8         1.7764   10.3299    4.3764 H         1 RES1    0.0000
     23 H9         1.8497    9.3368    5.5875 H         1 RES1    0.0000
     24 C15        7.3069    5.5095    0.2522 C.3       1 RES1    0.0000
     25 H10        8.1487    5.2567    0.6614 H         1 RES1    0.0000
     26 H11        7.4918    6.1585   -0.4440 H         1 RES1    0.0000
     27 C16        6.6484    4.2969   -0.3443 C.3       1 RES1    0.0000
     28 H12        6.5040    3.6411    0.3564 H         1 RES1    0.0000
     29 H13        5.7793    4.5505   -0.6947 H         1 RES1    0.0000
     30 C17        7.4498    3.6616   -1.4452 C.2       1 RES1    0.0000
     31 C18        7.4109    2.0101   -3.1094 C.3       1 RES1    0.0000
     32 H14        7.5311    2.6540   -3.8116 H         1 RES1    0.0000
     33 H15        6.8433    1.3014   -3.4190 H         1 RES1    0.0000
     34 H16        8.2646    1.6498   -2.8557 H         1 RES1    0.0000
     35 C19        6.5540    5.5454    2.6458 C.3       1 RES1    0.0000
     36 H17        5.6816    5.5249    3.0701 H         1 RES1    0.0000
     37 H18        6.8825    4.6351    2.5944 H         1 RES1    0.0000
     38 C20        7.4749    6.3523    3.4628 C.3       1 RES1    0.0000
     39 H19        7.1137    7.2464    3.5654 H         1 RES1    0.0000
     40 H20        8.3276    6.4249    3.0067 H         1 RES1    0.0000
     41 C21        7.6835    5.7477    4.8038 C.2       1 RES1    0.0000
     42 C22        8.9559    5.3139    6.6854 C.3       1 RES1    0.0000
     43 H21        8.5457    5.8587    7.3604 H         1 RES1    0.0000
     44 H22        9.8858    5.1927    6.8953 H         1 RES1    0.0000
     45 H23        8.5209    4.4592    6.6552 H         1 RES1    0.0000
     46 N1        -2.8245   12.6807   -2.0991 N.pl3     1 RES1    0.0000
     47 N2         1.3327    9.8235    0.4325 N.2       1 RES1    0.0000
     48 N3         2.2376    9.3658   -0.3460 N.2       1 RES1    0.0000
     49 N4         2.6526    8.8312    2.5351 N.am      1 RES1    0.0000
     50 H24        2.0895    9.4170    2.2562 H         1 RES1    0.0000
     51 N5         6.4227    6.1072    1.2638 N.3       1 RES1    0.0000
     52 N6        -0.8379   10.8140    1.9238 N.pl3     1 RES1    0.0000
     53 O1        -2.8009   12.8011   -3.3066 O.2       1 RES1    0.0000
     54 O2        -3.6954   13.1452   -1.3939 O.2       1 RES1    0.0000
     55 O3         3.2635    7.6767    4.3858 O.2       1 RES1    0.0000
     56 O4         8.5354    4.0382   -1.8073 O.2       1 RES1    0.0000
     57 O5         6.8037    2.6497   -1.9715 O.3       1 RES1    0.0000
     58 O6         6.8618    5.1090    5.4108 O.2       1 RES1    0.0000
     59 O7         8.8249    6.0065    5.3172 O.3       1 RES1    0.0000
     60 O8        -1.8370   10.7961    2.4177 O.2       1 RES1    0.0000
     61 O9         0.2050   11.2051    2.5567 O.2       1 RES1    0.0000
     62 O10       -1.1688   11.6253    2.6428 Du        2 SUP2    0.0000
     63 O11       -0.7325    9.5665    2.3468 Du        2 SUP2    0.0000
@<TRIPOS>BOND
     1    1    2 ar
     2    2    3 1
     3    4    2 ar
     4    5    4 ar
     5    6    5 ar
     6    7    6 1
     7    8    1 ar
     8    9    8 1
     9   10   11 ar
    10   11   12 ar
    11   12   13 1
    12   14   12 ar
    13   15   14 ar
    14   16   15 1
    15   17   10 ar
    16   18   17 1
    17   19   20 1
    18   20   21 1
    19   22   20 1
    20   23   20 1
    21   24   25 1
    22   26   24 1
    23   27   24 1
    24   28   27 1
    25   29   27 1
    26   30   27 1
    27   31   32 1
    28   33   31 1
    29   34   31 1
    30   35   36 1
    31   37   35 1
    32   38   35 1
    33   39   38 1
    34   40   38 1
    35   41   38 1
    36   42   43 1
    37   44   42 1
    38   45   42 1
    39   46    1 1
    40   47    5 1
    41   48   10 1
    42   49   11 1
    43   50   49 1
    44   51   14 1
    45   52    4 1
    46   53   46 2
    47   54   46 2
    48   55   19 2
    49   56   30 2
    50   57   30 1
    51   58   41 2
    52   59   41 1
    53   60   52 2
    54   61   52 2
    55    6    8 ar
    56   15   17 ar
    57   19   49 1
    58   24   51 1
    59   31   57 1
    60   35   51 1
    61   42   59 1
    62   47   48 2
@<TRIPOS>SUBSTRUCTURE
     1 RES1 1
     2 SUP2 62

@<TRIPOS>CRYSIN
  18.9400    8.5392   15.6460  90.0000 105.1610  90.0000  14 1

