# MOL2 file generated by ConQuest
# Please check atom types

@<TRIPOS>MOLECULE
AQIJOZ
    35    37     1
SMALL
NO_CHARGES
****
Generated from CSD

@<TRIPOS>ATOM
      1 O1         5.7050    6.6842   -0.9546 O.2       1 RES1    0.0000
      2 N1         6.8396    6.6009   -0.4021 N.pl3     1 RES1    0.0000
      3 C1         7.3991    7.5817    0.5340 C.3       1 RES1    0.0000
      4 C2         7.9360    8.7175   -0.3090 C.3       1 RES1    0.0000
      5 H1         7.1406    9.1330   -0.7499 H         1 RES1    0.0000
      6 H2         8.7169    8.4686   -0.8976 H         1 RES1    0.0000
      7 H3         8.3381    9.4916    0.2613 H         1 RES1    0.0000
      8 C3         6.3163    8.0678    1.4906 C.3       1 RES1    0.0000
      9 H4         5.6813    8.4264    0.9998 H         1 RES1    0.0000
     10 H5         6.7730    8.5108    2.1814 H         1 RES1    0.0000
     11 H6         5.9542    7.2874    2.0564 H         1 RES1    0.0000
     12 C4         8.5013    6.7253    1.1600 C.3       1 RES1    0.0000
     13 C5         9.7824    7.4593    1.4736 C.3       1 RES1    0.0000
     14 H7        10.4826    6.8550    1.9087 H         1 RES1    0.0000
     15 H8         9.6471    8.1100    2.1360 H         1 RES1    0.0000
     16 H9        10.1929    7.9307    0.7044 H         1 RES1    0.0000
     17 C6         8.0234    5.9713    2.3984 C.3       1 RES1    0.0000
     18 H10        8.7503    5.2520    2.6472 H         1 RES1    0.0000
     19 H11        7.1239    5.4840    2.1928 H         1 RES1    0.0000
     20 H12        7.8647    6.6336    3.0903 H         1 RES1    0.0000
     21 N2         8.8048    5.6918    0.1424 N.2       1 RES1    0.0000
     22 C7         7.8083    5.6601   -0.6235 C.2       1 RES1    0.0000
     23 N3         7.6898    4.7173   -1.6338 N.pl3     1 RES1    0.0000
     24 C8         8.2143    3.4792   -1.6789 C.ar      1 RES1    0.0000
     25 C9         8.7969    2.6534   -0.7471 C.ar      1 RES1    0.0000
     26 H13        8.8729    2.9951    0.1250 H         1 RES1    0.0000
     27 C10        9.1775    1.4385   -1.1736 C.ar      1 RES1    0.0000
     28 H14        9.5691    0.8121   -0.5908 H         1 RES1    0.0000
     29 C11        8.9776    1.0114   -2.4927 C.ar      1 RES1    0.0000
     30 H15        9.2739    0.1898   -2.7381 H         1 RES1    0.0000
     31 C12        8.3866    1.8055   -3.3914 C.ar      1 RES1    0.0000
     32 H16        8.1989    1.4870   -4.2265 H         1 RES1    0.0000
     33 C13        8.0125    3.0700   -2.9851 C.ar      1 RES1    0.0000
     34 N4         7.4035    4.0824   -3.6515 N.2       1 RES1    0.0000
     35 N5         7.2168    5.0727   -2.8754 N.2       1 RES1    0.0000
@<TRIPOS>BOND
     1    1    2 1
     2    2    3 1
     3    3    4 1
     4    4    5 1
     5    6    4 1
     6    7    4 1
     7    8    3 1
     8    9    8 1
     9   10    8 1
    10   11    8 1
    11   12    3 1
    12   13   12 1
    13   14   13 1
    14   15   13 1
    15   16   13 1
    16   17   12 1
    17   18   17 1
    18   19   17 1
    19   20   17 1
    20   21   12 1
    21   22    2 1
    22   23   22 1
    23   24   23 1
    24   25   24 ar
    25   26   25 1
    26   27   25 ar
    27   28   27 1
    28   29   27 ar
    29   30   29 1
    30   31   29 ar
    31   32   31 1
    32   33   24 ar
    33   34   33 1
    34   35   23 1
    35   21   22 2
    36   31   33 ar
    37   34   35 2
@<TRIPOS>SUBSTRUCTURE
     1 RES1 1

@<TRIPOS>CRYSIN
  11.1398   10.5462   12.6534  90.0000 116.1160  90.0000 231 1

