# MOL2 file generated by ConQuest
# Please check atom types

@<TRIPOS>MOLECULE
AQIKOA
    31    32     1
SMALL
NO_CHARGES
****
Generated from CSD

@<TRIPOS>ATOM
      1 O1        -1.6695    8.6114    0.9101 O.2       1 RES1    0.0000
      2 N1        -1.2635    7.4603    1.2780 N.pl3     1 RES1    0.0000
      3 C1        -1.8579    6.1953    0.7606 C.3       1 RES1    0.0000
      4 C2        -3.1878    6.0551    1.5000 C.3       1 RES1    0.0000
      5 H1        -3.0360    5.8998    2.5773 H         1 RES1    0.0000
      6 H2        -3.7997    6.8418    1.2742 H         1 RES1    0.0000
      7 H3        -3.5954    5.2553    1.2259 H         1 RES1    0.0000
      8 C3        -2.0994    6.3063   -0.7259 C.3       1 RES1    0.0000
      9 H4        -2.6824    6.9574   -0.9556 H         1 RES1    0.0000
     10 H5        -1.2246    6.6038   -1.1294 H         1 RES1    0.0000
     11 H6        -2.3833    5.4040   -1.0811 H         1 RES1    0.0000
     12 C4        -0.7852    5.1748    1.1825 C.3       1 RES1    0.0000
     13 C5         0.2911    4.9499    0.1207 C.3       1 RES1    0.0000
     14 H7        -0.1022    4.4819   -0.6274 H         1 RES1    0.0000
     15 H8         0.6028    5.8568   -0.2317 H         1 RES1    0.0000
     16 H9         0.9993    4.4637    0.5792 H         1 RES1    0.0000
     17 C6        -1.3198    3.8481    1.6506 C.3       1 RES1    0.0000
     18 H10       -1.8311    4.0439    2.5001 H         1 RES1    0.0000
     19 H11       -1.8181    3.3746    0.8784 H         1 RES1    0.0000
     20 H12       -0.5446    3.2441    1.7954 H         1 RES1    0.0000
     21 N2        -0.1159    5.9077    2.3040 N.pl3     1 RES1    0.0000
     22 O2         0.6919    5.3468    3.1157 O.2       1 RES1    0.0000
     23 C7        -0.3763    7.2103    2.2404 C.2       1 RES1    0.0000
     24 N3         0.1690    8.1782    3.0537 N.pl3     1 RES1    0.0000
     25 C8         1.3872    8.1748    3.6893 C.2       1 RES1    0.0000
     26 H13        1.9578    7.4648    3.5908 H         1 RES1    0.0000
     27 N4         1.5358    9.2689    4.3891 N.2       1 RES1    0.0000
     28 C9         0.3898    9.9903    4.2154 C.2       1 RES1    0.0000
     29 H14        0.2731   10.7022    4.5851 H         1 RES1    0.0000
     30 C10       -0.4425    9.3569    3.4287 C.2       1 RES1    0.0000
     31 H15       -1.2361    9.5768    3.0889 H         1 RES1    0.0000
@<TRIPOS>BOND
     1    1    2 1
     2    2    3 1
     3    3    4 1
     4    4    5 1
     5    6    4 1
     6    7    4 1
     7    8    3 1
     8    9    8 1
     9   10    8 1
    10   11    8 1
    11   12    3 1
    12   13   12 1
    13   14   13 1
    14   15   13 1
    15   16   13 1
    16   17   12 1
    17   18   17 1
    18   19   17 1
    19   20   17 1
    20   21   12 1
    21   22   21 1
    22   23    2 2
    23   24   23 1
    24   25   24 1
    25   26   25 1
    26   27   25 2
    27   28   27 1
    28   29   28 1
    29   30   24 1
    30   31   30 1
    31   21   23 1
    32   28   30 2
@<TRIPOS>SUBSTRUCTURE
     1 RES1 1

@<TRIPOS>CRYSIN
   7.0699   16.5260    9.7341  90.0000  97.4120  90.0000 231 1

