# MOL2 file generated by ConQuest
# Please check atom types

@<TRIPOS>MOLECULE
AQURUB
    20    21     1
SMALL
NO_CHARGES
****
Generated from CSD

@<TRIPOS>ATOM
      1 O1         2.7024    6.0875    4.2968 O.2       1 RES1    0.0000
      2 O2         1.1107    4.6667    4.6695 O.2       1 RES1    0.0000
      3 N1         0.0414    8.9999    3.4896 N.pl3     1 RES1    0.0000
      4 N2        -2.0201    9.8837    3.3235 N.2       1 RES1    0.0000
      5 N3         1.5115    5.7848    4.3527 N.pl3     1 RES1    0.0000
      6 C1        -1.3475    8.7730    3.5874 C.2       1 RES1    0.0000
      7 C2         0.9680    8.0365    3.7273 C.2       1 RES1    0.0000
      8 H1         1.8775    8.2150    3.6642 H         1 RES1    0.0000
      9 C3        -1.0631   10.8371    3.0477 C.2       1 RES1    0.0000
     10 C4         0.5121    6.8018    4.0612 C.2       1 RES1    0.0000
     11 C5        -0.8687    6.4867    4.1730 C.2       1 RES1    0.0000
     12 H2        -1.1423    5.6282    4.4041 H         1 RES1    0.0000
     13 C6        -1.7822    7.4707    3.9323 C.2       1 RES1    0.0000
     14 H3        -2.6929    7.2868    3.9961 H         1 RES1    0.0000
     15 C7         0.2005   10.3274    3.1437 C.2       1 RES1    0.0000
     16 H4         1.0013   10.7807    3.0058 H         1 RES1    0.0000
     17 C8        -1.4446   12.2385    2.7041 C.3       1 RES1    0.0000
     18 H5        -2.0270   12.2330    1.9415 H         1 RES1    0.0000
     19 H6        -0.6550   12.7445    2.4990 H         1 RES1    0.0000
     20 H7        -1.8969   12.6393    3.4502 H         1 RES1    0.0000
@<TRIPOS>BOND
     1    1    5 2
     2    2    5 2
     3    3    6 1
     4    4    6 2
     5    5   10 1
     6    6   13 1
     7    7    3 1
     8    8    7 1
     9    9    4 1
    10   10    7 2
    11   11   10 1
    12   12   11 1
    13   13   11 2
    14   14   13 1
    15   15    3 1
    16   16   15 1
    17   17    9 1
    18   18   17 1
    19   19   17 1
    20   20   17 1
    21    9   15 2
@<TRIPOS>SUBSTRUCTURE
     1 RES1 1

@<TRIPOS>CRYSIN
  24.3040   24.3040    6.8579  90.0000  90.0000 120.0000 233 1

