# MOL2 file generated by ConQuest
# Please check atom types

@<TRIPOS>MOLECULE
ARAGUW
    70    75     1
SMALL
NO_CHARGES
****
Generated from CSD

@<TRIPOS>ATOM
      1 N1        -2.5209   15.0678    1.3068 N.3       1 RES1    0.0000
      2 O1        -7.5885   10.1314    3.8598 O.3       1 RES1    0.0000
      3 O2        -3.1061   14.2670    2.3295 O.3       1 RES1    0.0000
      4 O3         1.6542   13.2088    1.1459 O.3       1 RES1    0.0000
      5 O4         4.8187   18.3835   -0.4448 O.3       1 RES1    0.0000
      6 C1        -4.2433   11.4894    3.6819 C.ar      1 RES1    0.0000
      7 H1        -3.4620   11.4814    4.2232 H         1 RES1    0.0000
      8 C2        -5.3812   10.8410    4.1224 C.ar      1 RES1    0.0000
      9 H2        -5.3743   10.4008    4.9647 H         1 RES1    0.0000
     10 C3        -6.5272   10.8256    3.3526 C.ar      1 RES1    0.0000
     11 C4        -6.5307   11.4832    2.1368 C.ar      1 RES1    0.0000
     12 H3        -7.3125   11.4864    1.5971 H         1 RES1    0.0000
     13 C5        -5.3838   12.1393    1.7106 C.ar      1 RES1    0.0000
     14 H4        -5.3965   12.5945    0.8762 H         1 RES1    0.0000
     15 C6        -4.2217   12.1515    2.4622 C.ar      1 RES1    0.0000
     16 C7        -3.0015   12.8696    1.9288 C.3       1 RES1    0.0000
     17 H5        -3.0126   12.8211    0.9297 H         1 RES1    0.0000
     18 C8        -1.6782   12.3221    2.4276 C.3       1 RES1    0.0000
     19 H6        -1.6556   12.4077    3.4140 H         1 RES1    0.0000
     20 H7        -1.6380   11.3569    2.2125 H         1 RES1    0.0000
     21 C9        -0.4499   12.9866    1.8634 C.2       1 RES1    0.0000
     22 C10       -0.2041   14.3816    1.5735 C.2       1 RES1    0.0000
     23 C11       -1.1855   15.5260    1.7208 C.3       1 RES1    0.0000
     24 H8        -0.9081   16.2274    1.0637 H         1 RES1    0.0000
     25 C12       -1.1448   16.1828    3.1083 C.ar      1 RES1    0.0000
     26 C13       -0.0416   16.0297    3.9443 C.ar      1 RES1    0.0000
     27 H9         0.6792   15.4754    3.6685 H         1 RES1    0.0000
     28 C14        0.0235   16.6716    5.1711 C.ar      1 RES1    0.0000
     29 H10        0.7812   16.5486    5.7305 H         1 RES1    0.0000
     30 C15       -1.0108   17.4916    5.5847 C.ar      1 RES1    0.0000
     31 H11       -0.9659   17.9405    6.4215 H         1 RES1    0.0000
     32 C16       -2.1104   17.6479    4.7645 C.ar      1 RES1    0.0000
     33 H12       -2.8267   18.2094    5.0403 H         1 RES1    0.0000
     34 C17       -2.1825   16.9971    3.5433 C.ar      1 RES1    0.0000
     35 H13       -2.9514   17.1089    2.9964 H         1 RES1    0.0000
     36 C18       -4.8095   15.9503    1.1543 C.ar      1 RES1    0.0000
     37 H14       -5.0976   15.3484    1.8319 H         1 RES1    0.0000
     38 C19       -5.7203   16.8051    0.5555 C.ar      1 RES1    0.0000
     39 H15       -6.6262   16.7976    0.8423 H         1 RES1    0.0000
     40 C20       -5.3369   17.6691   -0.4515 C.ar      1 RES1    0.0000
     41 H16       -5.9685   18.2543   -0.8533 H         1 RES1    0.0000
     42 C21       -4.0200   17.6664   -0.8612 C.ar      1 RES1    0.0000
     43 H17       -3.7461   18.2493   -1.5593 H         1 RES1    0.0000
     44 C22       -3.0916   16.8277   -0.2703 C.ar      1 RES1    0.0000
     45 H18       -2.1907   16.8350   -0.5705 H         1 RES1    0.0000
     46 C23       -3.4717   15.9707    0.7635 C.ar      1 RES1    0.0000
     47 C24        0.6968   12.3335    1.5908 C.2       1 RES1    0.0000
     48 C25        1.0852   14.4657    1.1456 C.2       1 RES1    0.0000
     49 C26        2.0022   15.5297    0.7272 C.ar      1 RES1    0.0000
     50 C27        1.7680   16.8830    0.9747 C.ar      1 RES1    0.0000
     51 H19        0.9680   17.1412    1.4175 H         1 RES1    0.0000
     52 C28        2.6746   17.8593    0.5894 C.ar      1 RES1    0.0000
     53 H20        2.4865   18.7747    0.7619 H         1 RES1    0.0000
     54 C29        3.8526   17.5030   -0.0457 C.ar      1 RES1    0.0000
     55 C30        4.1070   16.1607   -0.3073 C.ar      1 RES1    0.0000
     56 H21        4.9083   15.9062   -0.7493 H         1 RES1    0.0000
     57 C31        3.1983   15.1985    0.0756 C.ar      1 RES1    0.0000
     58 H22        3.3878   14.2852   -0.1072 H         1 RES1    0.0000
     59 C32       -8.7779   10.1015    3.0760 C.3       1 RES1    0.0000
     60 H23       -9.4616    9.5741    3.5401 H         1 RES1    0.0000
     61 H24       -8.5860    9.6936    2.2062 H         1 RES1    0.0000
     62 H25       -9.1038   11.0158    2.9429 H         1 RES1    0.0000
     63 C33        4.6781   19.7473   -0.0449 C.3       1 RES1    0.0000
     64 H26        5.4348   20.2687   -0.3877 H         1 RES1    0.0000
     65 H27        4.6614   19.8006    0.9337 H         1 RES1    0.0000
     66 H28        3.8420   20.1093   -0.4058 H         1 RES1    0.0000
     67 C34        1.1448   10.9242    1.7571 C.3       1 RES1    0.0000
     68 H29        0.3963   10.3784    2.0777 H         1 RES1    0.0000
     69 H30        1.8764   10.8888    2.4079 H         1 RES1    0.0000
     70 H31        1.4560   10.5776    0.8951 H         1 RES1    0.0000
@<TRIPOS>BOND
     1    1    3 1
     2    2   10 1
     3    3   16 1
     4    4   47 1
     5    5   54 1
     6    6    7 1
     7    8    6 ar
     8    9    8 1
     9   10    8 ar
    10   11   10 ar
    11   12   11 1
    12   13   11 ar
    13   14   13 1
    14   15    6 ar
    15   16   15 1
    16   17   16 1
    17   18   16 1
    18   19   18 1
    19   20   18 1
    20   21   18 1
    21   22   21 1
    22   23    1 1
    23   24   23 1
    24   25   23 1
    25   26   25 ar
    26   27   26 1
    27   28   26 ar
    28   29   28 1
    29   30   28 ar
    30   31   30 1
    31   32   30 ar
    32   33   32 1
    33   34   25 ar
    34   35   34 1
    35   36   37 1
    36   38   36 ar
    37   39   38 1
    38   40   38 ar
    39   41   40 1
    40   42   40 ar
    41   43   42 1
    42   44   42 ar
    43   45   44 1
    44   46    1 1
    45   47   21 2
    46   48    4 1
    47   49   48 1
    48   50   49 ar
    49   51   50 1
    50   52   50 ar
    51   53   52 1
    52   54   52 ar
    53   55   54 ar
    54   56   55 1
    55   57   49 ar
    56   58   57 1
    57   59    2 1
    58   60   59 1
    59   61   59 1
    60   62   59 1
    61   63    5 1
    62   64   63 1
    63   65   63 1
    64   66   63 1
    65   67   47 1
    66   68   67 1
    67   69   67 1
    68   70   67 1
    69   13   15 ar
    70   22   23 1
    71   22   48 2
    72   32   34 ar
    73   36   46 ar
    74   44   46 ar
    75   55   57 ar
@<TRIPOS>SUBSTRUCTURE
     1 RES1 1

@<TRIPOS>CRYSIN
  13.3634   24.9001    7.9690  90.0000  98.6120  90.0000  14 1

