# MOL2 file generated by ConQuest
# Please check atom types

@<TRIPOS>MOLECULE
AREJIS
    36    38     1
SMALL
USER_CHARGES
****
Generated from CSD

@<TRIPOS>ATOM
      1 O1         6.2899    8.6245    9.0678 O.3       1 RES1    0.0000
      2 O2         5.9783    7.0453   10.6755 O.2       1 RES1   -1.0000
      3 N1         5.6798    7.4149    9.5399 N.pl3     1 RES1    1.0000
      4 N2         5.8141    8.8480    7.7850 N.2       1 RES1    0.0000
      5 C1         3.8022    3.3205    8.7055 C.ar      1 RES1    0.0000
      6 C2         4.0968    5.7267    8.8022 C.ar      1 RES1    0.0000
      7 C3         5.0056    7.8689    7.4929 C.2       1 RES1    0.0000
      8 C4         2.0648    4.7554    9.6507 C.ar      1 RES1    0.0000
      9 C5         1.7538    2.3001    9.5685 C.ar      1 RES1    0.0000
     10 C6         2.8253    5.8614    9.4176 C.ar      1 RES1    0.0000
     11 C7         4.2729    2.0213    8.4086 C.ar      1 RES1    0.0000
     12 C8         4.5700    4.4915    8.4639 C.ar      1 RES1    0.0000
     13 C9         4.9011    6.9536    8.5760 C.2       1 RES1    0.0000
     14 C10        2.5234    3.4643    9.3085 C.ar      1 RES1    0.0000
     15 C11        2.2476    1.0629    9.2810 C.ar      1 RES1    0.0000
     16 C12        3.5118    0.9328    8.7005 C.ar      1 RES1    0.0000
     17 C13        4.3130    7.8194    6.1446 C.3       1 RES1    0.0000
     18 C14        4.7613    6.5515    5.4190 C.3       1 RES1    0.0000
     19 C15        2.8004    7.8198    6.3493 C.3       1 RES1    0.0000
     20 C16        4.7073    9.0469    5.3206 C.3       1 RES1    0.0000
     21 H1         1.2271    4.8530   10.0419 H         1 RES1    0.0000
     22 H2         0.9045    2.3820    9.9378 H         1 RES1    0.0000
     23 H3         2.5119    6.7020    9.6602 H         1 RES1    0.0000
     24 H4         5.1070    1.9105    8.0122 H         1 RES1    0.0000
     25 H5         5.4083    4.4154    8.0686 H         1 RES1    0.0000
     26 H6         1.7428    0.3052    9.4716 H         1 RES1    0.0000
     27 H7         3.8398    0.0837    8.5110 H         1 RES1    0.0000
     28 H8         4.3464    6.5134    4.5536 H         1 RES1    0.0000
     29 H9         4.5044    5.7812    5.9306 H         1 RES1    0.0000
     30 H10        5.7157    6.5632    5.3147 H         1 RES1    0.0000
     31 H11        2.5435    7.0357    6.8391 H         1 RES1    0.0000
     32 H12        2.3612    7.8220    5.4947 H         1 RES1    0.0000
     33 H13        2.5441    8.6029    6.8435 H         1 RES1    0.0000
     34 H14        4.2900    9.0002    4.4582 H         1 RES1    0.0000
     35 H15        5.6610    9.0670    5.2150 H         1 RES1    0.0000
     36 H16        4.4187    9.8426    5.7744 H         1 RES1    0.0000
@<TRIPOS>BOND
     1    1    3 1
     2    2    3 1
     3    3   13 2
     4    4    1 1
     5    5   11 ar
     6    6   10 ar
     7    7    4 2
     8    8   10 ar
     9    9   14 ar
    10   10   23 1
    11   11   16 ar
    12   12    5 ar
    13   13    6 1
    14   14    5 ar
    15   15    9 ar
    16   16   15 ar
    17   17    7 1
    18   18   17 1
    19   19   17 1
    20   20   17 1
    21   21    8 1
    22   22    9 1
    23   24   11 1
    24   25   12 1
    25   26   15 1
    26   27   16 1
    27   28   18 1
    28   29   18 1
    29   30   18 1
    30   31   19 1
    31   32   19 1
    32   33   19 1
    33   34   20 1
    34   35   20 1
    35   36   20 1
    36    6   12 ar
    37    7   13 1
    38    8   14 ar
@<TRIPOS>SUBSTRUCTURE
     1 RES1 1

@<TRIPOS>CRYSIN
   6.0747   10.5960   21.6840  90.0000  90.0000  90.0000  19 1

