# MOL2 file generated by ConQuest
# Please check atom types

@<TRIPOS>MOLECULE
AREWUR
    53    55     1
SMALL
NO_CHARGES
****
Generated from CSD

@<TRIPOS>ATOM
      1 O1        25.4462    1.8970    5.6679 O.3       1 RES1    0.0000
      2 C1        21.6001    5.9862    5.2695 C.2       1 RES1    0.0000
      3 H1        21.8310    6.7913    5.6750 H         1 RES1    0.0000
      4 N1        18.4513    7.2346    3.8930 N.2       1 RES1    0.0000
      5 C2        22.5453    4.8850    5.4373 C.ar      1 RES1    0.0000
      6 C3        19.5767    7.1446    4.4909 C.2       1 RES1    0.0000
      7 C4        20.0301    8.3883    5.2061 C.ar      1 RES1    0.0000
      8 C5        20.4432    5.9727    4.6026 C.2       1 RES1    0.0000
      9 H2        20.1758    5.1824    4.1908 H         1 RES1    0.0000
     10 C6        24.4622    2.8927    5.6003 C.ar      1 RES1    0.0000
     11 O2        21.1810    8.3481    2.6352 O.2       1 RES1    0.0000
     12 C7        23.8446    5.1669    5.8416 C.ar      1 RES1    0.0000
     13 H3        24.0708    6.0402    6.0662 H         1 RES1    0.0000
     14 C8        17.8530    6.1379    3.2189 C.ar      1 RES1    0.0000
     15 C9        23.1754    2.5677    5.2518 C.ar      1 RES1    0.0000
     16 H4        22.9510    1.6842    5.0696 H         1 RES1    0.0000
     17 C10       24.8115    4.1750    5.9168 C.ar      1 RES1    0.0000
     18 H5        25.6804    4.3792    6.1784 H         1 RES1    0.0000
     19 C11       22.2162    3.5572    5.1725 C.ar      1 RES1    0.0000
     20 H6        21.3429    3.3359    4.9401 H         1 RES1    0.0000
     21 C12       20.6830    9.4510    4.6055 C.ar      1 RES1    0.0000
     22 O3        25.6972    1.9923    3.4512 O.2       1 RES1    0.0000
     23 C13       17.3402    5.0312    3.9024 C.ar      1 RES1    0.0000
     24 C14       19.7857    8.4911    6.5627 C.ar      1 RES1    0.0000
     25 H7        19.3262    7.8078    6.9939 H         1 RES1    0.0000
     26 C15       17.6539    6.2836    1.8295 C.ar      1 RES1    0.0000
     27 N2        21.0055    9.4189    3.1702 N.pl3     1 RES1    0.0000
     28 C16       26.0282    1.5370    4.4992 C.2       1 RES1    0.0000
     29 C17       17.4455    4.9147    5.3995 C.3       1 RES1    0.0000
     30 H8        17.0465    4.0894    5.6851 H         1 RES1    0.0000
     31 H9        16.9856    5.6507    5.8102 H         1 RES1    0.0000
     32 H10       18.3693    4.9309    5.6578 H         1 RES1    0.0000
     33 C18       16.6631    4.0674    3.1726 C.ar      1 RES1    0.0000
     34 H11       16.3132    3.3278    3.6141 H         1 RES1    0.0000
     35 C19       20.2107    9.5871    7.2934 C.ar      1 RES1    0.0000
     36 H12       20.0501    9.6288    8.2091 H         1 RES1    0.0000
     37 C20       16.9874    5.2833    1.1547 C.ar      1 RES1    0.0000
     38 H13       16.8675    5.3575    0.2359 H         1 RES1    0.0000
     39 C21       16.4949    4.1763    1.8092 C.ar      1 RES1    0.0000
     40 H14       16.0535    3.5087    1.3361 H         1 RES1    0.0000
     41 C22       18.1675    7.4949    1.1075 C.3       1 RES1    0.0000
     42 H15       17.9393    7.4334    0.1769 H         1 RES1    0.0000
     43 H16       19.1211    7.5424    1.2009 H         1 RES1    0.0000
     44 H17       17.7705    8.2842    1.4828 H         1 RES1    0.0000
     45 O4        21.1006   10.4864    2.5784 O.2       1 RES1    0.0000
     46 C23       21.0774   10.5642    5.3080 C.ar      1 RES1    0.0000
     47 H18       21.4815   11.2782    4.8697 H         1 RES1    0.0000
     48 C24       20.8698   10.6117    6.6578 C.ar      1 RES1    0.0000
     49 H19       21.1759   11.3397    7.1477 H         1 RES1    0.0000
     50 C25       27.1158    0.5541    4.7214 C.3       1 RES1    0.0000
     51 H20       27.5161    0.3234    3.8802 H         1 RES1    0.0000
     52 H21       26.7543   -0.2365    5.1300 H         1 RES1    0.0000
     53 H22       27.7801    0.9366    5.2982 H         1 RES1    0.0000
@<TRIPOS>BOND
     1    1   10 1
     2    2    3 1
     3    4    6 2
     4    5    2 1
     5    6    7 1
     6    7   21 ar
     7    8    2 2
     8    9    8 1
     9   10   15 ar
    10   11   27 2
    11   12    5 ar
    12   13   12 1
    13   14    4 1
    14   15   16 1
    15   17   10 ar
    16   18   17 1
    17   19    5 ar
    18   20   19 1
    19   21   27 1
    20   22   28 2
    21   23   14 ar
    22   24    7 ar
    23   25   24 1
    24   26   14 ar
    25   27   45 2
    26   28    1 1
    27   29   23 1
    28   30   29 1
    29   31   29 1
    30   32   29 1
    31   33   23 ar
    32   34   33 1
    33   35   24 ar
    34   36   35 1
    35   37   26 ar
    36   38   37 1
    37   39   33 ar
    38   40   39 1
    39   41   26 1
    40   42   41 1
    41   43   41 1
    42   44   41 1
    43   46   21 ar
    44   47   46 1
    45   48   35 ar
    46   49   48 1
    47   50   28 1
    48   51   50 1
    49   52   50 1
    50   53   50 1
    51    6    8 1
    52   12   17 ar
    53   15   19 ar
    54   37   39 ar
    55   46   48 ar
@<TRIPOS>SUBSTRUCTURE
     1 RES1 1

@<TRIPOS>CRYSIN
  25.6920   11.5912   18.7420  90.0000 129.8830  90.0000  15 1

