# MOL2 file generated by ConQuest
# Please check atom types

@<TRIPOS>MOLECULE
ARIXIK
    37    39     1
SMALL
USER_CHARGES
****
Generated from CSD

@<TRIPOS>ATOM
      1 C1        -3.6145   -1.3152   13.3000 C.ar      1 RES1    0.0000
      2 H1        -4.3916   -1.1540   13.8218 H         1 RES1    0.0000
      3 C2        -2.6207   -2.1222   13.8157 C.ar      1 RES1    0.0000
      4 H2        -2.7112   -2.5039   14.6806 H         1 RES1    0.0000
      5 C3        -1.4800   -2.3707   13.0489 C.ar      1 RES1    0.0000
      6 C4        -1.3890   -1.7668   11.8006 C.ar      1 RES1    0.0000
      7 H3        -0.6119   -1.9112   11.2726 H         1 RES1    0.0000
      8 C5        -2.3985   -0.9612   11.3053 C.ar      1 RES1    0.0000
      9 C6        -0.3555   -3.5706   14.7767 C.3       1 RES1    0.0000
     10 H4         0.4622   -4.0935   14.9125 H         1 RES1    0.0000
     11 H5        -1.1347   -4.1151   15.0170 H         1 RES1    0.0000
     12 H6        -0.3296   -2.7703   15.3426 H         1 RES1    0.0000
     13 C7        -2.2295   -0.2667   10.0220 C.2       1 RES1    0.0000
     14 C8        -1.1486    0.5000    9.6398 C.2       1 RES1    0.0000
     15 H7        -0.4180    0.7560   10.1900 H         1 RES1    0.0000
     16 C9        -1.3306    0.8347    8.2745 C.2       1 RES1    0.0000
     17 H8        -0.7489    1.3646    7.7425 H         1 RES1    0.0000
     18 C10       -2.5033    0.2508    7.8648 C.2       1 RES1    0.0000
     19 H9        -2.8685    0.2958    6.9896 H         1 RES1    0.0000
     20 C11       -4.2284   -1.2744    8.8551 C.3       1 RES1    0.0000
     21 H10       -4.7219   -1.0763    8.0206 H         1 RES1    0.0000
     22 H11       -4.8280   -1.0691    9.6161 H         1 RES1    0.0000
     23 C12       -3.8873   -2.7497    8.8842 C.ar      1 RES1    0.0000
     24 C13       -4.8510   -3.6498    9.3285 C.ar      1 RES1    0.0000
     25 H12       -5.7002   -3.3269    9.6066 H         1 RES1    0.0000
     26 C14       -4.5899   -5.0129    9.3716 C.ar      1 RES1    0.0000
     27 H13       -5.2589   -5.6152    9.6758 H         1 RES1    0.0000
     28 C15       -3.3499   -5.4974    8.9696 C.ar      1 RES1    0.0000
     29 H14       -3.1654   -6.4288    9.0029 H         1 RES1    0.0000
     30 C16       -2.3852   -4.6088    8.5188 C.ar      1 RES1    0.0000
     31 H15       -1.5379   -4.9359    8.2404 H         1 RES1    0.0000
     32 C17       -2.6465   -3.2422    8.4711 C.ar      1 RES1    0.0000
     33 H16       -1.9798   -2.6431    8.1577 H         1 RES1    0.0000
     34 N1        -3.5205   -0.7445   12.0748 N.pl3     1 RES1    1.0000
     35 N2        -3.0590   -0.4085    8.9295 N.3       1 RES1    0.0000
     36 O1        -0.4499   -3.1803   13.3992 O.3       1 RES1    0.0000
     37 O2        -4.4859    0.0474   11.6423 O.2       1 RES1   -1.0000
@<TRIPOS>BOND
     1    1    2 1
     2    3    1 ar
     3    4    3 1
     4    5    3 ar
     5    6    5 ar
     6    7    6 1
     7    8    6 ar
     8    9   10 1
     9   11    9 1
    10   12    9 1
    11   13    8 1
    12   14   13 2
    13   15   14 1
    14   16   14 1
    15   17   16 1
    16   18   16 2
    17   19   18 1
    18   20   21 1
    19   22   20 1
    20   23   20 1
    21   24   23 ar
    22   25   24 1
    23   26   24 ar
    24   27   26 1
    25   28   26 ar
    26   29   28 1
    27   30   28 ar
    28   31   30 1
    29   32   23 ar
    30   33   32 1
    31   34    1 ar
    32   35   13 1
    33   36    5 1
    34   37   34 1
    35    8   34 ar
    36    9   36 1
    37   18   35 1
    38   20   35 1
    39   30   32 ar
@<TRIPOS>SUBSTRUCTURE
     1 RES1 1

@<TRIPOS>CRYSIN
   5.9622    8.7942   14.4090 107.4240  97.1650  95.5410   2 1

