# MOL2 file generated by ConQuest
# Please check atom types

@<TRIPOS>MOLECULE
AROBAL
    58    60     1
SMALL
NO_CHARGES
****
Generated from CSD

@<TRIPOS>ATOM
      1 O1         0.8798    5.1865    9.5283 O.3       1 RES1    0.0000
      2 O2         1.0203    6.7140   11.1816 O.2       1 RES1    0.0000
      3 O3        -3.7205    1.4856   11.3673 O.2       1 RES1    0.0000
      4 O4        -2.6476    1.8855    9.5643 O.2       1 RES1    0.0000
      5 O5        -3.0989    4.2507   15.2250 O.2       1 RES1    0.0000
      6 O6        -1.8873    6.0231   15.0878 O.2       1 RES1    0.0000
      7 N1        -2.9025    2.1157   10.7223 N.pl3     1 RES1    0.0000
      8 N2        -2.3410    4.9991   14.6226 N.pl3     1 RES1    0.0000
      9 C1         0.5369    5.7265   10.6912 C.2       1 RES1    0.0000
     10 C2        -0.5525    4.9384   11.3552 C.ar      1 RES1    0.0000
     11 C3        -1.1875    3.8764   10.7189 C.ar      1 RES1    0.0000
     12 C4        -2.2008    3.2244   11.3909 C.ar      1 RES1    0.0000
     13 C5        -2.5978    3.5564   12.6718 C.ar      1 RES1    0.0000
     14 C6        -1.9387    4.6167   13.2602 C.ar      1 RES1    0.0000
     15 C7        -0.9401    5.3217   12.6354 C.ar      1 RES1    0.0000
     16 C8         1.8090    5.9117    8.6655 C.3       1 RES1    0.0000
     17 C9         2.8065    4.8477    8.1714 C.3       1 RES1    0.0000
     18 C10        3.7695    5.4371    7.1330 C.3       1 RES1    0.0000
     19 C11        3.6307    4.3628    9.3772 C.3       1 RES1    0.0000
     20 C12        2.0766    3.6579    7.5525 C.3       1 RES1    0.0000
     21 C13        1.0243    6.6670    7.5524 C.3       1 RES1    0.0000
     22 C14       -0.4174    7.0382    7.9341 C.2       1 RES1    0.0000
     23 C15       -1.3810    6.1352    7.9780 C.2       1 RES1    0.0000
     24 C16       -0.6833    8.5042    8.1300 C.3       1 RES1    0.0000
     25 C17        0.5428    9.1724    8.7966 C.3       1 RES1    0.0000
     26 C18        1.1497    9.2362    7.3738 C.3       1 RES1    0.0000
     27 C19        1.8385    7.9086    7.0749 C.3       1 RES1    0.0000
     28 C20       -0.3054    9.2730    6.8155 C.3       1 RES1    0.0000
     29 C21       -0.8579   10.6886    6.7870 C.3       1 RES1    0.0000
     30 C22       -0.6149    8.5903    5.4901 C.3       1 RES1    0.0000
     31 H1        -0.9207    3.6067    9.8400 H         1 RES1    0.0000
     32 H2         0.9683    6.0105    6.8070 H         1 RES1    0.0000
     33 H3        -3.3264    3.0362   13.1067 H         1 RES1    0.0000
     34 H4         2.7643    7.9289    7.5658 H         1 RES1    0.0000
     35 H5         2.2794    6.5955    9.2581 H         1 RES1    0.0000
     36 H6        -1.5725    8.6541    8.4893 H         1 RES1    0.0000
     37 H7        -0.5227    6.0434   13.0777 H         1 RES1    0.0000
     38 H8         1.7666   10.0175    7.1542 H         1 RES1    0.0000
     39 H9         2.7473    3.0265    7.1875 H         1 RES1    0.0000
     40 H10        1.0651    8.5961    9.5240 H         1 RES1    0.0000
     41 H11        1.9820    7.8129    6.0682 H         1 RES1    0.0000
     42 H12        0.3434   10.0852    9.1569 H         1 RES1    0.0000
     43 H13       -1.1931    5.2311    7.8162 H         1 RES1    0.0000
     44 H14        1.5585    3.8774    6.8092 H         1 RES1    0.0000
     45 H15       -2.2966    6.3721    8.1911 H         1 RES1    0.0000
     46 H16       -1.8488   10.7040    6.6312 H         1 RES1    0.0000
     47 H17        1.5627    3.1909    8.2111 H         1 RES1    0.0000
     48 H18        4.2610    6.1787    7.5213 H         1 RES1    0.0000
     49 H19        4.3274    3.6260    9.1012 H         1 RES1    0.0000
     50 H20       -0.3685   11.2939    6.0527 H         1 RES1    0.0000
     51 H21        3.0335    3.8968   10.0915 H         1 RES1    0.0000
     52 H22        3.2802    5.7726    6.3197 H         1 RES1    0.0000
     53 H23        4.4219    4.7283    6.8426 H         1 RES1    0.0000
     54 H24       -0.7146   11.1391    7.5769 H         1 RES1    0.0000
     55 H25       -0.2770    9.1279    4.6953 H         1 RES1    0.0000
     56 H26       -0.2476    7.7065    5.3740 H         1 RES1    0.0000
     57 H27       -1.5477    8.5477    5.4296 H         1 RES1    0.0000
     58 H28        4.1020    5.1151    9.8244 H         1 RES1    0.0000
@<TRIPOS>BOND
     1    1    9 1
     2    2    9 2
     3    3    7 2
     4    4    7 2
     5    5    8 2
     6    6    8 2
     7    7   12 1
     8    8   14 1
     9    9   10 1
    10   10   11 ar
    11   11   12 ar
    12   12   13 ar
    13   13   14 ar
    14   14   15 ar
    15   15   10 ar
    16   16    1 1
    17   17   16 1
    18   18   17 1
    19   19   17 1
    20   20   17 1
    21   21   16 1
    22   22   21 1
    23   23   22 2
    24   24   22 1
    25   25   24 1
    26   26   25 1
    27   27   21 1
    28   28   24 1
    29   29   28 1
    30   30   28 1
    31   31   11 1
    32   32   21 1
    33   33   13 1
    34   34   27 1
    35   35   16 1
    36   36   24 1
    37   37   15 1
    38   38   26 1
    39   39   20 1
    40   40   25 1
    41   41   27 1
    42   42   25 1
    43   43   23 1
    44   44   20 1
    45   45   23 1
    46   46   29 1
    47   47   20 1
    48   48   18 1
    49   49   19 1
    50   50   29 1
    51   51   19 1
    52   52   18 1
    53   53   18 1
    54   54   29 1
    55   55   30 1
    56   56   30 1
    57   57   30 1
    58   58   19 1
    59   26   27 1
    60   26   28 1
@<TRIPOS>SUBSTRUCTURE
     1 RES1 1

@<TRIPOS>CRYSIN
  10.0151    9.6694   11.7012  90.0000 108.0363  90.0000   4 1

