# MOL2 file generated by ConQuest
# Please check atom types

@<TRIPOS>MOLECULE
AROFUI
    24    25     1
SMALL
NO_CHARGES
****
Generated from CSD

@<TRIPOS>ATOM
      1 N1         1.6386    4.9292    5.4947 N.3       1 RES1    0.0000
      2 N2         3.5619    4.8378    4.2920 N.2       1 RES1    0.0000
      3 N3         5.7457    2.7023    2.5279 N.2       1 RES1    0.0000
      4 N4         1.9677    1.9093    5.5011 N.2       1 RES1    0.0000
      5 C1         2.7216    4.2765    5.1089 C.2       1 RES1    0.0000
      6 O1         3.5458    1.3215    6.8928 O.3       1 RES1    0.0000
      7 N5         6.5837    3.1899    3.5105 N.2       1 RES1    0.0000
      8 N6         4.5895    3.9817    3.8474 N.pl3     1 RES1    0.0000
      9 N7         3.8216    2.6478    6.5141 N.2       1 RES1    0.0000
     10 C2         2.4354    0.9693    6.2430 C.2       1 RES1    0.0000
     11 C3         4.5666    3.2088    2.7594 C.2       1 RES1    0.0000
     12 C4         1.3128    6.2308    4.9688 C.3       1 RES1    0.0000
     13 H1         0.4960    6.5427    5.3673 H         1 RES1    0.0000
     14 H2         1.2011    6.1732    4.0166 H         1 RES1    0.0000
     15 H3         2.0227    6.8450    5.1712 H         1 RES1    0.0000
     16 C5         2.8676    2.9171    5.7043 C.2       1 RES1    0.0000
     17 C6         5.8626    3.9512    4.2708 C.2       1 RES1    0.0000
     18 H4         6.1846    4.4135    5.0105 H         1 RES1    0.0000
     19 C7         1.9052   -0.3886    6.4950 C.3       1 RES1    0.0000
     20 H5         1.1170   -0.5271    5.9648 H         1 RES1    0.0000
     21 H6         1.6863   -0.4780    7.4252 H         1 RES1    0.0000
     22 H7         2.5683   -1.0414    6.2585 H         1 RES1    0.0000
     23 H8         1.1062    4.5375    6.1729 H         1 RES1    0.0000
     24 H9         3.8384    3.0440    2.2724 H         1 RES1    0.0000
@<TRIPOS>BOND
     1    1    5 1
     2    2    5 2
     3    3    7 1
     4    4   10 2
     5    5   16 1
     6    6    9 1
     7    7   17 2
     8    8    2 1
     9    9   16 2
    10   10    6 1
    11   11    3 2
    12   12    1 1
    13   13   12 1
    14   14   12 1
    15   15   12 1
    16   16    4 1
    17   17    8 1
    18   18   17 1
    19   19   10 1
    20   20   19 1
    21   21   19 1
    22   22   19 1
    23   23    1 1
    24   24   11 1
    25    8   11 1
@<TRIPOS>SUBSTRUCTURE
     1 RES1 1

@<TRIPOS>CRYSIN
  21.5640   25.8400    7.0790  90.0000  90.0000  90.0000  43 1

