# MOL2 file generated by ConQuest
# Please check atom types

@<TRIPOS>MOLECULE
ASAYEZ
    32    34     1
SMALL
NO_CHARGES
****
Generated from CSD

@<TRIPOS>ATOM
      1 N1        -0.6048    1.8283    2.9290 N.am      1 RES1    0.0000
      2 O1         1.8971    1.6102    3.9564 O.3       1 RES1    0.0000
      3 H1         2.6357    1.6452    4.3550 H         1 RES1    0.0000
      4 O2        -0.2892    2.8453    0.8344 O.3       1 RES1    0.0000
      5 O3         0.3872    3.8640    2.6684 O.2       1 RES1    0.0000
      6 O4         2.4870    1.4230    8.0412 O.2       1 RES1    0.0000
      7 O5         3.3617    1.4850    6.0672 O.2       1 RES1    0.0000
      8 C1        -0.4006    1.8485    4.3691 C.ar      1 RES1    0.0000
      9 N2         2.3815    1.5254    6.8347 N.pl3     1 RES1    0.0000
     10 C2        -0.9318    1.8027    0.2118 C.ar      1 RES1    0.0000
     11 C3        -1.0608    1.8013   -1.1834 C.ar      1 RES1    0.0000
     12 C4        -1.4762    1.9360    5.2162 C.ar      1 RES1    0.0000
     13 H2        -2.3523    2.0168    4.8568 H         1 RES1    0.0000
     14 C5        -0.0277    1.7865    7.1132 C.ar      1 RES1    0.0000
     15 H3         0.1069    1.7623    8.0528 H         1 RES1    0.0000
     16 C6         0.9011    1.7138    4.8504 C.ar      1 RES1    0.0000
     17 C7        -0.1477    2.8972    2.1974 C.2       1 RES1    0.0000
     18 N3        -0.5013    2.8501   -2.0318 N.pl3     1 RES1    0.0000
     19 O6        -1.6648   -0.1831    3.0920 O.2       1 RES1    0.0000
     20 C8         1.0574    1.6977    6.2520 C.ar      1 RES1    0.0000
     21 C9        -1.4668    0.7499    0.9331 C.ar      1 RES1    0.0000
     22 C10       -1.2889    0.7149    2.3886 C.2       1 RES1    0.0000
     23 C11       -1.7440    0.7674   -1.8085 C.ar      1 RES1    0.0000
     24 H4        -1.8287    0.7714   -2.7544 H         1 RES1    0.0000
     25 C12       -1.2956    1.9077    6.5998 C.ar      1 RES1    0.0000
     26 H5        -2.0428    1.9723    7.1812 H         1 RES1    0.0000
     27 C13       -2.1551   -0.2760    0.2862 C.ar      1 RES1    0.0000
     28 H6        -2.5267   -0.9895    0.7906 H         1 RES1    0.0000
     29 O7        -0.5964    2.7545   -3.2062 O.2       1 RES1    0.0000
     30 C14       -2.2971   -0.2558   -1.0923 C.ar      1 RES1    0.0000
     31 H7        -2.7752   -0.9478   -1.5351 H         1 RES1    0.0000
     32 O8         0.0449    3.7575   -1.5620 O.2       1 RES1    0.0000
@<TRIPOS>BOND
     1    1    8 1
     2    2    3 1
     3    4   10 1
     4    5   17 2
     5    6    9 2
     6    7    9 2
     7    8   12 ar
     8    9   20 1
     9   10   11 ar
    10   11   18 1
    11   12   13 1
    12   14   15 1
    13   16    2 1
    14   17    1 1
    15   18   29 2
    16   19   22 2
    17   20   14 ar
    18   21   10 ar
    19   22    1 1
    20   23   11 ar
    21   24   23 1
    22   25   12 ar
    23   26   25 1
    24   27   21 ar
    25   28   27 1
    26   30   23 ar
    27   31   30 1
    28   32   18 2
    29    4   17 1
    30    8   16 ar
    31   14   25 ar
    32   16   20 ar
    33   21   22 1
    34   27   30 ar
@<TRIPOS>SUBSTRUCTURE
     1 RES1 1

@<TRIPOS>CRYSIN
   7.8824   13.4630   13.0150  90.0000  99.5370  90.0000  14 2

