# MOL2 file generated by ConQuest
# Please check atom types

@<TRIPOS>MOLECULE
ASIMUL
    41    43     1
SMALL
NO_CHARGES
****
Generated from CSD

@<TRIPOS>ATOM
      1 C1        -0.0818    3.6143   -1.2051 C.ar      1 RES1    0.0000
      2 N1        -1.0428    3.5480   -2.3236 N.pl3     1 RES1    0.0000
      3 O1        -2.2049    3.8459   -2.0992 O.2       1 RES1    0.0000
      4 C2        -0.5483    3.5690    0.0808 C.ar      1 RES1    0.0000
      5 H1        -1.4609    3.5446    0.2571 H         1 RES1    0.0000
      6 O2        -0.6346    3.1967   -3.4147 O.2       1 RES1    0.0000
      7 C3         0.3701    3.5602    1.1041 C.ar      1 RES1    0.0000
      8 H2         0.0761    3.5230    1.9849 H         1 RES1    0.0000
      9 O3         3.9325    3.2704    1.7030 O.2       1 RES1    0.0000
     10 C4         1.7385    3.6062    0.8350 C.ar      1 RES1    0.0000
     11 O4         2.2184    3.6272    3.1209 O.3       1 RES1    0.0000
     12 C5         2.1744    3.6996   -0.4885 C.ar      1 RES1    0.0000
     13 H3         3.0841    3.7565   -0.6755 H         1 RES1    0.0000
     14 O5         0.0406    2.7844    6.5342 O.3       1 RES1    0.0000
     15 C6         1.2621    3.7071   -1.5159 C.ar      1 RES1    0.0000
     16 H4         1.5428    3.7741   -2.4000 H         1 RES1    0.0000
     17 O6        -1.1675    2.1514    4.7619 O.2       1 RES1    0.0000
     18 C7         2.7672    3.4810    1.9044 C.2       1 RES1    0.0000
     19 O7         3.9489    4.4274    6.2596 O.3       1 RES1    0.0000
     20 C8         3.0160    3.3138    4.3017 C.3       1 RES1    0.0000
     21 H5         3.7658    2.7316    4.0576 H         1 RES1    0.0000
     22 C9         2.0700    2.5833    5.2346 C.3       1 RES1    0.0000
     23 H6         2.5593    2.2645    6.0089 H         1 RES1    0.0000
     24 H7         1.6927    1.8143    4.7793 H         1 RES1    0.0000
     25 C10        0.9527    3.5087    5.6830 C.3       1 RES1    0.0000
     26 H8         0.4715    3.8465    4.8991 H         1 RES1    0.0000
     27 C11        1.4818    4.6745    6.4929 C.3       1 RES1    0.0000
     28 H9         0.8220    5.3853    6.4879 H         1 RES1    0.0000
     29 H10        1.6012    4.3888    7.4125 H         1 RES1    0.0000
     30 C12        2.7815    5.2147    5.9803 C.3       1 RES1    0.0000
     31 H11        2.8984    6.1828    6.0791 H         1 RES1    0.0000
     32 C13        3.5327    4.6068    4.8826 C.3       1 RES1    0.0000
     33 C14       -0.9783    2.1304    5.9405 C.2       1 RES1    0.0000
     34 C15       -1.8014    1.3925    6.9304 C.3       1 RES1    0.0000
     35 H12       -2.3369    2.0140    7.4285 H         1 RES1    0.0000
     36 H13       -1.2258    0.9126    7.5307 H         1 RES1    0.0000
     37 H14       -2.3734    0.7724    6.4720 H         1 RES1    0.0000
     38 C16        4.4823    5.4090    4.0405 C.3       1 RES1    0.0000
     39 H15        4.7698    6.1828    4.5302 H         1 RES1    0.0000
     40 H16        4.0398    5.6859    3.2352 H         1 RES1    0.0000
     41 H17        5.2451    4.8701    3.8180 H         1 RES1    0.0000
@<TRIPOS>BOND
     1    1    2 1
     2    2    3 2
     3    4    1 ar
     4    5    4 1
     5    6    2 2
     6    7    4 ar
     7    8    7 1
     8    9   18 2
     9   10    7 ar
    10   11   18 1
    11   12   10 ar
    12   13   12 1
    13   14   25 1
    14   15    1 ar
    15   16   15 1
    16   17   33 2
    17   18   10 1
    18   19   30 1
    19   20   11 1
    20   21   20 1
    21   22   20 1
    22   23   22 1
    23   24   22 1
    24   25   22 1
    25   26   25 1
    26   27   25 1
    27   28   27 1
    28   29   27 1
    29   30   27 1
    30   31   30 1
    31   32   19 1
    32   33   14 1
    33   34   33 1
    34   35   34 1
    35   36   34 1
    36   37   34 1
    37   38   32 1
    38   39   38 1
    39   40   38 1
    40   41   38 1
    41   12   15 ar
    42   20   32 1
    43   30   32 1
@<TRIPOS>SUBSTRUCTURE
     1 RES1 1

@<TRIPOS>CRYSIN
   7.4253    6.7697   16.3330  90.0000 102.1300  90.0000   4 1

