# MOL2 file generated by ConQuest
# Please check atom types

@<TRIPOS>MOLECULE
ASOFIX
    31    31     1
SMALL
NO_CHARGES
****
Generated from CSD

@<TRIPOS>ATOM
      1 O1        -2.2181    1.0331   14.2780 O.2       1 RES1    0.0000
      2 O2        -1.1254    1.1895   10.7728 O.2       1 RES1    0.0000
      3 O3        -3.0571    0.0472   11.0802 O.3       1 RES1    0.0000
      4 N1        -2.2486   -0.1348   13.7199 N.pl3     1 RES1    0.0000
      5 C1        -1.3032   -0.4158   12.5772 C.3       1 RES1    0.0000
      6 C2        -1.5017   -1.9255   12.3684 C.3       1 RES1    0.0000
      7 H1        -0.7629   -2.4354   12.7859 H         1 RES1    0.0000
      8 H2        -1.5330   -2.1431   11.4032 H         1 RES1    0.0000
      9 C3        -2.8456   -2.2636   13.0456 C.3       1 RES1    0.0000
     10 H3        -3.5771   -2.3194   12.3809 H         1 RES1    0.0000
     11 H4        -2.7916   -3.1184   13.5414 H         1 RES1    0.0000
     12 C4        -3.0459   -1.1214   13.9674 C.2       1 RES1    0.0000
     13 H5        -3.6906   -1.1152   14.6652 H         1 RES1    0.0000
     14 C5         0.1038    0.0038   12.9488 C.3       1 RES1    0.0000
     15 H6         0.7139   -0.2107   12.2132 H         1 RES1    0.0000
     16 H7         0.3849   -0.4754   13.7563 H         1 RES1    0.0000
     17 H8         0.1227    0.9690   13.1185 H         1 RES1    0.0000
     18 C6        -1.7984    0.3939   11.3726 C.2       1 RES1    0.0000
     19 C7        -3.7376    0.5444    9.8550 C.3       1 RES1    0.0000
     20 C8        -2.9488    0.1110    8.6314 C.3       1 RES1    0.0000
     21 H9        -2.1032    0.6040    8.5973 H         1 RES1    0.0000
     22 H10       -3.4700    0.2992    7.8233 H         1 RES1    0.0000
     23 H11       -2.7655   -0.8505    8.6847 H         1 RES1    0.0000
     24 C9        -3.9206    2.0472    9.9365 C.3       1 RES1    0.0000
     25 H12       -4.4594    2.3520    9.1769 H         1 RES1    0.0000
     26 H13       -3.0440    2.4843    9.9117 H         1 RES1    0.0000
     27 H14       -4.3764    2.2755   10.7726 H         1 RES1    0.0000
     28 C10       -5.0760   -0.1668    9.9099 C.3       1 RES1    0.0000
     29 H15       -5.6434    0.1486    9.1755 H         1 RES1    0.0000
     30 H16       -5.5123    0.0245   10.7657 H         1 RES1    0.0000
     31 H17       -4.9367   -1.1327    9.8229 H         1 RES1    0.0000
@<TRIPOS>BOND
     1    1    4 1
     2    2   18 2
     3    3   18 1
     4    4    5 1
     5    5    6 1
     6    6    7 1
     7    8    6 1
     8    9    6 1
     9   10    9 1
    10   11    9 1
    11   12    4 2
    12   13   12 1
    13   14    5 1
    14   15   14 1
    15   16   14 1
    16   17   14 1
    17   18    5 1
    18   19    3 1
    19   20   19 1
    20   21   20 1
    21   22   20 1
    22   23   20 1
    23   24   19 1
    24   25   24 1
    25   26   24 1
    26   27   24 1
    27   28   19 1
    28   29   28 1
    29   30   28 1
    30   31   28 1
    31    9   12 1
@<TRIPOS>SUBSTRUCTURE
     1 RES1 1

@<TRIPOS>CRYSIN
  12.1980    6.2720   14.5010  90.0000 107.0400  90.0000 231 1

