# MOL2 file generated by ConQuest
# Please check atom types

@<TRIPOS>MOLECULE
ASOVOU
    64    66     1
SMALL
NO_CHARGES
****
Generated from CSD

@<TRIPOS>ATOM
      1 C1         5.5596    5.8980    8.0343 C.ar      1 RES1    0.0000
      2 C2         6.7168    5.1505    7.8067 C.ar      1 RES1    0.0000
      3 H1         6.6759    4.2032    7.8534 H         1 RES1    0.0000
      4 C3         7.9269    5.7671    7.5129 C.ar      1 RES1    0.0000
      5 H2         8.7037    5.2383    7.3721 H         1 RES1    0.0000
      6 C4         8.0069    7.1404    7.4242 C.ar      1 RES1    0.0000
      7 H3         8.8373    7.5581    7.2305 H         1 RES1    0.0000
      8 C5         6.8782    7.9025    7.6178 C.ar      1 RES1    0.0000
      9 H4         6.9204    8.8487    7.5457 H         1 RES1    0.0000
     10 C6         5.6816    7.2779    7.9178 C.ar      1 RES1    0.0000
     11 N1         4.5079    8.1390    8.0984 N.pl3     1 RES1    0.0000
     12 O1         4.5649    9.2868    7.6585 O.2       1 RES1    0.0000
     13 O2         3.5273    7.6869    8.6714 O.2       1 RES1    0.0000
     14 C7         4.3024    5.1775    8.3588 C.2       1 RES1    0.0000
     15 H5         4.0480    5.1025    9.2708 H         1 RES1    0.0000
     16 C8         3.5114    4.6301    7.4343 C.2       1 RES1    0.0000
     17 C9         2.2893    3.8829    7.8267 C.2       1 RES1    0.0000
     18 O3         1.4853    3.5243    6.9818 O.2       1 RES1    0.0000
     19 C10        2.0483    3.5652    9.2724 C.3       1 RES1    0.0000
     20 H6         1.8400    4.3900    9.7577 H         1 RES1    0.0000
     21 H7         2.8521    3.1549    9.6549 H         1 RES1    0.0000
     22 H8         1.2953    2.9418    9.3491 H         1 RES1    0.0000
     23 C11        3.8110    4.8125    5.9624 C.3       1 RES1    0.0000
     24 H9         4.7207    4.4733    5.7678 H         1 RES1    0.0000
     25 H10        3.1663    4.2849    5.4281 H         1 RES1    0.0000
     26 N2         3.7241    6.2258    5.5746 N.3       1 RES1    0.0000
     27 C12        2.3350    6.6668    5.4934 C.3       1 RES1    0.0000
     28 H11        1.8884    6.5143    6.3642 H         1 RES1    0.0000
     29 H12        1.8588    6.1361    4.8071 H         1 RES1    0.0000
     30 C13        2.2606    8.1343    5.1372 C.3       1 RES1    0.0000
     31 H13        1.3129    8.4136    5.0704 H         1 RES1    0.0000
     32 H14        2.6909    8.6720    5.8480 H         1 RES1    0.0000
     33 C1B        1.0998    8.7014    1.4026 C.ar      1 RES1    0.0000
     34 C2B       -0.0574    9.4489    1.6302 C.ar      1 RES1    0.0000
     35 H1B       -0.0165   10.3962    1.5835 H         1 RES1    0.0000
     36 C3B       -1.2675    8.8323    1.9240 C.ar      1 RES1    0.0000
     37 H2B       -2.0443    9.3611    2.0648 H         1 RES1    0.0000
     38 C4B       -1.3475    7.4590    2.0127 C.ar      1 RES1    0.0000
     39 H3B       -2.1779    7.0413    2.2063 H         1 RES1    0.0000
     40 C5B       -0.2188    6.6969    1.8191 C.ar      1 RES1    0.0000
     41 H4B       -0.2610    5.7507    1.8911 H         1 RES1    0.0000
     42 C6B        0.9778    7.3215    1.5191 C.ar      1 RES1    0.0000
     43 N1B        2.1515    6.4604    1.3384 N.pl3     1 RES1    0.0000
     44 O1B        2.0945    5.3126    1.7784 O.2       1 RES1    0.0000
     45 O2B        3.1321    6.9125    0.7655 O.2       1 RES1    0.0000
     46 C7B        2.3570    9.4219    1.0781 C.2       1 RES1    0.0000
     47 H5B        2.6114    9.4969    0.1661 H         1 RES1    0.0000
     48 C8B        3.1480    9.9693    2.0026 C.2       1 RES1    0.0000
     49 C9B        4.3701   10.7165    1.6102 C.2       1 RES1    0.0000
     50 O3B        5.1741   11.0751    2.4551 O.2       1 RES1    0.0000
     51 C10B       4.6112   11.0342    0.1645 C.3       1 RES1    0.0000
     52 H6B        4.8194   10.2094   -0.3209 H         1 RES1    0.0000
     53 H7B        3.8073   11.4445   -0.2180 H         1 RES1    0.0000
     54 H8B        5.3641   11.6576    0.0878 H         1 RES1    0.0000
     55 C11B       2.8484    9.7869    3.4745 C.3       1 RES1    0.0000
     56 H9B        1.9387   10.1261    3.6691 H         1 RES1    0.0000
     57 H10B       3.4931   10.3145    4.0088 H         1 RES1    0.0000
     58 N2B        2.9353    8.3736    3.8622 N.3       1 RES1    0.0000
     59 C12B       4.3244    7.9326    3.9435 C.3       1 RES1    0.0000
     60 H11B       4.7710    8.0851    3.0726 H         1 RES1    0.0000
     61 H12B       4.8006    8.4633    4.6297 H         1 RES1    0.0000
     62 C13B       4.3988    6.4651    4.2997 C.3       1 RES1    0.0000
     63 H13B       5.3465    6.1858    4.3664 H         1 RES1    0.0000
     64 H14B       3.9685    5.9274    3.5888 H         1 RES1    0.0000
@<TRIPOS>BOND
     1    1    2 ar
     2    2    3 1
     3    4    2 ar
     4    5    4 1
     5    6    4 ar
     6    7    6 1
     7    8    6 ar
     8    9    8 1
     9   10    1 ar
    10   11   10 1
    11   12   11 2
    12   13   11 2
    13   14    1 1
    14   15   14 1
    15   16   14 2
    16   17   16 1
    17   18   17 2
    18   19   17 1
    19   20   19 1
    20   21   19 1
    21   22   19 1
    22   23   16 1
    23   24   23 1
    24   25   23 1
    25   26   23 1
    26   27   26 1
    27   28   27 1
    28   29   27 1
    29   30   27 1
    30   31   30 1
    31   32   30 1
    32   33   34 ar
    33   34   35 1
    34   36   34 ar
    35   37   36 1
    36   38   36 ar
    37   39   38 1
    38   40   38 ar
    39   41   40 1
    40   42   33 ar
    41   43   42 1
    42   44   43 2
    43   45   43 2
    44   46   33 1
    45   47   46 1
    46   48   46 2
    47   49   48 1
    48   50   49 2
    49   51   49 1
    50   52   51 1
    51   53   51 1
    52   54   51 1
    53   55   48 1
    54   56   55 1
    55   57   55 1
    56   58   30 1
    57   59   58 1
    58   60   59 1
    59   61   59 1
    60   62   26 1
    61   63   62 1
    62   64   62 1
    63    8   10 ar
    64   40   42 ar
    65   55   58 1
    66   59   62 1
@<TRIPOS>SUBSTRUCTURE
     1 RES1 1

@<TRIPOS>CRYSIN
   9.1228   14.5994    9.7531  90.0000 104.6300  90.0000 231 1

