# MOL2 file generated by ConQuest
# Please check atom types

@<TRIPOS>MOLECULE
ASUMAC
    28    29     1
SMALL
NO_CHARGES
****
Generated from CSD

@<TRIPOS>ATOM
      1 O1         7.1561   -0.4854    7.5943 O.3       1 RES1    0.0000
      2 H1         6.6994   -0.0455    8.1450 H         1 RES1    0.0000
      3 O2         5.4964   -1.0724    4.9580 O.2       1 RES1    0.0000
      4 O3        12.0712    4.6465    8.0447 O.2       1 RES1    0.0000
      5 O4        12.9351    2.9154    8.9222 O.2       1 RES1    0.0000
      6 N1        12.0682    3.4656    8.2756 N.pl3     1 RES1    0.0000
      7 C1         6.6899   -1.1855    4.6823 C.2       1 RES1    0.0000
      8 C2         7.8008   -0.5013    5.3398 C.2       1 RES1    0.0000
      9 C3         8.9188   -0.8160    4.6996 C.2       1 RES1    0.0000
     10 H2         9.7716   -0.4803    4.9508 H         1 RES1    0.0000
     11 C4         8.7177   -1.7427    3.5536 C.3       1 RES1    0.0000
     12 H3         9.2429   -2.5727    3.6727 H         1 RES1    0.0000
     13 H4         8.9805   -1.3137    2.7006 H         1 RES1    0.0000
     14 C5         7.2318   -2.0330    3.5774 C.3       1 RES1    0.0000
     15 H5         6.8137   -1.7917    2.7135 H         1 RES1    0.0000
     16 H6         7.0642   -2.9924    3.7571 H         1 RES1    0.0000
     17 C6         7.5838    0.3730    6.5385 C.3       1 RES1    0.0000
     18 H7         6.8390    1.0083    6.3306 H         1 RES1    0.0000
     19 C7         8.7920    1.1820    6.9513 C.ar      1 RES1    0.0000
     20 C8         9.8759    0.5747    7.5712 C.ar      1 RES1    0.0000
     21 H8         9.8675   -0.3649    7.7120 H         1 RES1    0.0000
     22 C9        10.9616    1.3091    7.9855 C.ar      1 RES1    0.0000
     23 H9        11.7011    0.8894    8.4091 H         1 RES1    0.0000
     24 C10       10.9478    2.6660    7.7711 C.ar      1 RES1    0.0000
     25 C11        9.8930    3.3141    7.1541 C.ar      1 RES1    0.0000
     26 H10        9.9132    4.2525    7.0098 H         1 RES1    0.0000
     27 C12        8.8072    2.5529    6.7536 C.ar      1 RES1    0.0000
     28 H11        8.0645    2.9760    6.3379 H         1 RES1    0.0000
@<TRIPOS>BOND
     1    1    2 1
     2    3    7 2
     3    4    6 2
     4    5    6 2
     5    6   24 1
     6    7    8 1
     7    8    9 2
     8    9   10 1
     9   11    9 1
    10   12   11 1
    11   13   11 1
    12   14    7 1
    13   15   14 1
    14   16   14 1
    15   17    1 1
    16   18   17 1
    17   19   17 1
    18   20   19 ar
    19   21   20 1
    20   22   20 ar
    21   23   22 1
    22   24   22 ar
    23   25   24 ar
    24   26   25 1
    25   27   19 ar
    26   28   27 1
    27    8   17 1
    28   11   14 1
    29   25   27 ar
@<TRIPOS>SUBSTRUCTURE
     1 RES1 1

@<TRIPOS>CRYSIN
  12.7460   11.6570    7.2500  90.0000  95.4790  90.0000  14 1

