# MOL2 file generated by ConQuest
# Please check atom types

@<TRIPOS>MOLECULE
ASUYUI
    50    51     1
SMALL
NO_CHARGES
****
Generated from CSD

@<TRIPOS>ATOM
      1 H1         5.9253    4.2736    9.3356 H         1 RES1    0.0000
      2 O1         9.0943    3.0134    8.7514 O.3       1 RES1    0.0000
      3 C1         8.5511    2.0108    8.0571 C.2       1 RES1    0.0000
      4 O2         7.5295    1.4544    8.3415 O.2       1 RES1    0.0000
      5 C2         9.3825    1.6735    6.8601 C.ar      1 RES1    0.0000
      6 C3        10.6457    2.2198    6.6653 C.ar      1 RES1    0.0000
      7 C4         8.8796    0.7601    5.9458 C.ar      1 RES1    0.0000
      8 C5         9.6248    0.4006    4.8408 C.ar      1 RES1    0.0000
      9 C6        10.8710    0.9524    4.6803 C.ar      1 RES1    0.0000
     10 C7        11.3970    1.8605    5.5737 C.ar      1 RES1    0.0000
     11 C8         7.8977    4.8713    9.8134 C.3       1 RES1    0.0000
     12 C9         8.4568    3.4544   10.0019 C.3       1 RES1    0.0000
     13 N1        11.6951    0.5596    3.5206 N.pl3     1 RES1    0.0000
     14 C10        6.1830    7.1086   12.5603 C.2       1 RES1    0.0000
     15 C11        7.4807    5.3585   11.2222 C.3       1 RES1    0.0000
     16 O3        11.2654   -0.3136    2.7915 O.2       1 RES1    0.0000
     17 C12        6.7558    6.7184   11.2317 C.3       1 RES1    0.0000
     18 C13        6.5517    8.0929   13.3530 C.2       1 RES1    0.0000
     19 O4        12.7599    1.1244    3.3609 O.2       1 RES1    0.0000
     20 C14        8.9530    5.7967    9.1956 C.3       1 RES1    0.0000
     21 C15        6.6714    4.7786    8.8816 C.3       1 RES1    0.0000
     22 C16        9.5129    3.3712   11.0730 C.2       1 RES1    0.0000
     23 C17        8.6778    5.3967   12.1866 C.3       1 RES1    0.0000
     24 C18        9.5994    4.2257   12.0429 C.2       1 RES1    0.0000
     25 C19        7.7239    8.9759   13.1043 C.3       1 RES1    0.0000
     26 C20        5.7981    8.4185   14.6076 C.3       1 RES1    0.0000
     27 H2         6.2932    5.6404    8.7531 H         1 RES1    0.0000
     28 H3         6.8705    4.7043   11.5744 H         1 RES1    0.0000
     29 H4         7.7082    2.8396   10.1581 H         1 RES1    0.0000
     30 H5         8.0437    0.3787    6.0847 H         1 RES1    0.0000
     31 H6         6.9353    4.3073    8.1004 H         1 RES1    0.0000
     32 H7        12.2246    2.1839    5.4405 H         1 RES1    0.0000
     33 H8         9.7202    5.8353    9.6949 H         1 RES1    0.0000
     34 H9        10.9925    2.8461    7.2792 H         1 RES1    0.0000
     35 H10        8.6027    6.6879    9.1334 H         1 RES1    0.0000
     36 H11        9.2790   -0.2307    4.2249 H         1 RES1    0.0000
     37 H12        8.2536    8.7177   12.3660 H         1 RES1    0.0000
     38 H13        8.3164    5.5405   13.1141 H         1 RES1    0.0000
     39 H14        9.2037    5.4466    8.3362 H         1 RES1    0.0000
     40 H15       10.1709    2.6427   10.9764 H         1 RES1    0.0000
     41 H16        8.3010    9.0415   13.8819 H         1 RES1    0.0000
     42 H17        9.1949    6.2684   12.0516 H         1 RES1    0.0000
     43 H18       10.2979    4.0933   12.7590 H         1 RES1    0.0000
     44 H19        7.4223    7.4219   10.9104 H         1 RES1    0.0000
     45 H20        6.1061    6.6099   10.5399 H         1 RES1    0.0000
     46 H21        5.4053    9.2819   14.5150 H         1 RES1    0.0000
     47 H22        5.4319    6.5815   12.9036 H         1 RES1    0.0000
     48 H23        5.0073    7.8071   14.6399 H         1 RES1    0.0000
     49 H24        6.3285    8.5254   15.3978 H         1 RES1    0.0000
     50 H25        7.3892    9.8327   12.8853 H         1 RES1    0.0000
@<TRIPOS>BOND
     1    1   21 1
     2    2    3 1
     3    3    4 2
     4    5    3 1
     5    6    5 ar
     6    7    5 ar
     7    8    7 ar
     8    9    8 ar
     9   10    6 ar
    10   11   12 1
    11   12    2 1
    12   13    9 1
    13   14   17 1
    14   15   11 1
    15   16   13 2
    16   17   15 1
    17   18   14 2
    18   19   13 2
    19   20   11 1
    20   21   11 1
    21   22   12 1
    22   23   15 1
    23   24   22 2
    24   25   18 1
    25   26   18 1
    26   27   21 1
    27   28   15 1
    28   29   12 1
    29   30    7 1
    30   31   21 1
    31   32   10 1
    32   33   20 1
    33   34    6 1
    34   35   20 1
    35   36    8 1
    36   37   25 1
    37   38   23 1
    38   39   20 1
    39   40   22 1
    40   41   25 1
    41   42   23 1
    42   43   24 1
    43   44   17 1
    44   45   17 1
    45   46   26 1
    46   47   14 1
    47   48   26 1
    48   49   26 1
    49   50   25 1
    50    9   10 ar
    51   23   24 1
@<TRIPOS>SUBSTRUCTURE
     1 RES1 1

@<TRIPOS>CRYSIN
   6.1690   11.1960   14.1540  89.2770  82.6680  77.0000   2 1

