# MOL2 file generated by ConQuest
# Please check atom types

@<TRIPOS>MOLECULE
ATAZAX
    33    35     1
SMALL
NO_CHARGES
****
Generated from CSD

@<TRIPOS>ATOM
      1 O1         6.0496    4.9373    0.2704 O.2       1 RES1    0.0000
      2 O2         4.3440    2.8199   -0.1314 O.3       1 RES1    0.0000
      3 N1         6.4092    2.4477    2.7947 N.3       1 RES1    0.0000
      4 C1         6.0632    3.4890    5.0517 C.ar      1 RES1    0.0000
      5 N2         5.0809    3.0141    1.0415 N.am      1 RES1    0.0000
      6 C2         5.6578    2.7204    3.9705 C.ar      1 RES1    0.0000
      7 C3         6.9948    3.6278    2.1368 C.3       1 RES1    0.0000
      8 C4         4.3032    1.2416    2.6929 C.3       1 RES1    0.0000
      9 C5         4.4470    2.0546    3.9651 C.ar      1 RES1    0.0000
     10 C6         3.6060    2.1513    5.0632 C.ar      1 RES1    0.0000
     11 C7         6.0241    3.9759    1.0379 C.2       1 RES1    0.0000
     12 C8         5.4712    1.8191    1.8292 C.3       1 RES1    0.0000
     13 C9         6.1961    0.8413    0.9097 C.3       1 RES1    0.0000
     14 C10        5.2050    3.5699    6.1435 C.ar      1 RES1    0.0000
     15 C11        3.9951    2.9091    6.1488 C.ar      1 RES1    0.0000
     16 C12        2.9152    1.4063    2.0608 C.3       1 RES1    0.0000
     17 C13        4.5467   -0.2452    3.0209 C.3       1 RES1    0.0000
     18 H1         3.6331    3.4335   -0.0681 H         1 RES1    0.0000
     19 H2         7.0187    3.8989    4.9456 H         1 RES1    0.0000
     20 H3         7.1310    4.4286    2.7911 H         1 RES1    0.0000
     21 H4         7.8720    3.4184    1.8027 H         1 RES1    0.0000
     22 H5         2.7475    1.6269    4.9748 H         1 RES1    0.0000
     23 H6         5.5700    0.4502    0.2962 H         1 RES1    0.0000
     24 H7         6.6007    0.1494    1.4393 H         1 RES1    0.0000
     25 H8         6.8768    1.3072    0.4182 H         1 RES1    0.0000
     26 H9         5.4581    4.0881    6.9118 H         1 RES1    0.0000
     27 H10        3.5143    3.1063    6.9905 H         1 RES1    0.0000
     28 H11        2.1294    0.9932    2.6196 H         1 RES1    0.0000
     29 H12        2.7029    2.4536    1.9892 H         1 RES1    0.0000
     30 H13        2.9126    0.8702    1.2068 H         1 RES1    0.0000
     31 H14        4.3040   -0.7851    2.1209 H         1 RES1    0.0000
     32 H15        5.4828   -0.3405    3.4267 H         1 RES1    0.0000
     33 H16        3.8066   -0.4767    3.6292 H         1 RES1    0.0000
@<TRIPOS>BOND
     1    1   11 2
     2    2    5 1
     3    3    6 1
     4    4    6 ar
     5    5   11 1
     6    6    9 ar
     7    7    3 1
     8    8    9 1
     9    9   10 ar
    10   10   15 ar
    11   11    7 1
    12   12    3 1
    13   13   12 1
    14   14    4 ar
    15   15   14 ar
    16   16    8 1
    17   17    8 1
    18   18    2 1
    19   19    4 1
    20   20    7 1
    21   21    7 1
    22   22   10 1
    23   23   13 1
    24   24   13 1
    25   25   13 1
    26   26   14 1
    27   27   15 1
    28   28   16 1
    29   29   16 1
    30   30   16 1
    31   31   17 1
    32   32   17 1
    33   33   17 1
    34    5   12 1
    35    8   12 1
@<TRIPOS>SUBSTRUCTURE
     1 RES1 1

@<TRIPOS>CRYSIN
   7.3986   18.9176    9.3134  90.0000 108.3289  90.0000  14 2

