# MOL2 file generated by ConQuest
# Please check atom types

@<TRIPOS>MOLECULE
ATOJUQ
    26    28     1
SMALL
NO_CHARGES
****
Generated from CSD

@<TRIPOS>ATOM
      1 N1         4.6551    0.9151    3.1255 N.2       1 RES1    0.0000
      2 O1         4.3197   -0.0574    4.1038 O.3       1 RES1    0.0000
      3 C1         2.9591   -0.2189    4.1467 C.2       1 RES1    0.0000
      4 C2         0.9654    0.9591    2.8017 C.3       1 RES1    0.0000
      5 H1         0.5863    1.6192    3.4345 H         1 RES1    0.0000
      6 H2         0.4002    0.1466    2.8250 H         1 RES1    0.0000
      7 C3         0.9680    1.5543    1.3597 C.3       1 RES1    0.0000
      8 H3         1.0124    0.8096    0.7079 H         1 RES1    0.0000
      9 H4         0.1137    2.0311    1.2126 H         1 RES1    0.0000
     10 N2         2.0917    2.4926    1.0880 N.am      1 RES1    0.0000
     11 H5         1.9237    3.1903    0.5801 H         1 RES1    0.0000
     12 C4         3.3423    2.3570    1.5596 C.2       1 RES1    0.0000
     13 O2         4.3113    3.0541    1.1841 O.2       1 RES1    0.0000
     14 C5         2.4544   -1.2072    5.1558 C.ar      1 RES1    0.0000
     15 C6         3.3553   -2.0415    5.8584 C.ar      1 RES1    0.0000
     16 H6         4.2886   -1.9792    5.6926 H         1 RES1    0.0000
     17 C7         2.8644   -2.9680    6.8068 C.ar      1 RES1    0.0000
     18 H7         3.4714   -3.5359    7.2656 H         1 RES1    0.0000
     19 C8         1.4997   -3.0571    7.0756 C.ar      1 RES1    0.0000
     20 H8         1.1793   -3.6795    7.7179 H         1 RES1    0.0000
     21 C9         0.6097   -2.2282    6.3955 C.ar      1 RES1    0.0000
     22 H9        -0.3214   -2.2906    6.5741 H         1 RES1    0.0000
     23 C10        1.0806   -1.2963    5.4445 C.ar      1 RES1    0.0000
     24 H10        0.4658   -0.7264    4.9978 H         1 RES1    0.0000
     25 C11        2.3729    0.6125    3.2117 C.2       1 RES1    0.0000
     26 C12        3.4843    1.2820    2.6182 C.2       1 RES1    0.0000
@<TRIPOS>BOND
     1    1    2 1
     2    2    3 1
     3    3   14 1
     4    4    5 1
     5    6    4 1
     6    7    4 1
     7    8    7 1
     8    9    7 1
     9   10    7 1
    10   11   10 1
    11   12   10 1
    12   13   12 2
    13   14   15 ar
    14   15   16 1
    15   17   15 ar
    16   18   17 1
    17   19   17 ar
    18   20   19 1
    19   21   19 ar
    20   22   21 1
    21   23   14 ar
    22   24   23 1
    23   25    3 2
    24   26    1 2
    25    4   25 1
    26   12   26 1
    27   21   23 ar
    28   25   26 1
@<TRIPOS>SUBSTRUCTURE
     1 RES1 1

@<TRIPOS>CRYSIN
  12.5507    4.9516   32.7790  90.0000  91.1490  90.0000  15 1

