# MOL2 file generated by ConQuest
# Please check atom types

@<TRIPOS>MOLECULE
ATOVEK
    33    35     1
SMALL
NO_CHARGES
****
Generated from CSD

@<TRIPOS>ATOM
      1 C1         2.5883    2.8310    3.6251 C.2       1 RES1    0.0000
      2 H1         1.8993    2.6165    4.2432 H         1 RES1    0.0000
      3 C2         3.5961    2.0767    3.2497 C.2       1 RES1    0.0000
      4 H2         3.7255    1.1861    3.5543 H         1 RES1    0.0000
      5 C3         4.4266    2.6928    2.3879 C.2       1 RES1    0.0000
      6 H3         5.2298    2.3438    2.0198 H         1 RES1    0.0000
      7 C4         3.8682    3.9513    2.1425 C.2       1 RES1    0.0000
      8 C5         4.6132    4.7778    1.2474 C.2       1 RES1    0.0000
      9 C6         5.9963    4.3319    0.8936 C.3       1 RES1    0.0000
     10 H4         6.4838    3.8324    1.6103 H         1 RES1    0.0000
     11 C7         6.8551    5.1336   -0.0291 C.3       1 RES1    0.0000
     12 H5         6.4826    5.9802   -0.3817 H         1 RES1    0.0000
     13 H6         7.8279    5.1535    0.1529 H         1 RES1    0.0000
     14 C8         6.2878    3.8826   -0.5347 C.3       1 RES1    0.0000
     15 H7         5.5275    3.9915   -1.1755 H         1 RES1    0.0000
     16 C9         7.1400    2.6932   -0.7723 C.ar      1 RES1    0.0000
     17 C10        6.8007    1.7926   -1.7405 C.ar      1 RES1    0.0000
     18 H8         6.0214    1.8949   -2.2752 H         1 RES1    0.0000
     19 C11        7.7818    0.5767   -1.9137 C.ar      1 RES1    0.0000
     20 C12        8.8173    0.5668   -1.1009 C.ar      1 RES1    0.0000
     21 H9         9.4322   -0.1449   -1.2299 H         1 RES1    0.0000
     22 C13        9.0935    1.3423   -0.2111 C.ar      1 RES1    0.0000
     23 H10        9.8314    1.1989    0.3691 H         1 RES1    0.0000
     24 C14        8.2811    2.4304   -0.0935 C.ar      1 RES1    0.0000
     25 H11        8.5489    3.0838    0.5410 H         1 RES1    0.0000
     26 C15        7.3380   -0.3295   -2.9944 C.3       1 RES1    0.0000
     27 H12        6.4924   -0.0043   -3.3660 H         1 RES1    0.0000
     28 H13        7.2097   -1.2315   -2.6304 H         1 RES1    0.0000
     29 H14        8.0177   -0.3551   -3.6997 H         1 RES1    0.0000
     30 N1         4.1986    5.8660    0.7142 N.2       1 RES1    0.0000
     31 O1         2.7621    4.0668    2.8857 O.3       1 RES1    0.0000
     32 O2         2.8671    6.1771    1.0654 O.3       1 RES1    0.0000
     33 H15        2.6405    6.8964    0.6952 H         1 RES1    0.0000
@<TRIPOS>BOND
     1    1    2 1
     2    3    1 2
     3    4    3 1
     4    5    3 1
     5    6    5 1
     6    7    5 2
     7    8    7 1
     8    9    8 1
     9   10    9 1
    10   11    9 1
    11   12   11 1
    12   13   11 1
    13   14    9 1
    14   15   14 1
    15   16   14 1
    16   17   16 ar
    17   18   17 1
    18   19   17 ar
    19   20   19 ar
    20   21   20 1
    21   22   20 ar
    22   23   22 1
    23   24   16 ar
    24   25   24 1
    25   26   19 1
    26   27   26 1
    27   28   26 1
    28   29   26 1
    29   30    8 2
    30   31    1 1
    31   32   30 1
    32   33   32 1
    33    7   31 1
    34   11   14 1
    35   22   24 ar
@<TRIPOS>SUBSTRUCTURE
     1 RES1 1

@<TRIPOS>CRYSIN
   7.3515   14.2047   12.6422  90.0000  91.1060  90.0000  14 1

