# MOL2 file generated by ConQuest
# Please check atom types

@<TRIPOS>MOLECULE
ATOVAG
    33    35     1
SMALL
NO_CHARGES
****
Generated from CSD

@<TRIPOS>ATOM
      1 C1        -0.4192   11.5881   13.4186 C.2       1 RES1    0.0000
      2 H1        -0.5562   10.8723   12.8096 H         1 RES1    0.0000
      3 C2        -1.2183   11.8640   14.4465 C.2       1 RES1    0.0000
      4 H2        -2.0035   11.3939   14.7006 H         1 RES1    0.0000
      5 C3        -0.6621   13.0002   15.0860 C.2       1 RES1    0.0000
      6 H3        -1.0080   13.4403   15.8521 H         1 RES1    0.0000
      7 C4         0.4476   13.3381   14.4040 C.2       1 RES1    0.0000
      8 C5         1.4466   14.3742   14.6208 C.2       1 RES1    0.0000
      9 C6         1.2806   15.2264   15.8319 C.3       1 RES1    0.0000
     10 H4         1.6126   14.8131   16.6811 H         1 RES1    0.0000
     11 C7         1.3746   16.7145   15.7889 C.3       1 RES1    0.0000
     12 H5         1.5559   17.1375   14.9130 H         1 RES1    0.0000
     13 H6         1.7884   17.1704   16.5634 H         1 RES1    0.0000
     14 C8         0.0270   16.0816   15.9910 C.3       1 RES1    0.0000
     15 H7        -0.5638   16.1014   15.1842 H         1 RES1    0.0000
     16 C9        -0.7050   16.0888   17.2909 C.ar      1 RES1    0.0000
     17 C10       -2.0616   15.7844   17.3081 C.ar      1 RES1    0.0000
     18 H8        -2.5148   15.6085   16.4918 H         1 RES1    0.0000
     19 C11       -2.7555   15.7350   18.4982 C.ar      1 RES1    0.0000
     20 H9        -3.6798   15.5153   18.4979 H         1 RES1    0.0000
     21 C12       -2.1135   16.0028   19.6888 C.ar      1 RES1    0.0000
     22 H10       -2.6019   15.9696   20.5041 H         1 RES1    0.0000
     23 C13       -0.7652   16.3199   19.7113 C.ar      1 RES1    0.0000
     24 C14       -0.0782   16.3651   18.4995 C.ar      1 RES1    0.0000
     25 H11        0.8447   16.5915   18.5005 H         1 RES1    0.0000
     26 C15       -0.0477   16.5955   21.0064 C.3       1 RES1    0.0000
     27 H12        0.8938   16.7950   20.8214 H         1 RES1    0.0000
     28 H13       -0.1072   15.8076   21.5865 H         1 RES1    0.0000
     29 H14       -0.4628   17.3625   21.4534 H         1 RES1    0.0000
     30 N1         2.4149   14.4109   13.7845 N.2       1 RES1    0.0000
     31 O1         0.6255   12.4691   13.3554 O.3       1 RES1    0.0000
     32 O2         3.3891   15.3720   14.0703 O.3       1 RES1    0.0000
     33 H15        3.9904   15.3433   13.4851 H         1 RES1    0.0000
@<TRIPOS>BOND
     1    1    2 1
     2    3    1 2
     3    4    3 1
     4    5    3 1
     5    6    5 1
     6    7    5 2
     7    8    7 1
     8    9    8 1
     9   10    9 1
    10   11    9 1
    11   12   11 1
    12   13   11 1
    13   14    9 1
    14   15   14 1
    15   16   14 1
    16   17   16 ar
    17   18   17 1
    18   19   17 ar
    19   20   19 1
    20   21   19 ar
    21   22   21 1
    22   23   21 ar
    23   24   16 ar
    24   25   24 1
    25   26   23 1
    26   27   26 1
    27   28   26 1
    28   29   26 1
    29   30    8 2
    30   31    1 1
    31   32   30 1
    32   33   32 1
    33    7   31 1
    34   11   14 1
    35   23   24 ar
@<TRIPOS>SUBSTRUCTURE
     1 RES1 1

@<TRIPOS>CRYSIN
   6.9182   14.3302   25.5885  90.0000  90.0000  90.0000  61 3

