# MOL2 file generated by ConQuest
# Please check atom types

@<TRIPOS>MOLECULE
ATUJIK
    36    38     1
SMALL
NO_CHARGES
****
Generated from CSD

@<TRIPOS>ATOM
      1 C1        10.4148    1.1909    7.2912 C.3       1 RES1    0.0000
      2 H1         9.9219    1.1416    8.1243 H         1 RES1    0.0000
      3 H2        11.2710    0.7540    7.4239 H         1 RES1    0.0000
      4 C2         9.6512    0.4740    6.2195 C.3       1 RES1    0.0000
      5 H3         9.5215   -0.4517    6.4804 H         1 RES1    0.0000
      6 H4         8.7769    0.8820    6.1206 H         1 RES1    0.0000
      7 C3        10.5407    1.8846    4.6089 C.3       1 RES1    0.0000
      8 H5         9.6807    2.3152    4.4862 H         1 RES1    0.0000
      9 H6        11.0174    1.9205    3.7643 H         1 RES1    0.0000
     10 C4        11.3206    2.6255    5.6506 C.3       1 RES1    0.0000
     11 H7        12.1996    2.2251    5.7418 H         1 RES1    0.0000
     12 H8        11.4388    3.5470    5.3702 H         1 RES1    0.0000
     13 C5        11.4514    3.2756    7.9449 C.3       1 RES1    0.0000
     14 H9        11.7296    4.1350    7.5906 H         1 RES1    0.0000
     15 H10       12.2511    2.7515    8.1053 H         1 RES1    0.0000
     16 C6        10.7465    3.5006    9.2615 C.3       1 RES1    0.0000
     17 H11       10.2833    2.6887    9.5181 H         1 RES1    0.0000
     18 H12       11.4045    3.6999    9.9469 H         1 RES1    0.0000
     19 C7         8.9480    4.8837   10.1749 C.2       1 RES1    0.0000
     20 C8         8.8461    4.1826   11.3733 C.2       1 RES1    0.0000
     21 H13        9.4081    3.4569   11.5218 H         1 RES1    0.0000
     22 C9         7.9225    4.5411   12.3571 C.2       1 RES1    0.0000
     23 H14        7.9065    4.0413   13.1419 H         1 RES1    0.0000
     24 C10        7.0429    5.5760   12.2441 C.2       1 RES1    0.0000
     25 C11        7.0802    6.3351   11.0462 C.2       1 RES1    0.0000
     26 C12        8.0306    5.9883   10.0458 C.2       1 RES1    0.0000
     27 N1         6.1330    5.8863   13.2996 N.pl3     1 RES1    0.0000
     28 N2         6.3737    7.3659   10.6283 N.2       1 RES1    0.0000
     29 N3         7.9109    6.7984    9.0225 N.2       1 RES1    0.0000
     30 N4         9.7911    4.5924    9.1838 N.pl3     1 RES1    0.0000
     31 H15        9.7684    5.0703    8.4698 H         1 RES1    0.0000
     32 N5        10.6365    2.5932    6.9405 N.3       1 RES1    0.0000
     33 O1        10.3378    0.5215    4.9782 O.3       1 RES1    0.0000
     34 O2         6.1526    5.2174   14.3257 O.2       1 RES1    0.0000
     35 O3         5.3605    6.8317   13.1371 O.2       1 RES1    0.0000
     36 O4         6.8932    7.6463    9.3720 O.3       1 RES1    0.0000
@<TRIPOS>BOND
     1    1    2 1
     2    3    1 1
     3    4    1 1
     4    5    4 1
     5    6    4 1
     6    7    8 1
     7    9    7 1
     8   10    7 1
     9   11   10 1
    10   12   10 1
    11   13   14 1
    12   15   13 1
    13   16   13 1
    14   17   16 1
    15   18   16 1
    16   19   20 2
    17   20   21 1
    18   22   20 1
    19   23   22 1
    20   24   22 2
    21   25   24 1
    22   26   19 1
    23   27   24 1
    24   28   25 2
    25   29   26 2
    26   30   16 1
    27   31   30 1
    28   32    1 1
    29   33    4 1
    30   34   27 2
    31   35   27 2
    32   36   28 1
    33    7   33 1
    34   10   32 1
    35   13   32 1
    36   19   30 1
    37   25   26 1
    38   29   36 1
@<TRIPOS>SUBSTRUCTURE
     1 RES1 1

@<TRIPOS>CRYSIN
   9.5339   11.8548   23.8250  90.0000  90.0000  90.0000  61 3

