# MOL2 file generated by ConQuest
# Please check atom types

@<TRIPOS>MOLECULE
ATUTUE
    29    25     2
SMALL
NO_CHARGES
****
Generated from CSD

@<TRIPOS>ATOM
      1 O1         7.4377    2.0811    3.3775 O.2       1 RES1    0.0000
      2 O2        10.8668    7.4888    3.3775 O.3       1 RES1    0.0000
      3 O3        11.2196    5.2888    3.3775 O.2       1 RES1    0.0000
      4 O4         6.6553    9.5363    3.3775 O.2       1 RES1    0.0000
      5 O5         4.8493    8.4514    3.3775 O.2       1 RES1    0.0000
      6 N1         9.0398    3.7105    3.3775 N.am      1 RES1    0.0000
      7 N2         6.0648    8.5091    3.3775 N.pl3     1 RES1    0.0000
      8 C1         8.2884    4.8888    3.3775 C.ar      1 RES1    0.0000
      9 C2         8.9610    6.1409    3.3775 C.ar      1 RES1    0.0000
     10 C3         8.2123    7.3179    3.3775 C.ar      1 RES1    0.0000
     11 C4         6.8252    7.2562    3.3775 C.ar      1 RES1    0.0000
     12 C5         6.1538    6.0467    3.3775 C.ar      1 RES1    0.0000
     13 C6         6.8777    4.8800    3.3775 C.ar      1 RES1    0.0000
     14 C7         8.6164    2.3967    3.3775 C.2       1 RES1    0.0000
     15 C8         9.7319    1.3947    3.3775 C.3       1 RES1    0.0000
     16 C9        10.4522    6.2281    3.3775 C.2       1 RES1    0.0000
     17 C10       12.3034    7.7167    3.3775 C.3       1 RES1    0.0000
     18 H1         9.8936    3.8206    3.3775 H         1 RES1    0.0000
     19 H2         8.6419    8.1430    3.3775 H         1 RES1    0.0000
     20 H3         5.2239    6.0246    3.3775 H         1 RES1    0.0000
     21 H4         6.4280    4.0655    3.3775 H         1 RES1    0.0000
     22 H5        10.4676    1.7341    2.8614 H         1 RES1    0.0000
     23 H6         9.4232    0.5714    2.9911 Du        2 SUP2    0.0000
     24 H7        10.0202    1.2364    4.2792 Du        2 SUP2    0.0000
     25 H8        12.7079    7.2072    4.0840 H         1 RES1    0.0000
     26 H9        12.4792    8.6507    3.5139 Du        2 SUP2    0.0000
     27 H10       12.6717    7.4422    2.5344 Du        2 SUP2    0.0000
     28 H8F       12.7079    7.2072    2.6709 H         1 RES1    0.0000
     29 H5F       10.4676    1.7341    3.8935 H         1 RES1    0.0000
@<TRIPOS>BOND
     1    1   14 2
     2    2   16 1
     3    3   16 2
     4    4    7 2
     5    5    7 2
     6    6    8 1
     7    7   11 1
     8    8    9 ar
     9    9   10 ar
    10   10   11 ar
    11   11   12 ar
    12   12   13 ar
    13   13    8 ar
    14   14    6 1
    15   15   14 1
    16   16    9 1
    17   17    2 1
    18   18    6 1
    19   19   10 1
    20   20   12 1
    21   21   13 1
    22   22   15 1
    23   25   17 1
    24   28   17 1
    25   29   15 1
@<TRIPOS>SUBSTRUCTURE
     1 RES1 1
     2 SUP2 23

@<TRIPOS>CRYSIN
  16.4482   19.9095    6.7549  90.0000  90.0000  90.0000  72 1

