# MOL2 file generated by ConQuest
# Please check atom types

@<TRIPOS>MOLECULE
AVAHIO
    40    40     1
SMALL
NO_CHARGES
****
Generated from CSD

@<TRIPOS>ATOM
      1 N1         3.5243    9.6179    6.1136 N.pl3     1 RES1    0.0000
      2 H1         3.0330    9.7992    5.5121 H         1 RES1    0.0000
      3 C1         3.4279    8.2797    6.7159 C.3       1 RES1    0.0000
      4 C2         3.7030    7.2082    5.6763 C.3       1 RES1    0.0000
      5 H2         3.0688    7.2296    5.0295 H         1 RES1    0.0000
      6 H3         4.6073    7.3756    5.1839 H         1 RES1    0.0000
      7 H4         3.8023    6.3844    6.0624 H         1 RES1    0.0000
      8 C3         2.0398    8.0924    7.2990 C.3       1 RES1    0.0000
      9 H5         1.9487    7.1672    7.7518 H         1 RES1    0.0000
     10 H6         1.4011    8.2568    6.6223 H         1 RES1    0.0000
     11 H7         1.8030    8.6784    8.0027 H         1 RES1    0.0000
     12 C4         4.5339    8.4047    7.8135 C.3       1 RES1    0.0000
     13 C5         5.9477    8.1704    7.2807 C.3       1 RES1    0.0000
     14 H8         6.5039    8.4103    8.0221 H         1 RES1    0.0000
     15 H9         6.0320    7.1800    7.0760 H         1 RES1    0.0000
     16 H10        6.0779    8.6470    6.4292 H         1 RES1    0.0000
     17 C6         4.3049    7.5915    9.0656 C.3       1 RES1    0.0000
     18 H11        4.3080    6.6844    8.8233 H         1 RES1    0.0000
     19 H12        3.3239    7.7636    9.4894 H         1 RES1    0.0000
     20 H13        4.9805    7.7206    9.6631 H         1 RES1    0.0000
     21 N2         4.3839    9.8560    8.0858 N.3       1 RES1    0.0000
     22 O1         5.3292   10.4118    8.9498 O.3       1 RES1    0.0000
     23 H14        4.7753   11.2081    9.2577 H         1 RES1    0.0000
     24 C7         3.9925   10.5218    6.9901 C.2       1 RES1    0.0000
     25 C8         3.9731   11.9419    6.8105 C.2       1 RES1    0.0000
     26 C9         4.0544   12.4981    5.4851 C.2       1 RES1    0.0000
     27 O2         3.8994   13.6736    5.1743 O.2       1 RES1    0.0000
     28 O3         4.3840   11.5932    4.5449 O.3       1 RES1    0.0000
     29 C10        4.6788   12.0513    3.2117 C.3       1 RES1    0.0000
     30 H15        5.4720   12.7415    3.2822 H         1 RES1    0.0000
     31 H16        3.9086   12.4694    2.9057 H         1 RES1    0.0000
     32 C11        5.0272   10.8494    2.4085 C.3       1 RES1    0.0000
     33 H17        4.1753   10.2711    2.3458 H         1 RES1    0.0000
     34 H18        5.3146   11.1537    1.4673 H         1 RES1    0.0000
     35 H19        5.6656   10.4427    2.8092 H         1 RES1    0.0000
     36 C12        3.8203   12.8000    7.9728 C.2       1 RES1    0.0000
     37 N3         3.6621   14.1201    7.7904 N.am      1 RES1    0.0000
     38 H20        3.6305   14.3778    6.9602 H         1 RES1    0.0000
     39 H21        3.4348   14.6265    8.5337 H         1 RES1    0.0000
     40 O4         3.7897   12.3624    9.1505 O.2       1 RES1    0.0000
@<TRIPOS>BOND
     1    1    2 1
     2    3    1 1
     3    4    3 1
     4    5    4 1
     5    6    4 1
     6    7    4 1
     7    8    3 1
     8    9    8 1
     9   10    8 1
    10   11    8 1
    11   12    3 1
    12   13   12 1
    13   14   13 1
    14   15   13 1
    15   16   13 1
    16   17   12 1
    17   18   17 1
    18   19   17 1
    19   20   17 1
    20   21   12 1
    21   22   21 1
    22   23   22 1
    23   24    1 1
    24   25   24 2
    25   26   25 1
    26   27   26 2
    27   28   26 1
    28   29   28 1
    29   30   29 1
    30   31   29 1
    31   32   29 1
    32   33   32 1
    33   34   32 1
    34   35   32 1
    35   36   25 1
    36   37   36 1
    37   38   37 1
    38   39   37 1
    39   40   36 2
    40   21   24 1
@<TRIPOS>SUBSTRUCTURE
     1 RES1 1

@<TRIPOS>CRYSIN
   7.6330    9.9930   10.6910  65.5200  79.8600  81.1800   2 1

