# MOL2 file generated by ConQuest
# Please check atom types

@<TRIPOS>MOLECULE
AVUSAN
    31    31     1
SMALL
NO_CHARGES
****
Generated from CSD

@<TRIPOS>ATOM
      1 O1        -2.9678    2.9755    5.2371 O.3       1 RES1    0.0000
      2 O2         2.7906    2.2600    2.6458 O.2       1 RES1    0.0000
      3 O3         3.4630    0.2920    5.2152 O.2       1 RES1    0.0000
      4 O4         5.0119    1.5395    6.2949 O.3       1 RES1    0.0000
      5 O5         3.3784    4.7810    4.5605 O.3       1 RES1    0.0000
      6 H1         3.7651    5.5021    4.7512 H         1 RES1    0.0000
      7 N1         4.0057    3.7305    5.2185 N.2       1 RES1    0.0000
      8 C1        -4.0090    2.7188    4.2787 C.3       1 RES1    0.0000
      9 H2        -3.8959    3.3122    3.5065 H         1 RES1    0.0000
     10 H3        -4.8820    2.8831    4.6929 H         1 RES1    0.0000
     11 H4        -3.9584    1.7860    3.9838 H         1 RES1    0.0000
     12 C2        -1.6845    2.8258    4.8307 C.ar      1 RES1    0.0000
     13 C3        -1.3171    2.4264    3.5477 C.ar      1 RES1    0.0000
     14 H5        -1.9809    2.2246    2.8987 H         1 RES1    0.0000
     15 C4         0.0252    2.3275    3.2291 C.ar      1 RES1    0.0000
     16 H6         0.2782    2.0661    2.3520 H         1 RES1    0.0000
     17 C5         1.0140    2.6056    4.1752 C.ar      1 RES1    0.0000
     18 C6         0.6280    2.9877    5.4670 C.ar      1 RES1    0.0000
     19 H7         1.2900    3.1718    6.1235 H         1 RES1    0.0000
     20 C7        -0.7089    3.0982    5.7919 C.ar      1 RES1    0.0000
     21 H8        -0.9652    3.3593    6.6689 H         1 RES1    0.0000
     22 C8         2.4230    2.4791    3.7891 C.2       1 RES1    0.0000
     23 C9         3.4918    2.6177    4.8625 C.2       1 RES1    0.0000
     24 C10        3.9902    1.3501    5.4740 C.2       1 RES1    0.0000
     25 C11        5.5347    0.3856    7.0255 C.3       1 RES1    0.0000
     26 H9         5.2105   -0.4530    6.6120 H         1 RES1    0.0000
     27 H10        5.2252    0.4103    7.9649 H         1 RES1    0.0000
     28 C12        7.0341    0.4360    6.9775 C.3       1 RES1    0.0000
     29 H11        7.3363    0.2837    6.0583 H         1 RES1    0.0000
     30 H12        7.4035   -0.2584    7.5625 H         1 RES1    0.0000
     31 H13        7.3412    1.3156    7.2808 H         1 RES1    0.0000
@<TRIPOS>BOND
     1    1    8 1
     2    2   22 2
     3    3   24 2
     4    4   24 1
     5    5    6 1
     6    7    5 1
     7    8    9 1
     8   10    8 1
     9   11    8 1
    10   12    1 1
    11   13   12 ar
    12   14   13 1
    13   15   13 ar
    14   16   15 1
    15   17   15 ar
    16   18   17 ar
    17   19   18 1
    18   20   12 ar
    19   21   20 1
    20   22   17 1
    21   23    7 2
    22   24   23 1
    23   25    4 1
    24   26   25 1
    25   27   25 1
    26   28   25 1
    27   29   28 1
    28   30   28 1
    29   31   28 1
    30   18   20 ar
    31   22   23 1
@<TRIPOS>SUBSTRUCTURE
     1 RES1 1

@<TRIPOS>CRYSIN
  11.5240    7.2367   14.8660  90.0000 111.0270  90.0000  14 1

