# MOL2 file generated by ConQuest
# Please check atom types

@<TRIPOS>MOLECULE
AWAXON
    49    52     1
SMALL
NO_CHARGES
****
Generated from CSD

@<TRIPOS>ATOM
      1 O1         5.1726    5.6697   -0.0571 O.2       1 RES1    0.0000
      2 N1         4.4087    1.2196   -0.3882 N.2       1 RES1    0.0000
      3 O2        -0.6161    3.2125   -2.9928 O.2       1 RES1    0.0000
      4 N2         4.4018    3.1866    0.7193 N.pl3     1 RES1    0.0000
      5 N3         0.2311    2.3416   -2.8053 N.pl3     1 RES1    0.0000
      6 C1         3.3084    1.9829   -0.7910 C.ar      1 RES1    0.0000
      7 C2         2.2926    1.6720   -1.6864 C.ar      1 RES1    0.0000
      8 C3         5.4602    5.3529    1.0976 C.2       1 RES1    0.0000
      9 C4         2.3369    4.1791   -0.3409 C.ar      1 RES1    0.0000
     10 C5         1.3235    2.6326   -1.8740 C.ar      1 RES1    0.0000
     11 O3         0.1996    1.2396   -3.3500 O.2       1 RES1    0.0000
     12 C6         5.0057    1.9570    0.5154 C.2       1 RES1    0.0000
     13 C7         4.5023    4.0495    2.9716 C.2       1 RES1    0.0000
     14 C8         2.9887    2.0248    3.2000 C.ar      1 RES1    0.0000
     15 C9         1.3378    3.8682   -1.2461 C.ar      1 RES1    0.0000
     16 C10        6.2213    1.5744    1.2885 C.3       1 RES1    0.0000
     17 C11        2.1587    1.2436    3.9796 C.ar      1 RES1    0.0000
     18 C12        7.3027    5.5900    2.8232 C.ar      1 RES1    0.0000
     19 C13        4.7975    4.1591    1.6848 C.2       1 RES1    0.0000
     20 C14        3.6887    3.1049    3.7333 C.ar      1 RES1    0.0000
     21 C15        3.2996    3.2125   -0.1272 C.ar      1 RES1    0.0000
     22 C16        1.9922    1.4986    5.3366 C.ar      1 RES1    0.0000
     23 C17        1.0148    0.7015    6.1700 C.3       1 RES1    0.0000
     24 C18        3.5455    3.3341    5.0968 C.ar      1 RES1    0.0000
     25 C19        6.4856    6.1440    1.8479 C.ar      1 RES1    0.0000
     26 C20        8.4874    7.6547    3.0206 C.ar      1 RES1    0.0000
     27 C21        8.2919    6.3573    3.4006 C.ar      1 RES1    0.0000
     28 C22        2.7189    2.5369    5.8683 C.ar      1 RES1    0.0000
     29 C23        7.6712    8.2286    2.0681 C.ar      1 RES1    0.0000
     30 C24        6.6734    7.4693    1.4760 C.ar      1 RES1    0.0000
     31 H1         2.3251    5.0277    0.1055 H         1 RES1    0.0000
     32 H2         3.0927    1.8135    2.2702 H         1 RES1    0.0000
     33 H3         0.6513    4.5081   -1.4485 H         1 RES1    0.0000
     34 H4         6.4444    2.2855    1.8924 H         1 RES1    0.0000
     35 H5         6.9527    1.4247    0.6848 H         1 RES1    0.0000
     36 H6         6.0498    0.7719    1.7877 H         1 RES1    0.0000
     37 H7         1.6700    0.5109    3.5961 H         1 RES1    0.0000
     38 H8         7.1697    4.6754    3.0801 H         1 RES1    0.0000
     39 H9         1.0277    1.0076    7.0799 H         1 RES1    0.0000
     40 H10        1.2732   -0.2232    6.1403 H         1 RES1    0.0000
     41 H11        0.1286    0.7969    5.8129 H         1 RES1    0.0000
     42 H12        4.0420    4.0500    5.4979 H         1 RES1    0.0000
     43 H13        9.1968    8.1650    3.4170 H         1 RES1    0.0000
     44 H14        8.8598    5.9686    4.0693 H         1 RES1    0.0000
     45 H15        2.6366    2.7220    6.8076 H         1 RES1    0.0000
     46 H16        7.7768    9.1536    1.8330 H         1 RES1    0.0000
     47 H17        6.1103    7.8342    0.7892 H         1 RES1    0.0000
     48 H18        2.2857    0.8241   -2.1373 H         1 RES1    0.0000
     49 H19        4.8554    4.6818    3.6020 H         1 RES1    0.0000
@<TRIPOS>BOND
     1    1    8 2
     2    2    6 1
     3    3    5 2
     4    4   12 1
     5    5   10 1
     6    6    7 ar
     7    7   10 ar
     8    8   19 1
     9    9   15 ar
    10   10   15 ar
    11   11    5 2
    12   12    2 2
    13   13   19 2
    14   14   17 ar
    15   15   33 1
    16   16   12 1
    17   17   22 ar
    18   18   25 ar
    19   19    4 1
    20   20   13 1
    21   21    4 1
    22   22   23 1
    23   23   39 1
    24   24   20 ar
    25   25    8 1
    26   26   27 ar
    27   27   18 ar
    28   28   22 ar
    29   29   26 ar
    30   30   25 ar
    31   31    9 1
    32   32   14 1
    33   34   16 1
    34   35   16 1
    35   36   16 1
    36   37   17 1
    37   38   18 1
    38   40   23 1
    39   41   23 1
    40   42   24 1
    41   43   26 1
    42   44   27 1
    43   45   28 1
    44   46   29 1
    45   47   30 1
    46   48    7 1
    47   49   13 1
    48    6   21 ar
    49    9   21 ar
    50   14   20 ar
    51   24   28 ar
    52   29   30 ar
@<TRIPOS>SUBSTRUCTURE
     1 RES1 1

@<TRIPOS>CRYSIN
   6.3134   19.9288   16.3925  90.0000  95.7589  90.0000  14 1

