# MOL2 file generated by ConQuest
# Please check atom types

@<TRIPOS>MOLECULE
AWIWUZ01
    22    22     1
SMALL
NO_CHARGES
****
Generated from CSD

@<TRIPOS>ATOM
      1 C1         1.8187    5.5365   13.6952 C.3       1 RES1    0.0000
      2 H1         1.4281    5.2310   14.5295 H         1 RES1    0.0000
      3 H2         1.6824    6.4935   13.6179 H         1 RES1    0.0000
      4 C2         1.2514    4.8699   12.6134 C.ar      1 RES1    0.0000
      5 C3         0.1823    4.0050   12.8886 C.ar      1 RES1    0.0000
      6 H3        -0.1355    3.8718   13.7526 H         1 RES1    0.0000
      7 C4        -0.3312    3.4090   11.8750 C.ar      1 RES1    0.0000
      8 H4        -1.0366    2.8115   11.9852 H         1 RES1    0.0000
      9 C5         1.7906    5.1218   11.2913 C.ar      1 RES1    0.0000
     10 H5         2.5014    5.7092   11.1770 H         1 RES1    0.0000
     11 C6         0.1945    3.6764   10.5865 C.ar      1 RES1    0.0000
     12 H6        -0.2157    3.2488    9.8695 H         1 RES1    0.0000
     13 C7         1.2751    4.5248   10.2845 C.ar      1 RES1    0.0000
     14 H7         1.5907    4.6430    9.4178 H         1 RES1    0.0000
     15 O1         3.2230    5.2179   13.6443 O.3       1 RES1    0.0000
     16 N1         3.3640    3.8698   14.0176 N.am      1 RES1    0.0000
     17 H8         3.1603    3.2097   13.5049 H         1 RES1    0.0000
     18 C8         3.8259    3.7320   15.1964 C.2       1 RES1    0.0000
     19 O2         4.2544    2.6202   15.4586 O.2       1 RES1    0.0000
     20 N2         3.7102    4.7802   16.0005 N.am      1 RES1    0.0000
     21 H9         3.9553    4.7206   16.8234 H         1 RES1    0.0000
     22 H10        3.3899    5.5194   15.6995 H         1 RES1    0.0000
@<TRIPOS>BOND
     1    1    2 1
     2    3    1 1
     3    4    1 1
     4    5    4 ar
     5    6    5 1
     6    7    5 ar
     7    8    7 1
     8    9    4 ar
     9   10    9 1
    10   11    7 ar
    11   12   11 1
    12   13    9 ar
    13   14   13 1
    14   15    1 1
    15   16   15 1
    16   17   16 1
    17   18   16 1
    18   19   18 2
    19   20   18 1
    20   21   20 1
    21   22   20 1
    22   11   13 ar
@<TRIPOS>SUBSTRUCTURE
     1 RES1 1

@<TRIPOS>CRYSIN
  12.4560    5.0081   13.6810  90.0000  96.0170  90.0000  14 1

