# MOL2 file generated by ConQuest
# Please check atom types

@<TRIPOS>MOLECULE
AWIZIR01
    50    53     1
SMALL
NO_CHARGES
****
Generated from CSD

@<TRIPOS>ATOM
      1 C1         5.3076    3.0041   11.0313 C.ar      1 RES1    0.0000
      2 C2         4.3714    2.1246   11.5341 C.ar      1 RES1    0.0000
      3 H1         4.3427    1.9279   12.4629 H         1 RES1    0.0000
      4 C3         3.4730    1.5332   10.6602 C.ar      1 RES1    0.0000
      5 H2         2.8238    0.9255   10.9955 H         1 RES1    0.0000
      6 C4         3.5084    1.8185    9.2905 C.ar      1 RES1    0.0000
      7 C5         4.4304    2.7706    8.8352 C.ar      1 RES1    0.0000
      8 H3         4.4305    3.0158    7.9168 H         1 RES1    0.0000
      9 C6         5.3391    3.3596    9.6940 C.ar      1 RES1    0.0000
     10 H4         5.9702    3.9931    9.3751 H         1 RES1    0.0000
     11 C7         2.5616    1.1657    8.3454 C.2       1 RES1    0.0000
     12 C8         1.1956    0.8523    8.8678 C.ar      1 RES1    0.0000
     13 C9         0.4319    1.8052    9.5472 C.ar      1 RES1    0.0000
     14 H5         0.7960    2.6667    9.7152 H         1 RES1    0.0000
     15 C10       -0.8512    1.5079    9.9779 C.ar      1 RES1    0.0000
     16 H6        -1.3759    2.1586   10.4295 H         1 RES1    0.0000
     17 C11       -1.3479    0.2437    9.7353 C.ar      1 RES1    0.0000
     18 C12       -0.6047   -0.7440    9.1175 C.ar      1 RES1    0.0000
     19 H7        -0.9612   -1.6151    8.9895 H         1 RES1    0.0000
     20 C13        0.6710   -0.4292    8.6907 C.ar      1 RES1    0.0000
     21 H8         1.1997   -1.0966    8.2706 H         1 RES1    0.0000
     22 C14        2.8853    0.8498    7.0594 C.2       1 RES1    0.0000
     23 C15        4.2771    0.7616    6.5389 C.ar      1 RES1    0.0000
     24 C16        5.2957    0.1512    7.2744 C.ar      1 RES1    0.0000
     25 H9         5.1242   -0.1426    8.1610 H         1 RES1    0.0000
     26 C17        6.5564   -0.0302    6.7214 C.ar      1 RES1    0.0000
     27 H10        7.2427   -0.4468    7.2299 H         1 RES1    0.0000
     28 C18        6.8124    0.3915    5.4350 C.ar      1 RES1    0.0000
     29 H11        7.6701    0.2497    5.0527 H         1 RES1    0.0000
     30 C19        5.8274    1.0197    4.7010 C.ar      1 RES1    0.0000
     31 H12        6.0152    1.3299    3.8226 H         1 RES1    0.0000
     32 C20        4.5681    1.1965    5.2424 C.ar      1 RES1    0.0000
     33 H13        3.8912    1.6194    4.7264 H         1 RES1    0.0000
     34 C21        1.8292    0.5720    6.0384 C.ar      1 RES1    0.0000
     35 C22        0.7360    1.4335    5.9131 C.ar      1 RES1    0.0000
     36 H14        0.6373    2.1577    6.5201 H         1 RES1    0.0000
     37 C23       -0.2031    1.2469    4.9181 C.ar      1 RES1    0.0000
     38 H15       -0.9391    1.8432    4.8450 H         1 RES1    0.0000
     39 C24       -0.0767    0.1944    4.0269 C.ar      1 RES1    0.0000
     40 H16       -0.7198    0.0717    3.3388 H         1 RES1    0.0000
     41 C25        0.9929   -0.6783    4.1449 C.ar      1 RES1    0.0000
     42 H17        1.0741   -1.4120    3.5465 H         1 RES1    0.0000
     43 C26        1.9460   -0.4843    5.1333 C.ar      1 RES1    0.0000
     44 H18        2.6867   -1.0767    5.1942 H         1 RES1    0.0000
     45 N1         6.3353    3.5461   11.9239 N.pl3     1 RES1    0.0000
     46 N2        -2.7202   -0.0883   10.1545 N.pl3     1 RES1    0.0000
     47 O1         6.1989    3.4069   13.1361 O.2       1 RES1    0.0000
     48 O2         7.3084    4.1001   11.4172 O.2       1 RES1    0.0000
     49 O3        -3.3337    0.7391   10.8191 O.2       1 RES1    0.0000
     50 O4        -3.1912   -1.1685    9.8149 O.2       1 RES1    0.0000
@<TRIPOS>BOND
     1    1    2 ar
     2    2    3 1
     3    4    2 ar
     4    5    4 1
     5    6    4 ar
     6    7    6 ar
     7    8    7 1
     8    9    1 ar
     9   10    9 1
    10   11    6 1
    11   12   11 1
    12   13   12 ar
    13   14   13 1
    14   15   13 ar
    15   16   15 1
    16   17   15 ar
    17   18   17 ar
    18   19   18 1
    19   20   12 ar
    20   21   20 1
    21   22   11 2
    22   23   22 1
    23   24   23 ar
    24   25   24 1
    25   26   24 ar
    26   27   26 1
    27   28   26 ar
    28   29   28 1
    29   30   28 ar
    30   31   30 1
    31   32   23 ar
    32   33   32 1
    33   34   22 1
    34   35   34 ar
    35   36   35 1
    36   37   35 ar
    37   38   37 1
    38   39   37 ar
    39   40   39 1
    40   41   39 ar
    41   42   41 1
    42   43   34 ar
    43   44   43 1
    44   45    1 1
    45   46   17 1
    46   47   45 2
    47   48   45 2
    48   49   46 2
    49   50   46 2
    50    7    9 ar
    51   18   20 ar
    52   30   32 ar
    53   41   43 ar
@<TRIPOS>SUBSTRUCTURE
     1 RES1 1

@<TRIPOS>CRYSIN
  10.4723    8.6413   22.9380  90.0000  95.7730  90.0000  14 1

