# MOL2 file generated by ConQuest
# Please check atom types

@<TRIPOS>MOLECULE
AWOBAR
    54    57     1
SMALL
NO_CHARGES
****
Generated from CSD

@<TRIPOS>ATOM
      1 C1        19.9380    8.9458    1.6235 C.ar      1 RES1    0.0000
      2 C2        17.8186    2.5932   -1.1006 C.ar      1 RES1    0.0000
      3 H1        17.6073    3.3717   -1.6034 H         1 RES1    0.0000
      4 C3        17.5675    1.3491   -1.6326 C.ar      1 RES1    0.0000
      5 H2        17.1950    1.2626   -2.5031 H         1 RES1    0.0000
      6 C4        18.6849    8.3946    1.7352 C.ar      1 RES1    0.0000
      7 H3        17.9757    8.8783    2.1419 H         1 RES1    0.0000
      8 C5        18.3820    2.7258    0.1720 C.ar      1 RES1    0.0000
      9 C6        18.7110    4.0570    0.7536 C.2       1 RES1    0.0000
     10 C7        17.8632    0.2332   -0.8858 C.ar      1 RES1    0.0000
     11 C8        20.7597    7.0348    0.5018 C.ar      1 RES1    0.0000
     12 H4        21.4669    6.5781    0.0591 H         1 RES1    0.0000
     13 C9        19.5210    6.4160    0.6350 C.ar      1 RES1    0.0000
     14 N1        17.6463   -1.0758   -1.4887 N.pl3     1 RES1    0.0000
     15 C10       18.6041    1.5803    0.9195 C.ar      1 RES1    0.0000
     16 H5        18.9257    1.6610    1.8102 H         1 RES1    0.0000
     17 C11       18.4830    7.1136    1.2396 C.ar      1 RES1    0.0000
     18 H6        17.6272    6.7095    1.3147 H         1 RES1    0.0000
     19 N2        20.1854   10.2613    2.2171 N.pl3     1 RES1    0.0000
     20 O1        21.2096   10.8490    1.9238 O.2       1 RES1    0.0000
     21 C12       18.3503    4.1823    2.1996 C.ar      1 RES1    0.0000
     22 C13       19.8219    4.8905   -1.3293 C.ar      1 RES1    0.0000
     23 C14       19.4606    5.8229   -2.2925 C.ar      1 RES1    0.0000
     24 H7        18.9058    6.5542   -2.0492 H         1 RES1    0.0000
     25 O2        19.3732   10.7050    3.0102 O.2       1 RES1    0.0000
     26 C15       20.6617    3.8439   -1.6885 C.ar      1 RES1    0.0000
     27 H8        20.9431    3.2183   -1.0313 H         1 RES1    0.0000
     28 C16       19.3166    5.0544    0.0655 C.2       1 RES1    0.0000
     29 C17       18.3665    0.3242    0.3957 C.ar      1 RES1    0.0000
     30 H9        18.5453   -0.4581    0.9051 H         1 RES1    0.0000
     31 C18       17.0293    4.0203    2.5904 C.ar      1 RES1    0.0000
     32 H10       16.3586    3.8636    1.9377 H         1 RES1    0.0000
     33 C19       20.9766    8.2998    1.0027 C.ar      1 RES1    0.0000
     34 H11       21.8274    8.7150    0.9199 H         1 RES1    0.0000
     35 C20       21.0927    3.7081   -2.9994 C.ar      1 RES1    0.0000
     36 H12       21.6541    2.9853   -3.2537 H         1 RES1    0.0000
     37 O3        18.0118   -2.0636   -0.8793 O.2       1 RES1    0.0000
     38 C21       19.8944    5.7042   -3.5985 C.ar      1 RES1    0.0000
     39 H13       19.6466    6.3451   -4.2555 H         1 RES1    0.0000
     40 C22       19.3340    4.3726    3.1634 C.ar      1 RES1    0.0000
     41 H14       20.2401    4.4730    2.8992 H         1 RES1    0.0000
     42 O4        21.0732    5.4702   -6.0508 O.2       1 RES1    0.0000
     43 C23       17.6874    4.2761    4.8579 C.ar      1 RES1    0.0000
     44 C24       18.9970    4.4167    4.5089 C.ar      1 RES1    0.0000
     45 H15       19.6646    4.5427    5.1727 H         1 RES1    0.0000
     46 C25       20.6922    4.6395   -3.9213 C.ar      1 RES1    0.0000
     47 N3        17.3066    4.3573    6.2857 N.pl3     1 RES1    0.0000
     48 O5        16.1453    4.2235    6.5642 O.2       1 RES1    0.0000
     49 C26       16.6874    4.0879    3.9295 C.ar      1 RES1    0.0000
     50 H16       15.7810    4.0070    4.2032 H         1 RES1    0.0000
     51 O6        21.5613    3.4273   -5.6714 O.2       1 RES1    0.0000
     52 N4        21.1385    4.4997   -5.3192 N.pl3     1 RES1    0.0000
     53 O7        18.1848    4.5031    7.1090 O.2       1 RES1    0.0000
     54 O8        17.1182   -1.1252   -2.5936 O.2       1 RES1    0.0000
@<TRIPOS>BOND
     1    1    6 ar
     2    2    3 1
     3    4    2 ar
     4    5    4 1
     5    6    7 1
     6    8    2 ar
     7    9    8 1
     8   10    4 ar
     9   11   12 1
    10   13   11 ar
    11   14   10 1
    12   15    8 ar
    13   16   15 1
    14   17    6 ar
    15   18   17 1
    16   19    1 1
    17   20   19 2
    18   21    9 1
    19   22   23 ar
    20   23   24 1
    21   25   19 2
    22   26   22 ar
    23   27   26 1
    24   28    9 2
    25   29   10 ar
    26   30   29 1
    27   31   21 ar
    28   32   31 1
    29   33    1 ar
    30   34   33 1
    31   35   26 ar
    32   36   35 1
    33   37   14 2
    34   38   23 ar
    35   39   38 1
    36   40   21 ar
    37   41   40 1
    38   42   52 2
    39   43   44 ar
    40   44   40 ar
    41   45   44 1
    42   46   35 ar
    43   47   43 1
    44   48   47 2
    45   49   31 ar
    46   50   49 1
    47   51   52 2
    48   52   46 1
    49   53   47 2
    50   54   14 2
    51   11   33 ar
    52   13   17 ar
    53   13   28 1
    54   15   29 ar
    55   22   28 1
    56   38   46 ar
    57   43   49 ar
@<TRIPOS>SUBSTRUCTURE
     1 RES1 1

@<TRIPOS>CRYSIN
  19.9155   19.9155   13.4286  90.0000  90.0000  90.0000  86 1

