# MOL2 file generated by ConQuest
# Please check atom types

@<TRIPOS>MOLECULE
AWOJOL
    27    31     1
SMALL
USER_CHARGES
****
Generated from CSD

@<TRIPOS>ATOM
      1 O1        -2.4421   -0.4586   10.4640 O.3       1 RES1    0.0000
      2 O2        -0.5995   -1.1906   11.5743 O.2       1 RES1   -1.0000
      3 O3         2.8248    1.5884   10.4250 O.3       1 RES1    0.0000
      4 O4         5.0420    2.0896    8.7057 O.2       1 RES1    0.0000
      5 O5         0.2174    0.5865    6.8318 O.2       1 RES1    0.0000
      6 N1        -1.6501    1.1493    9.3459 N.pl3     1 RES1    1.0000
      7 N2        -2.7738    0.5222    9.5599 N.2       1 RES1    0.0000
      8 N3         1.5316    1.2961   10.9137 N.2       1 RES1    0.0000
      9 C1        -1.0779   -0.3929   10.8091 C.2       1 RES1    0.0000
     10 C2        -0.5955    0.6767   10.0361 C.2       1 RES1    0.0000
     11 C3        -1.6737    2.2979    8.4715 C.ar      1 RES1    0.0000
     12 C4        -1.0630    3.4543    8.8946 C.ar      1 RES1    0.0000
     13 C5        -1.0476    4.5386    8.0327 C.ar      1 RES1    0.0000
     14 C6        -1.6483    4.4686    6.8100 C.ar      1 RES1    0.0000
     15 C7        -2.2805    3.3053    6.4086 C.ar      1 RES1    0.0000
     16 C8        -2.2925    2.2022    7.2316 C.ar      1 RES1    0.0000
     17 C9         0.7806    1.0969    9.8472 C.2       1 RES1    0.0000
     18 C10        2.7705    1.5730    9.0883 C.2       1 RES1    0.0000
     19 C11        1.5390    1.2661    8.6510 C.2       1 RES1    0.0000
     20 C12        3.9530    1.8316    8.2435 C.2       1 RES1    0.0000
     21 C13        1.2597    1.0612    7.2222 C.2       1 RES1    0.0000
     22 C14        3.6614    1.7666    6.7912 C.ar      1 RES1    0.0000
     23 C15        2.3906    1.4178    6.3009 C.ar      1 RES1    0.0000
     24 C16        2.1673    1.3954    4.9361 C.ar      1 RES1    0.0000
     25 C17        3.2033    1.6981    4.0616 C.ar      1 RES1    0.0000
     26 C18        4.4496    2.0162    4.5426 C.ar      1 RES1    0.0000
     27 C19        4.6857    2.0491    5.8949 C.ar      1 RES1    0.0000
@<TRIPOS>BOND
     1    1    7 1
     2    2    9 1
     3    3    8 1
     4    4   20 2
     5    5   21 2
     6    6    7 2
     7    8   17 2
     8    9    1 1
     9   10    6 1
    10   11    6 1
    11   12   11 ar
    12   13   12 ar
    13   14   13 ar
    14   15   14 ar
    15   16   11 ar
    16   17   10 1
    17   18    3 1
    18   19   17 1
    19   20   18 1
    20   21   19 1
    21   22   20 1
    22   23   21 1
    23   24   23 ar
    24   25   24 ar
    25   26   25 ar
    26   27   22 ar
    27    9   10 2
    28   15   16 ar
    29   18   19 2
    30   22   23 ar
    31   26   27 ar
@<TRIPOS>SUBSTRUCTURE
     1 RES1 1

@<TRIPOS>CRYSIN
  14.4170    6.9910   17.1520  90.0000 114.4360  90.0000 231 1

