# MOL2 file generated by ConQuest
# Please check atom types

@<TRIPOS>MOLECULE
AWOJIF
    32    36     1
SMALL
USER_CHARGES
****
Generated from CSD

@<TRIPOS>ATOM
      1 O1         3.4089    8.3877    9.8216 O.3       1 RES1    0.0000
      2 O2         3.4351    9.2869    7.7405 O.2       1 RES1   -1.0000
      3 O3         7.1538    2.1243   11.4492 O.3       1 RES1    0.0000
      4 O4         6.8917    6.1296    5.8016 O.3       1 RES1    0.0000
      5 O5         5.8105    4.7183    3.3853 O.2       1 RES1    0.0000
      6 O6         2.4905    6.3758    6.0175 O.2       1 RES1    0.0000
      7 N1         4.6509    6.6839    9.5677 N.pl3     1 RES1    1.0000
      8 N2         3.9300    7.3062   10.4715 N.2       1 RES1    0.0000
      9 N3         6.4803    6.3353    7.1264 N.2       1 RES1    0.0000
     10 N4         3.9740    5.2467    4.6645 N.am      1 RES1    0.0000
     11 C1         3.8054    8.4045    8.4729 C.2       1 RES1    0.0000
     12 C2         4.6272    7.2702    8.3525 C.2       1 RES1    0.0000
     13 C3         5.2925    5.4717   10.0115 C.ar      1 RES1    0.0000
     14 C4         5.7496    5.4147   11.3211 C.ar      1 RES1    0.0000
     15 C5         6.3371    4.2759   11.7790 C.ar      1 RES1    0.0000
     16 C6         6.4995    3.1794   10.9207 C.ar      1 RES1    0.0000
     17 C7         6.0163    3.2446    9.6252 C.ar      1 RES1    0.0000
     18 C8         5.4085    4.3787    9.1793 C.ar      1 RES1    0.0000
     19 C9         7.4332    0.9908   10.5844 C.3       1 RES1    0.0000
     20 C10        8.1394   -0.0049   11.3732 C.3       1 RES1    0.0000
     21 C11        5.3405    6.9018    7.1308 C.2       1 RES1    0.0000
     22 C12        4.7758    7.1670    5.7701 C.3       1 RES1    0.0000
     23 C13        5.8841    6.6396    4.8837 C.3       1 RES1    0.0000
     24 C14        5.2626    5.4227    4.1980 C.2       1 RES1    0.0000
     25 C15        3.5729    6.2735    5.5304 C.2       1 RES1    0.0000
     26 C16        3.0883    4.2136    4.1860 C.ar      1 RES1    0.0000
     27 C17        3.4290    2.8991    4.3770 C.ar      1 RES1    0.0000
     28 C18        2.5708    1.9036    3.9158 C.ar      1 RES1    0.0000
     29 C19        1.4183    2.2380    3.2854 C.ar      1 RES1    0.0000
     30 C20        1.0857    3.5519    3.0956 C.ar      1 RES1    0.0000
     31 C21        1.9343    4.5598    3.5513 C.ar      1 RES1    0.0000
     32 C22        6.5305    7.5813    3.9050 C.3       1 RES1    0.0000
@<TRIPOS>BOND
     1    1    8 1
     2    2   11 1
     3    3   16 1
     4    4    9 1
     5    5   24 2
     6    6   25 2
     7    7    8 2
     8    9   21 2
     9   10   24 1
    10   11    1 1
    11   12    7 1
    12   13    7 1
    13   14   13 ar
    14   15   14 ar
    15   16   15 ar
    16   17   16 ar
    17   18   13 ar
    18   19    3 1
    19   20   19 1
    20   21   12 1
    21   22   21 1
    22   23    4 1
    23   24   23 1
    24   25   10 1
    25   26   10 1
    26   27   26 ar
    27   28   27 ar
    28   29   28 ar
    29   30   29 ar
    30   31   26 ar
    31   32   23 1
    32   11   12 2
    33   17   18 ar
    34   22   23 1
    35   22   25 1
    36   30   31 ar
@<TRIPOS>SUBSTRUCTURE
     1 RES1 1

@<TRIPOS>CRYSIN
   8.1320   12.1100   12.5660  61.1400  74.2500  74.3300   2 1

