# MOL2 file generated by ConQuest
# Please check atom types

@<TRIPOS>MOLECULE
AWUSAM
    49    52     1
SMALL
NO_CHARGES
****
Generated from CSD

@<TRIPOS>ATOM
      1 C1         3.6174    2.2282    3.7711 C.3       1 RES1    0.0000
      2 N1         0.2795    0.6748    8.2369 N.pl3     1 RES1    0.0000
      3 C2         4.4970    1.0966    3.1911 C.ar      1 RES1    0.0000
      4 O1         0.1021   -0.5244    8.4628 O.2       1 RES1    0.0000
      5 O2        -0.1380    1.5804    8.9460 O.2       1 RES1    0.0000
      6 C3         4.7744    3.5884    5.6293 C.ar      1 RES1    0.0000
      7 C4         5.7678    4.4516    6.0709 C.ar      1 RES1    0.0000
      8 C5         6.6231    4.9928    5.1467 C.ar      1 RES1    0.0000
      9 O3         8.3727    6.4558    4.7631 O.2       1 RES1    0.0000
     10 C6         2.6381    2.7871    2.7099 C.ar      1 RES1    0.0000
     11 C7         5.5451    3.8338    3.3690 C.ar      1 RES1    0.0000
     12 C8         6.5302    4.7084    3.7908 C.ar      1 RES1    0.0000
     13 C9         2.7095    1.7525    4.9302 C.ar      1 RES1    0.0000
     14 N2         7.7037    5.8757    5.6052 N.pl3     1 RES1    0.0000
     15 C10        1.0694    1.0382    7.0442 C.ar      1 RES1    0.0000
     16 C11        5.3819   -0.1879    1.3388 C.ar      1 RES1    0.0000
     17 O4         7.9125    5.9544    6.8156 O.2       1 RES1    0.0000
     18 C12        1.0741    2.3587    6.6238 C.ar      1 RES1    0.0000
     19 C13        4.4982    0.7679    1.8373 C.ar      1 RES1    0.0000
     20 C14        4.6312    3.2729    4.2814 C.ar      1 RES1    0.0000
     21 C15        2.6386    0.4317    5.3542 C.ar      1 RES1    0.0000
     22 C16        1.8070    0.0653    6.4097 C.ar      1 RES1    0.0000
     23 C17        2.6995    4.0743    2.1858 C.ar      1 RES1    0.0000
     24 C18        1.6095    1.9431    2.2717 C.ar      1 RES1    0.0000
     25 C19        1.8836    2.6958    5.5499 C.ar      1 RES1    0.0000
     26 C20        0.6871    2.3670    1.3366 C.ar      1 RES1    0.0000
     27 C21        0.7732    3.6488    0.8040 C.ar      1 RES1    0.0000
     28 C22        5.4175    0.4643    4.0196 C.ar      1 RES1    0.0000
     29 C23        1.7780    4.4861    1.2261 C.ar      1 RES1    0.0000
     30 C24        6.2931   -0.4907    3.5244 C.ar      1 RES1    0.0000
     31 C25        6.2795   -0.8192    2.1741 C.ar      1 RES1    0.0000
     32 H1         1.8584    3.6063    5.2215 H         1 RES1    0.0000
     33 H2         5.4037    0.6877    4.8538 H         1 RES1    0.0000
     34 H3         6.9549   -1.5530    1.8274 H         1 RES1    0.0000
     35 H4         4.1994    3.2364    6.2575 H         1 RES1    0.0000
     36 H5         3.8878    1.2271    1.2422 H         1 RES1    0.0000
     37 H6         3.3160    4.6313    2.4605 H         1 RES1    0.0000
     38 H7         1.8600    5.3581    0.9225 H         1 RES1    0.0000
     39 H8         5.4340   -0.3715    0.3677 H         1 RES1    0.0000
     40 H9         5.8361    4.6639    7.0105 H         1 RES1    0.0000
     41 H10        6.9510   -0.9012    4.1200 H         1 RES1    0.0000
     42 H11        1.7410   -0.7936    6.6284 H         1 RES1    0.0000
     43 H12       -0.0289    1.7697    1.0760 H         1 RES1    0.0000
     44 H13        3.1288   -0.1972    4.9641 H         1 RES1    0.0000
     45 H14        1.5636    1.0918    2.5612 H         1 RES1    0.0000
     46 H15        5.4637    3.6096    2.3917 H         1 RES1    0.0000
     47 H16        0.0318    3.9762    0.1871 H         1 RES1    0.0000
     48 H17        7.1638    5.0941    3.1256 H         1 RES1    0.0000
     49 H18        0.5160    2.9985    7.0825 H         1 RES1    0.0000
@<TRIPOS>BOND
     1    1    3 1
     2    2    4 2
     3    3   19 ar
     4    5    2 2
     5    6    7 ar
     6    7    8 ar
     7    8   12 ar
     8    9   14 2
     9   10    1 1
    10   11   12 ar
    11   12   48 1
    12   13    1 1
    13   14    8 1
    14   15    2 1
    15   16   19 ar
    16   17   14 2
    17   18   15 ar
    18   19   36 1
    19   20    1 1
    20   21   13 ar
    21   22   15 ar
    22   23   10 ar
    23   24   10 ar
    24   25   13 ar
    25   26   24 ar
    26   27   26 ar
    27   28    3 ar
    28   29   23 ar
    29   30   28 ar
    30   31   16 ar
    31   32   25 1
    32   33   28 1
    33   34   31 1
    34   35    6 1
    35   37   23 1
    36   38   29 1
    37   39   16 1
    38   40    7 1
    39   41   30 1
    40   42   22 1
    41   43   26 1
    42   44   21 1
    43   45   24 1
    44   46   11 1
    45   47   27 1
    46   49   18 1
    47    6   20 ar
    48   11   20 ar
    49   18   25 ar
    50   21   22 ar
    51   27   29 ar
    52   30   31 ar
@<TRIPOS>SUBSTRUCTURE
     1 RES1 1

@<TRIPOS>CRYSIN
   7.5520   16.2960   16.1740  90.0000  98.7100  90.0000 231 1

