# MOL2 file generated by ConQuest
# Please check atom types

@<TRIPOS>MOLECULE
AWUYUN
    38    40     1
SMALL
NO_CHARGES
****
Generated from CSD

@<TRIPOS>ATOM
      1 O1         7.4394    4.3551   14.0677 O.3       1 RES1    0.0000
      2 O2         6.6580    6.5521    8.2453 O.3       1 RES1    0.0000
      3 O3         6.6154    6.9804   21.2503 O.3       1 RES1    0.0000
      4 N1         7.5846    4.5759   15.4567 N.2       1 RES1    0.0000
      5 C1         6.1564    4.9137   13.6424 C.3       1 RES1    0.0000
      6 C2         6.2939    5.3976   12.2266 C.ar      1 RES1    0.0000
      7 C3         6.6437    5.8486   17.2471 C.ar      1 RES1    0.0000
      8 C4         5.8370    5.9194   14.7321 C.3       1 RES1    0.0000
      9 C5         5.4518    4.9246   11.2319 C.ar      1 RES1    0.0000
     10 C6         5.6446    6.6958   17.7110 C.ar      1 RES1    0.0000
     11 C7         6.6996    5.4133   15.8460 C.2       1 RES1    0.0000
     12 C8         5.5997    5.3287    9.9227 C.ar      1 RES1    0.0000
     13 C9         5.5887    7.0957   19.0385 C.ar      1 RES1    0.0000
     14 C10        6.5954    6.2202    9.5767 C.ar      1 RES1    0.0000
     15 C11        6.5622    6.6622   19.9208 C.ar      1 RES1    0.0000
     16 C12        7.4429    6.7076   10.5522 C.ar      1 RES1    0.0000
     17 C13        7.5646    5.8110   19.4759 C.ar      1 RES1    0.0000
     18 C14        7.2845    6.2933   11.8640 C.ar      1 RES1    0.0000
     19 C15        7.5987    5.4052   18.1653 C.ar      1 RES1    0.0000
     20 C16        7.7427    7.3470    7.8007 C.3       1 RES1    0.0000
     21 C17        5.5767    7.7915   21.7831 C.3       1 RES1    0.0000
     22 H1         4.7755    4.3247   11.4528 H         1 RES1    0.0000
     23 H2         5.4826    4.2028   13.6643 H         1 RES1    0.0000
     24 H3         5.0255    5.0002    9.2674 H         1 RES1    0.0000
     25 H4         6.0836    6.8201   14.4711 H         1 RES1    0.0000
     26 H5         4.8974    5.9001   14.9709 H         1 RES1    0.0000
     27 H6         8.1157    7.3100   10.3291 H         1 RES1    0.0000
     28 H7         7.8572    6.6244   12.5177 H         1 RES1    0.0000
     29 H8         7.7101    7.4268    6.8436 H         1 RES1    0.0000
     30 H9         8.5696    6.9336    8.0588 H         1 RES1    0.0000
     31 H10        7.6828    8.2200    8.1959 H         1 RES1    0.0000
     32 H11        4.9972    7.0016   17.1171 H         1 RES1    0.0000
     33 H12        4.9026    7.6503   19.3319 H         1 RES1    0.0000
     34 H13        8.2166    5.5144   20.0701 H         1 RES1    0.0000
     35 H14        8.2691    4.8246   17.8847 H         1 RES1    0.0000
     36 H15        5.7033    7.8923   22.7291 H         1 RES1    0.0000
     37 H16        4.7282    7.3755   21.6152 H         1 RES1    0.0000
     38 H17        5.5982    8.6552   21.3637 H         1 RES1    0.0000
@<TRIPOS>BOND
     1    1    4 1
     2    2   14 1
     3    3   15 1
     4    4   11 2
     5    5    1 1
     6    6    5 1
     7    7   10 ar
     8    8    5 1
     9    9    6 ar
    10   10   13 ar
    11   11    7 1
    12   12    9 ar
    13   13   15 ar
    14   14   12 ar
    15   15   17 ar
    16   16   14 ar
    17   17   19 ar
    18   18    6 ar
    19   19    7 ar
    20   20    2 1
    21   21    3 1
    22   22    9 1
    23   23    5 1
    24   24   12 1
    25   25    8 1
    26   26    8 1
    27   27   16 1
    28   28   18 1
    29   29   20 1
    30   30   20 1
    31   31   20 1
    32   32   10 1
    33   33   13 1
    34   34   17 1
    35   35   19 1
    36   36   21 1
    37   37   21 1
    38   38   21 1
    39    8   11 1
    40   16   18 ar
@<TRIPOS>SUBSTRUCTURE
     1 RES1 1

@<TRIPOS>CRYSIN
  10.5071    8.4023   32.6662  90.0000  90.0000  90.0000  61 1

