# MOL2 file generated by ConQuest
# Please check atom types

@<TRIPOS>MOLECULE
AXAMES
    51    54     1
SMALL
NO_CHARGES
****
Generated from CSD

@<TRIPOS>ATOM
      1 O1         5.8628    1.5489    2.1118 O.2       1 RES1    0.0000
      2 O2         7.2506    4.2701    2.0394 O.3       1 RES1    0.0000
      3 O3         5.7634    0.0028    7.7073 O.3       1 RES1    0.0000
      4 O4        12.4401   -1.1933    3.2263 O.2       1 RES1    0.0000
      5 O5        12.0753   -1.2822    1.0890 O.2       1 RES1    0.0000
      6 O6         6.0660    6.1806    1.7869 O.2       1 RES1    0.0000
      7 O7         7.3018    3.3347   -4.7235 O.2       1 RES1    0.0000
      8 O8         6.7751    5.4020   -5.0424 O.2       1 RES1    0.0000
      9 N1        11.7491   -0.9850    2.2279 N.pl3     1 RES1    0.0000
     10 N2         7.0212    4.4531   -4.3131 N.pl3     1 RES1    0.0000
     11 C1         6.7493    2.8927    3.8608 C.ar      1 RES1    0.0000
     12 C2         6.9955    4.1709    3.4198 C.ar      1 RES1    0.0000
     13 C3         7.1028    5.2628    4.2908 C.ar      1 RES1    0.0000
     14 H1         7.2954    6.1338    3.9633 H         1 RES1    0.0000
     15 C4         6.9239    5.0386    5.6197 C.ar      1 RES1    0.0000
     16 H2         7.0067    5.7675    6.2241 H         1 RES1    0.0000
     17 C5         6.6208    3.7603    6.1310 C.ar      1 RES1    0.0000
     18 C6         6.4172    3.5234    7.5122 C.ar      1 RES1    0.0000
     19 H3         6.4684    4.2508    8.1205 H         1 RES1    0.0000
     20 C7         6.1509    2.2855    7.9822 C.ar      1 RES1    0.0000
     21 H4         6.0286    2.1532    8.9153 H         1 RES1    0.0000
     22 C8         6.0548    1.1881    7.1021 C.ar      1 RES1    0.0000
     23 C9         6.2499    1.3615    5.7564 C.ar      1 RES1    0.0000
     24 H5         6.1965    0.6180    5.1679 H         1 RES1    0.0000
     25 C10        6.5330    2.6547    5.2434 C.ar      1 RES1    0.0000
     26 C11        6.7979    1.7755    2.8584 C.2       1 RES1    0.0000
     27 C12        8.0754    0.9980    2.7542 C.ar      1 RES1    0.0000
     28 C13        9.1259    1.2180    3.6456 C.ar      1 RES1    0.0000
     29 H6         9.0215    1.8349    4.3599 H         1 RES1    0.0000
     30 C14       10.3195    0.5386    3.4884 C.ar      1 RES1    0.0000
     31 H7        11.0323    0.6622    4.1029 H         1 RES1    0.0000
     32 C15       10.4512   -0.3165    2.4274 C.ar      1 RES1    0.0000
     33 C16        9.4271   -0.5696    1.5376 C.ar      1 RES1    0.0000
     34 H8         9.5462   -1.1749    0.8153 H         1 RES1    0.0000
     35 C17        8.2291    0.0788    1.7272 C.ar      1 RES1    0.0000
     36 H9         7.4992   -0.1048    1.1487 H         1 RES1    0.0000
     37 C18        6.6700    5.2621    1.3023 C.2       1 RES1    0.0000
     38 C19        6.8538    5.0329   -0.1491 C.ar      1 RES1    0.0000
     39 C20        6.4706    6.0570   -1.0152 C.ar      1 RES1    0.0000
     40 H10        6.1618    6.8830   -0.6625 H         1 RES1    0.0000
     41 C21        6.5368    5.8779   -2.3748 C.ar      1 RES1    0.0000
     42 H11        6.2843    6.5741   -2.9703 H         1 RES1    0.0000
     43 C22        6.9781    4.6647   -2.8538 C.ar      1 RES1    0.0000
     44 C23        7.3810    3.6336   -2.0285 C.ar      1 RES1    0.0000
     45 H12        7.6914    2.8120   -2.3900 H         1 RES1    0.0000
     46 C24        7.3203    3.8285   -0.6638 C.ar      1 RES1    0.0000
     47 H13        7.5973    3.1374   -0.0734 H         1 RES1    0.0000
     48 C25        5.6724   -1.1571    6.8847 C.3       1 RES1    0.0000
     49 H14        5.4499   -1.9340    7.4389 H         1 RES1    0.0000
     50 H15        6.5316   -1.3098    6.4386 H         1 RES1    0.0000
     51 H16        4.9727   -1.0256    6.2109 H         1 RES1    0.0000
@<TRIPOS>BOND
     1    1   26 2
     2    2   12 1
     3    3   22 1
     4    4    9 2
     5    5    9 2
     6    6   37 2
     7    7   10 2
     8    8   10 2
     9    9   32 1
    10   10   43 1
    11   11   12 ar
    12   12   13 ar
    13   13   14 1
    14   15   13 ar
    15   16   15 1
    16   17   15 ar
    17   18   17 ar
    18   19   18 1
    19   20   18 ar
    20   21   20 1
    21   22   20 ar
    22   23   22 ar
    23   24   23 1
    24   25   11 ar
    25   26   11 1
    26   27   26 1
    27   28   27 ar
    28   29   28 1
    29   30   28 ar
    30   31   30 1
    31   32   30 ar
    32   33   32 ar
    33   34   33 1
    34   35   27 ar
    35   36   35 1
    36   37    2 1
    37   38   37 1
    38   39   38 ar
    39   40   39 1
    40   41   39 ar
    41   42   41 1
    42   43   41 ar
    43   44   43 ar
    44   45   44 1
    45   46   38 ar
    46   47   46 1
    47   48    3 1
    48   49   48 1
    49   50   48 1
    50   51   48 1
    51   17   25 ar
    52   23   25 ar
    53   33   35 ar
    54   44   46 ar
@<TRIPOS>SUBSTRUCTURE
     1 RES1 1

@<TRIPOS>CRYSIN
   7.3069   10.2555   14.7645  84.7500  86.2780  74.0790   2 1

