# MOL2 file generated by ConQuest
# Please check atom types

@<TRIPOS>MOLECULE
AXAQOG
    33    33     1
SMALL
NO_CHARGES
****
Generated from CSD

@<TRIPOS>ATOM
      1 C1         2.4223   10.3369   -0.4335 C.2       1 RES1    0.0000
      2 O1         1.4326    9.7709   -0.8149 O.2       1 RES1    0.0000
      3 O2         3.6352   10.2629   -0.9853 O.3       1 RES1    0.0000
      4 C2         2.4770   11.1797    0.8267 C.3       1 RES1    0.0000
      5 H1         3.2894   11.7621    0.8134 H         1 RES1    0.0000
      6 N1         1.2705   12.0055    0.9069 N.3       1 RES1    0.0000
      7 O3         1.3726   12.9180   -0.2123 O.3       1 RES1    0.0000
      8 H2         0.6031   13.1446   -0.4603 H         1 RES1    0.0000
      9 C3         2.5216   10.2507    2.0345 C.3       1 RES1    0.0000
     10 H3         1.7463    9.6362    2.0029 H         1 RES1    0.0000
     11 H4         3.3456    9.7041    1.9952 H         1 RES1    0.0000
     12 C4         2.4957   11.0247    3.3417 C.3       1 RES1    0.0000
     13 H5         3.3262   11.5547    3.4354 H         1 RES1    0.0000
     14 H6         2.4422   10.3954    4.1044 H         1 RES1    0.0000
     15 C5         1.2899   11.9513    3.3522 C.3       1 RES1    0.0000
     16 H7         0.4590   11.4128    3.3799 H         1 RES1    0.0000
     17 H8         1.3149   12.5188    4.1637 H         1 RES1    0.0000
     18 C6         1.2823   12.8294    2.1216 C.3       1 RES1    0.0000
     19 H9         0.4825   13.4126    2.1340 H         1 RES1    0.0000
     20 H10        2.0856   13.4077    2.1216 H         1 RES1    0.0000
     21 C7         3.8912    9.3744   -2.1456 C.3       1 RES1    0.0000
     22 C8         3.0698    9.8399   -3.3397 C.3       1 RES1    0.0000
     23 H11        3.2445   10.7895   -3.5063 H         1 RES1    0.0000
     24 H12        2.1168    9.7114   -3.1503 H         1 RES1    0.0000
     25 H13        3.3190    9.3173   -4.1311 H         1 RES1    0.0000
     26 C9         3.6366    7.9374   -1.7723 C.3       1 RES1    0.0000
     27 H14        2.6815    7.8099   -1.5962 H         1 RES1    0.0000
     28 H15        4.1505    7.7128   -0.9684 H         1 RES1    0.0000
     29 H16        3.9137    7.3551   -2.5101 H         1 RES1    0.0000
     30 C10        5.3629    9.6158   -2.4010 C.3       1 RES1    0.0000
     31 H17        5.8805    9.3427   -1.6153 H         1 RES1    0.0000
     32 H18        5.5130   10.5688   -2.5751 H         1 RES1    0.0000
     33 H19        5.6499    9.0929   -3.1790 H         1 RES1    0.0000
@<TRIPOS>BOND
     1    1    2 2
     2    3    1 1
     3    4    1 1
     4    5    4 1
     5    6    4 1
     6    7    6 1
     7    8    7 1
     8    9    4 1
     9   10    9 1
    10   11    9 1
    11   12    9 1
    12   13   12 1
    13   14   12 1
    14   15   12 1
    15   16   15 1
    16   17   15 1
    17   18    6 1
    18   19   18 1
    19   20   18 1
    20   21    3 1
    21   22   21 1
    22   23   22 1
    23   24   22 1
    24   25   22 1
    25   26   21 1
    26   27   26 1
    27   28   26 1
    28   29   26 1
    29   30   21 1
    30   31   30 1
    31   32   30 1
    32   33   30 1
    33   15   18 1
@<TRIPOS>SUBSTRUCTURE
     1 RES1 1

@<TRIPOS>CRYSIN
  10.1685   12.1271   10.2083  90.0000 110.3770  90.0000 231 1

