# MOL2 file generated by ConQuest
# Please check atom types

@<TRIPOS>MOLECULE
AXEGAM
    37    40     1
SMALL
NO_CHARGES
****
Generated from CSD

@<TRIPOS>ATOM
      1 C1         2.8364    9.2828    3.3464 C.3       1 RES1    0.0000
      2 H1         2.2952   10.1241    3.3381 H         1 RES1    0.0000
      3 C2         4.1308    9.2917    2.5164 C.3       1 RES1    0.0000
      4 H2         4.8622    9.7866    2.9849 H         1 RES1    0.0000
      5 C3         4.2143    8.9263    0.2158 C.2       1 RES1    0.0000
      6 C4         4.4382    7.5388    0.8310 C.3       1 RES1    0.0000
      7 H3         3.6549    6.9555    0.6165 H         1 RES1    0.0000
      8 C5         4.4834    7.7802    2.3439 C.3       1 RES1    0.0000
      9 H4         5.3811    7.5626    2.7275 H         1 RES1    0.0000
     10 C6         3.3345    7.0947    3.1386 C.3       1 RES1    0.0000
     11 H5         3.1974    6.1205    2.9603 H         1 RES1    0.0000
     12 C7         3.5673    7.4807    4.5846 C.2       1 RES1    0.0000
     13 H6         3.8653    6.9031    5.2774 H         1 RES1    0.0000
     14 C8         3.2793    8.7745    4.7098 C.2       1 RES1    0.0000
     15 H7         3.3393    9.2873    5.5072 H         1 RES1    0.0000
     16 C9         2.1516    8.0202    2.7899 C.3       1 RES1    0.0000
     17 H8         1.9766    8.0734    1.8170 H         1 RES1    0.0000
     18 H9         1.3218    7.7851    3.2759 H         1 RES1    0.0000
     19 C10        5.7426    6.2701   -0.8506 C.ar      1 RES1    0.0000
     20 C11        6.9526    5.6809   -1.3231 C.ar      1 RES1    0.0000
     21 C12        7.0042    4.9301   -2.4883 C.ar      1 RES1    0.0000
     22 H10        7.8212    4.5371   -2.7729 H         1 RES1    0.0000
     23 C13        5.8559    4.7634   -3.2237 C.ar      1 RES1    0.0000
     24 C14        4.6522    5.3596   -2.8414 C.ar      1 RES1    0.0000
     25 H11        3.8746    5.2546   -3.3766 H         1 RES1    0.0000
     26 C15        4.6035    6.0963   -1.6887 C.ar      1 RES1    0.0000
     27 H12        3.7827    6.5055   -1.4392 H         1 RES1    0.0000
     28 N1         5.6438    6.9177    0.3260 N.pl3     1 RES1    0.0000
     29 H13        6.3679    7.1475    0.6826 H         1 RES1    0.0000
     30 N2         8.2123    5.8136   -0.6076 N.pl3     1 RES1    0.0000
     31 N3         5.9154    3.9797   -4.4441 N.pl3     1 RES1    0.0000
     32 O1         4.2993    9.2268   -0.9471 O.2       1 RES1    0.0000
     33 O2         3.9029    9.8187    1.1746 O.3       1 RES1    0.0000
     34 O3         8.2244    6.3829    0.4888 O.2       1 RES1    0.0000
     35 O4         9.2235    5.3262   -1.1087 O.2       1 RES1    0.0000
     36 O5         6.9402    3.3406   -4.6811 O.2       1 RES1    0.0000
     37 O6         4.9415    3.9915   -5.1942 O.2       1 RES1    0.0000
@<TRIPOS>BOND
     1    1    2 1
     2    3    1 1
     3    4    3 1
     4    5    6 1
     5    6    7 1
     6    8    3 1
     7    9    8 1
     8   10    8 1
     9   11   10 1
    10   12   10 1
    11   13   12 1
    12   14    1 1
    13   15   14 1
    14   16    1 1
    15   17   16 1
    16   18   16 1
    17   19   20 ar
    18   20   21 ar
    19   21   22 1
    20   23   21 ar
    21   24   23 ar
    22   25   24 1
    23   26   19 ar
    24   27   26 1
    25   28    6 1
    26   29   28 1
    27   30   20 1
    28   31   23 1
    29   32    5 2
    30   33    3 1
    31   34   30 2
    32   35   30 2
    33   36   31 2
    34   37   31 2
    35    5   33 1
    36    6    8 1
    37   10   16 1
    38   12   14 2
    39   19   28 1
    40   24   26 ar
@<TRIPOS>SUBSTRUCTURE
     1 RES1 1

@<TRIPOS>CRYSIN
   7.6077    9.5119    9.9423  92.0500  96.3450 101.2290   2 1

