# MOL2 file generated by ConQuest
# Please check atom types

@<TRIPOS>MOLECULE
AXENIB
    67    71     1
SMALL
NO_CHARGES
****
Generated from CSD

@<TRIPOS>ATOM
      1 O1         9.5868    9.0235    3.6207 O.2       1 RES1    0.0000
      2 O2         3.9397   11.3886    2.0814 O.2       1 RES1    0.0000
      3 O3         4.9561    9.4710    2.5863 O.3       1 RES1    0.0000
      4 O4         5.8170   13.8478    3.1560 O.2       1 RES1    0.0000
      5 O5         6.3525   12.9304    1.1757 O.3       1 RES1    0.0000
      6 O6        10.2778   18.6872    0.4873 O.2       1 RES1    0.0000
      7 O7        12.3516   18.4973    1.0723 O.2       1 RES1    0.0000
      8 N1         9.1384   12.5041    3.3461 N.3       1 RES1    0.0000
      9 N2        11.2248   18.0436    0.9251 N.pl3     1 RES1    0.0000
     10 C1         9.5783   10.1753    4.0149 C.2       1 RES1    0.0000
     11 C2        10.5903   10.6981    4.9749 C.ar      1 RES1    0.0000
     12 C3        11.5251    9.8401    5.5421 C.ar      1 RES1    0.0000
     13 H1        11.5364    8.9218    5.2964 H         1 RES1    0.0000
     14 C4        12.4391   10.3186    6.4631 C.ar      1 RES1    0.0000
     15 H2        13.0783    9.7327    6.8523 H         1 RES1    0.0000
     16 C5        12.4147   11.6645    6.8152 C.ar      1 RES1    0.0000
     17 H3        13.0322   11.9962    7.4567 H         1 RES1    0.0000
     18 C6        11.4968   12.5235    6.2385 C.ar      1 RES1    0.0000
     19 H4        11.5015   13.4415    6.4810 H         1 RES1    0.0000
     20 C7        10.5715   12.0672    5.3147 C.ar      1 RES1    0.0000
     21 C8         9.5237   12.9736    4.6942 C.3       1 RES1    0.0000
     22 H5         9.8353   13.9237    4.6714 H         1 RES1    0.0000
     23 C9         8.1908   12.8494    5.4173 C.3       1 RES1    0.0000
     24 H6         7.5723   13.5764    5.1565 H         1 RES1    0.0000
     25 H7         8.3132   12.8645    6.3989 H         1 RES1    0.0000
     26 C10        7.6740   11.4872    4.9449 C.3       1 RES1    0.0000
     27 H8         7.8735   10.7934    5.6378 H         1 RES1    0.0000
     28 C11        8.5061   11.1835    3.6351 C.3       1 RES1    0.0000
     29 C12        7.4763   10.7241    2.6200 C.3       1 RES1    0.0000
     30 H9         7.3530    9.7427    2.6659 H         1 RES1    0.0000
     31 H10        7.7559   10.9685    1.7033 H         1 RES1    0.0000
     32 C13        6.1706   11.4566    3.0053 C.3       1 RES1    0.0000
     33 C14        6.1951   11.3975    4.5367 C.3       1 RES1    0.0000
     34 H11        5.7978   10.5494    4.8580 H         1 RES1    0.0000
     35 H12        5.6830   12.1526    4.9214 H         1 RES1    0.0000
     36 C15        4.8970   10.7908    2.4863 C.2       1 RES1    0.0000
     37 C16        3.7523    8.7307    2.2426 C.3       1 RES1    0.0000
     38 H13        3.4058    9.0208    1.3619 H         1 RES1    0.0000
     39 H14        3.0491    8.8744    2.9234 H         1 RES1    0.0000
     40 C17        4.1580    7.2890    2.2010 C.3       1 RES1    0.0000
     41 H15        3.3776    6.7373    1.9831 H         1 RES1    0.0000
     42 H16        4.5119    7.0243    3.0745 H         1 RES1    0.0000
     43 H17        4.8480    7.1635    1.5167 H         1 RES1    0.0000
     44 C18        6.1038   12.8918    2.4922 C.2       1 RES1    0.0000
     45 C19        5.9918   14.1554    0.4690 C.3       1 RES1    0.0000
     46 H18        6.7938   14.5438    0.0373 H         1 RES1    0.0000
     47 H19        5.6322   14.8194    1.1082 H         1 RES1    0.0000
     48 C20        4.9694   13.8385   -0.5565 C.3       1 RES1    0.0000
     49 H20        4.7303   14.6557   -1.0429 H         1 RES1    0.0000
     50 H21        4.1721   13.4716   -0.1213 H         1 RES1    0.0000
     51 H22        5.3309   13.1788   -1.1846 H         1 RES1    0.0000
     52 C21       10.2853   12.5739    2.4148 C.3       1 RES1    0.0000
     53 H23       11.0949   12.2129    2.8786 H         1 RES1    0.0000
     54 C22       10.0876   11.8060    1.1182 C.3       1 RES1    0.0000
     55 H24        9.9417   10.8580    1.3190 H         1 RES1    0.0000
     56 H25       10.8840   11.9029    0.5559 H         1 RES1    0.0000
     57 H26        9.3082   12.1626    0.6436 H         1 RES1    0.0000
     58 C23       10.5282   14.0387    2.0861 C.ar      1 RES1    0.0000
     59 C24       11.8178   14.5495    2.0656 C.ar      1 RES1    0.0000
     60 H27       12.5455   13.9969    2.3245 H         1 RES1    0.0000
     61 C25       12.0551   15.8571    1.6716 C.ar      1 RES1    0.0000
     62 H28       12.9399   16.2016    1.6436 H         1 RES1    0.0000
     63 C26       10.9876   16.6449    1.3242 C.ar      1 RES1    0.0000
     64 C27        9.7054   16.1849    1.3507 C.ar      1 RES1    0.0000
     65 H29        8.9825   16.7498    1.1007 H         1 RES1    0.0000
     66 C28        9.4757   14.8735    1.7501 C.ar      1 RES1    0.0000
     67 H30        8.5843   14.5452    1.7928 H         1 RES1    0.0000
@<TRIPOS>BOND
     1    1   10 2
     2    2   36 2
     3    3   36 1
     4    4   44 2
     5    5   44 1
     6    6    9 2
     7    7    9 2
     8    8   21 1
     9    9   63 1
    10   10   11 1
    11   11   12 ar
    12   12   13 1
    13   14   12 ar
    14   15   14 1
    15   16   14 ar
    16   17   16 1
    17   18   16 ar
    18   19   18 1
    19   20   11 ar
    20   21   20 1
    21   22   21 1
    22   23   21 1
    23   24   23 1
    24   25   23 1
    25   26   23 1
    26   27   26 1
    27   28    8 1
    28   29   28 1
    29   30   29 1
    30   31   29 1
    31   32   29 1
    32   33   26 1
    33   34   33 1
    34   35   33 1
    35   36   32 1
    36   37    3 1
    37   38   37 1
    38   39   37 1
    39   40   37 1
    40   41   40 1
    41   42   40 1
    42   43   40 1
    43   44   32 1
    44   45    5 1
    45   46   45 1
    46   47   45 1
    47   48   45 1
    48   49   48 1
    49   50   48 1
    50   51   48 1
    51   52    8 1
    52   53   52 1
    53   54   52 1
    54   55   54 1
    55   56   54 1
    56   57   54 1
    57   58   52 1
    58   59   58 ar
    59   60   59 1
    60   61   59 ar
    61   62   61 1
    62   63   61 ar
    63   64   63 ar
    64   65   64 1
    65   66   58 ar
    66   67   66 1
    67   10   28 1
    68   18   20 ar
    69   26   28 1
    70   32   33 1
    71   64   66 ar
@<TRIPOS>SUBSTRUCTURE
     1 RES1 1

@<TRIPOS>CRYSIN
   9.4136   14.3529   18.6558  90.0000  90.0000  90.0000  19 1

