# MOL2 file generated by ConQuest
# Please check atom types

@<TRIPOS>MOLECULE
AXEPAV
    57    61     1
SMALL
NO_CHARGES
****
Generated from CSD

@<TRIPOS>ATOM
      1 O1        14.6971    6.2704   -1.2972 O.3       1 RES1    0.0000
      2 O2        15.9348    4.6894    3.0608 O.3       1 RES1    0.0000
      3 O3        17.1542    2.8413    3.5232 O.2       1 RES1    0.0000
      4 O4        17.8313    3.1572    9.1311 O.2       1 RES1    0.0000
      5 O5        18.2121    1.0238    8.9126 O.2       1 RES1    0.0000
      6 N1        17.6236    2.0583    8.5969 N.pl3     1 RES1    0.0000
      7 N2        17.3631    3.8453    6.2077 N.pl3     1 RES1    0.0000
      8 C1        13.4752    5.7738   -0.7557 C.3       1 RES1    0.0000
      9 H1        12.8510    5.5368   -1.4734 H         1 RES1    0.0000
     10 H2        13.0520    6.4490   -0.1836 H         1 RES1    0.0000
     11 C2        13.8468    4.5339    0.0635 C.3       1 RES1    0.0000
     12 H3        13.1848    3.8093   -0.0661 H         1 RES1    0.0000
     13 C3        14.0841    4.8047    1.5575 C.3       1 RES1    0.0000
     14 H4        14.2591    5.7749    1.6504 H         1 RES1    0.0000
     15 C4        15.3961    4.0861    1.8611 C.3       1 RES1    0.0000
     16 H5        15.2473    3.1159    1.9894 H         1 RES1    0.0000
     17 C5        16.2388    4.3489    0.6218 C.3       1 RES1    0.0000
     18 H6        16.9871    3.7203    0.5656 H         1 RES1    0.0000
     19 H7        16.5883    5.2643    0.6201 H         1 RES1    0.0000
     20 C6        15.2480    4.1333   -0.5320 C.3       1 RES1    0.0000
     21 H8        15.2531    3.1937   -0.8417 H         1 RES1    0.0000
     22 C7        15.4084    5.0970   -1.6868 C.3       1 RES1    0.0000
     23 H9        16.3554    5.3003   -1.8389 H         1 RES1    0.0000
     24 H10       15.0295    4.7189   -2.5087 H         1 RES1    0.0000
     25 C8        12.9717    4.4593    2.5379 C.ar      1 RES1    0.0000
     26 C9        12.7356    5.2911    3.6138 C.ar      1 RES1    0.0000
     27 H11       13.2675    6.0575    3.7258 H         1 RES1    0.0000
     28 C10       11.7343    5.0246    4.5311 C.ar      1 RES1    0.0000
     29 H12       11.5921    5.6049    5.2571 H         1 RES1    0.0000
     30 C11       10.9381    3.8951    4.3757 C.ar      1 RES1    0.0000
     31 H13       10.2477    3.7133    4.9876 H         1 RES1    0.0000
     32 C12       11.1692    3.0489    3.3190 C.ar      1 RES1    0.0000
     33 H14       10.6295    2.2868    3.2098 H         1 RES1    0.0000
     34 C13       12.1920    3.3047    2.4078 C.ar      1 RES1    0.0000
     35 H15       12.3581    2.7019    1.7066 H         1 RES1    0.0000
     36 C14       16.7670    3.9461    3.8229 C.2       1 RES1    0.0000
     37 C15       17.1555    4.7361    5.0607 C.3       1 RES1    0.0000
     38 H16       16.4699    5.4182    5.2687 H         1 RES1    0.0000
     39 C16       18.5257    5.3920    4.8619 C.3       1 RES1    0.0000
     40 H17       18.6719    5.6263    3.9209 H         1 RES1    0.0000
     41 H18       18.6131    6.1996    5.4109 H         1 RES1    0.0000
     42 C17       19.4995    4.3092    5.3167 C.3       1 RES1    0.0000
     43 H19       19.6322    3.6345    4.6188 H         1 RES1    0.0000
     44 H20       20.3665    4.6926    5.5614 H         1 RES1    0.0000
     45 C18       18.7986    3.7160    6.5303 C.3       1 RES1    0.0000
     46 H21       19.0468    2.7764    6.6545 H         1 RES1    0.0000
     47 H22       19.0223    4.2153    7.3441 H         1 RES1    0.0000
     48 C19       16.3890    2.9883    6.6206 C.ar      1 RES1    0.0000
     49 C20       16.5376    1.9966    7.6069 C.ar      1 RES1    0.0000
     50 C21       15.6136    0.9804    7.8301 C.ar      1 RES1    0.0000
     51 H23       15.8021    0.2960    8.4455 H         1 RES1    0.0000
     52 C22       14.4201    0.9841    7.1433 C.ar      1 RES1    0.0000
     53 H24       13.7939    0.2944    7.2647 H         1 RES1    0.0000
     54 C23       14.1640    2.0342    6.2646 C.ar      1 RES1    0.0000
     55 H25       13.3278    2.0798    5.8376 H         1 RES1    0.0000
     56 C24       15.0991    3.0033    6.0044 C.ar      1 RES1    0.0000
     57 H26       14.8853    3.6956    5.4060 H         1 RES1    0.0000
@<TRIPOS>BOND
     1    1    8 1
     2    2   15 1
     3    3   36 2
     4    4    6 2
     5    5    6 2
     6    6   49 1
     7    7   37 1
     8    8    9 1
     9   10    8 1
    10   11    8 1
    11   12   11 1
    12   13   11 1
    13   14   13 1
    14   15   13 1
    15   16   15 1
    16   17   15 1
    17   18   17 1
    18   19   17 1
    19   20   11 1
    20   21   20 1
    21   22    1 1
    22   23   22 1
    23   24   22 1
    24   25   13 1
    25   26   25 ar
    26   27   26 1
    27   28   26 ar
    28   29   28 1
    29   30   28 ar
    30   31   30 1
    31   32   30 ar
    32   33   32 1
    33   34   25 ar
    34   35   34 1
    35   36    2 1
    36   37   36 1
    37   38   37 1
    38   39   37 1
    39   40   39 1
    40   41   39 1
    41   42   39 1
    42   43   42 1
    43   44   42 1
    44   45    7 1
    45   46   45 1
    46   47   45 1
    47   48    7 1
    48   49   48 ar
    49   50   49 ar
    50   51   50 1
    51   52   50 ar
    52   53   52 1
    53   54   52 ar
    54   55   54 1
    55   56   48 ar
    56   57   56 1
    57   17   20 1
    58   20   22 1
    59   32   34 ar
    60   42   45 1
    61   54   56 ar
@<TRIPOS>SUBSTRUCTURE
     1 RES1 1

@<TRIPOS>CRYSIN
  23.5330    5.3630   18.1460  90.0000 114.3100  90.0000   5 1

