# MOL2 file generated by ConQuest
# Please check atom types

@<TRIPOS>MOLECULE
AXEQEB
    31    32     1
SMALL
NO_CHARGES
****
Generated from CSD

@<TRIPOS>ATOM
      1 O1         5.3486    1.6764    8.8340 O.3       1 RES1    0.0000
      2 O2        -0.9660    1.6764   12.0867 O.2       1 RES1    0.0000
      3 N1         6.3922    1.6764    7.8684 N.2       1 RES1    0.0000
      4 N2         4.3752    1.6764    6.8440 N.2       1 RES1    0.0000
      5 C1         5.7547    1.6764    6.7242 C.2       1 RES1    0.0000
      6 C2         6.4630    1.6764    5.3945 C.3       1 RES1    0.0000
      7 C3         7.9769    1.6764    5.5993 C.3       1 RES1    0.0000
      8 H1         8.2727    0.8791    6.0927 H         1 RES1    0.0000
      9 H2         8.4142    1.6764    4.7287 H         1 RES1    0.0000
     10 C4         6.0406    0.4267    4.6074 C.3       1 RES1    0.0000
     11 H3         6.2994   -0.3762    5.1061 H         1 RES1    0.0000
     12 H4         6.4838    0.4258    3.7336 H         1 RES1    0.0000
     13 H5         5.0691    0.4332    4.4809 H         1 RES1    0.0000
     14 C5         4.2001    1.6764    8.1328 C.2       1 RES1    0.0000
     15 C6         2.9372    1.6764    8.8693 C.ar      1 RES1    0.0000
     16 C7         2.9168    1.6764   10.2738 C.ar      1 RES1    0.0000
     17 H6         3.7314    1.6764   10.7632 H         1 RES1    0.0000
     18 C8         1.7004    1.6764   10.9426 C.ar      1 RES1    0.0000
     19 H7         1.6792    1.6764   11.8927 H         1 RES1    0.0000
     20 C9         0.5046    1.6764   10.2150 C.ar      1 RES1    0.0000
     21 C10        0.5323    1.6764    8.8238 C.ar      1 RES1    0.0000
     22 H8        -0.2826    1.6764    8.3355 H         1 RES1    0.0000
     23 C11        1.7452    1.6764    8.1446 C.ar      1 RES1    0.0000
     24 H9         1.7619    1.6764    7.1945 H         1 RES1    0.0000
     25 C12       -0.8081    1.6764   10.8931 C.2       1 RES1    0.0000
     26 H10       -1.5851    1.6764   10.3467 H         1 RES1    0.0000
     27 H1C        8.2727    2.4737    6.0927 H         1 RES1    0.0000
     28 C4C        6.0406    2.9260    4.6074 C.3       1 RES1    0.0000
     29 H3C        6.2994    3.7289    5.1061 H         1 RES1    0.0000
     30 H4C        6.4838    2.9270    3.7336 H         1 RES1    0.0000
     31 H5C        5.0691    2.9196    4.4809 H         1 RES1    0.0000
@<TRIPOS>BOND
     1    1    3 1
     2    2   25 2
     3    3    5 2
     4    4    5 1
     5    5    6 1
     6    6    7 1
     7    7    8 1
     8    9    7 1
     9   10    6 1
    10   11   10 1
    11   12   10 1
    12   13   10 1
    13   14    1 1
    14   15   14 1
    15   16   15 ar
    16   17   16 1
    17   18   16 ar
    18   19   18 1
    19   20   18 ar
    20   21   20 ar
    21   22   21 1
    22   23   15 ar
    23   24   23 1
    24   25   20 1
    25   26   25 1
    26   27    7 1
    27   28    6 1
    28   29   28 1
    29   30   28 1
    30   31   28 1
    31    4   14 2
    32   21   23 ar
@<TRIPOS>SUBSTRUCTURE
     1 RES1 1

@<TRIPOS>CRYSIN
   9.2714    6.7055    9.6182  90.0000  97.6890  90.0000  11 1

