# MOL2 file generated by ConQuest
# Please check atom types

@<TRIPOS>MOLECULE
AXEQEA
    35    37     1
SMALL
NO_CHARGES
****
Generated from CSD

@<TRIPOS>ATOM
      1 C1        10.5891    3.1111    7.4779 C.ar      1 RES1    0.0000
      2 C2        11.1052    4.3910    7.6060 C.ar      1 RES1    0.0000
      3 H1        10.5888    5.1303    7.3799 H         1 RES1    0.0000
      4 C3        12.3971    4.5578    8.0745 C.ar      1 RES1    0.0000
      5 C4        13.2189    3.5013    8.4113 C.ar      1 RES1    0.0000
      6 H2        14.0869    3.6429    8.7131 H         1 RES1    0.0000
      7 C5        12.7017    2.2223    8.2825 C.ar      1 RES1    0.0000
      8 H3        13.2284    1.4874    8.5031 H         1 RES1    0.0000
      9 C6        11.4078    2.0271    7.8273 C.ar      1 RES1    0.0000
     10 H4        11.0765    1.1618    7.7517 H         1 RES1    0.0000
     11 C7         9.1919    2.9408    7.0129 C.3       1 RES1    0.0000
     12 H5         8.7169    3.7728    6.8071 H         1 RES1    0.0000
     13 C8         8.7865    1.7380    6.1754 C.3       1 RES1    0.0000
     14 H6         9.5038    1.0884    6.0151 H         1 RES1    0.0000
     15 C9         8.3432    1.8471    7.6123 C.3       1 RES1    0.0000
     16 H7         8.7597    1.2566    8.2587 H         1 RES1    0.0000
     17 H8         7.4083    2.0439    7.7818 H         1 RES1    0.0000
     18 C10        7.7877    1.8436    5.0824 C.ar      1 RES1    0.0000
     19 C11        7.9195    1.0597    3.9424 C.ar      1 RES1    0.0000
     20 H9         8.6685    0.5152    3.8541 H         1 RES1    0.0000
     21 C12        6.9682    1.0631    2.9319 C.ar      1 RES1    0.0000
     22 H10        7.0755    0.5182    2.1855 H         1 RES1    0.0000
     23 C13        5.8535    1.8881    3.0454 C.ar      1 RES1    0.0000
     24 C14        5.6997    2.6842    4.1777 C.ar      1 RES1    0.0000
     25 H11        4.9517    3.2301    4.2631 H         1 RES1    0.0000
     26 C15        6.6536    2.6642    5.1741 C.ar      1 RES1    0.0000
     27 H12        6.5426    3.2057    5.9220 H         1 RES1    0.0000
     28 C16        5.0591    1.2598    0.8886 C.3       1 RES1    0.0000
     29 H13        5.8662    1.5562    0.4622 H         1 RES1    0.0000
     30 H14        4.3146    1.4095    0.3018 H         1 RES1    0.0000
     31 H15        5.1275    0.3226    1.0861 H         1 RES1    0.0000
     32 N1        12.9106    5.9254    8.2081 N.pl3     1 RES1    0.0000
     33 O1        12.1428    6.8608    8.0192 O.2       1 RES1    0.0000
     34 O2        14.0931    6.0769    8.4975 O.2       1 RES1    0.0000
     35 O3         4.8653    1.9870    2.0982 O.3       1 RES1    0.0000
@<TRIPOS>BOND
     1    1    2 ar
     2    2    3 1
     3    4    2 ar
     4    5    4 ar
     5    6    5 1
     6    7    5 ar
     7    8    7 1
     8    9    1 ar
     9   10    9 1
    10   11    1 1
    11   12   11 1
    12   13   11 1
    13   14   13 1
    14   15   11 1
    15   16   15 1
    16   17   15 1
    17   18   13 1
    18   19   18 ar
    19   20   19 1
    20   21   19 ar
    21   22   21 1
    22   23   21 ar
    23   24   23 ar
    24   25   24 1
    25   26   18 ar
    26   27   26 1
    27   28   29 1
    28   30   28 1
    29   31   28 1
    30   32    4 1
    31   33   32 2
    32   34   32 2
    33   35   23 1
    34    7    9 ar
    35   13   15 1
    36   24   26 ar
    37   28   35 1
@<TRIPOS>SUBSTRUCTURE
     1 RES1 1

@<TRIPOS>CRYSIN
  12.3060   15.2870    7.0855  90.0000  98.7820  90.0000  14 1

