# MOL2 file generated by ConQuest
# Please check atom types

@<TRIPOS>MOLECULE
AXESED
    43    45     1
SMALL
NO_CHARGES
****
Generated from CSD

@<TRIPOS>ATOM
      1 O1         0.9929    2.2115    8.8257 O.3       1 RES1    0.0000
      2 O2         6.4620    1.7577   13.7349 O.3       1 RES1    0.0000
      3 N1         0.1718    1.5914    7.8478 N.2       1 RES1    0.0000
      4 N2         1.6070    0.0900    8.7372 N.2       1 RES1    0.0000
      5 N3         5.5518    3.8158   13.9794 N.2       1 RES1    0.0000
      6 C1         0.5820    0.3537    7.8399 C.2       1 RES1    0.0000
      7 C2        -0.0341   -0.7017    6.9541 C.3       1 RES1    0.0000
      8 C3        -0.9648   -0.0529    5.9210 C.3       1 RES1    0.0000
      9 H1        -1.6887    0.4181    6.3843 H         1 RES1    0.0000
     10 H2        -1.3448   -0.7471    5.3425 H         1 RES1    0.0000
     11 H3        -0.4555    0.5842    5.3765 H         1 RES1    0.0000
     12 C4        -0.8345   -1.6593    7.8483 C.3       1 RES1    0.0000
     13 H4        -0.2414   -2.0453    8.5254 H         1 RES1    0.0000
     14 H5        -1.2149   -2.3765    7.3004 H         1 RES1    0.0000
     15 H6        -1.5581   -1.1662    8.2899 H         1 RES1    0.0000
     16 C5         1.0684   -1.4826    6.2348 C.3       1 RES1    0.0000
     17 H7         1.5713   -0.8758    5.6513 H         1 RES1    0.0000
     18 H8         0.6654   -2.1950    5.6958 H         1 RES1    0.0000
     19 H9         1.6742   -1.8770    6.8973 H         1 RES1    0.0000
     20 C6         1.8120    1.2485    9.2858 C.2       1 RES1    0.0000
     21 C7         2.8037    1.6268   10.2981 C.ar      1 RES1    0.0000
     22 C8         2.8904    2.9510   10.7318 C.ar      1 RES1    0.0000
     23 H10        2.3178    3.6099   10.3577 H         1 RES1    0.0000
     24 C9         3.8089    3.3064   11.7053 C.ar      1 RES1    0.0000
     25 H11        3.8577    4.2062   12.0068 H         1 RES1    0.0000
     26 C10        4.6651    2.3415   12.2466 C.ar      1 RES1    0.0000
     27 C11        4.6045    1.0251   11.7882 C.ar      1 RES1    0.0000
     28 H12        5.2029    0.3741   12.1351 H         1 RES1    0.0000
     29 C12        3.6688    0.6648   10.8239 C.ar      1 RES1    0.0000
     30 H13        3.6181   -0.2354   10.5226 H         1 RES1    0.0000
     31 C13        5.5736    2.7156   13.3494 C.2       1 RES1    0.0000
     32 C14        7.2019    2.3340   14.8406 C.3       1 RES1    0.0000
     33 H14        8.1625    2.4172   14.6139 H         1 RES1    0.0000
     34 H15        7.1116    1.7758   15.6531 H         1 RES1    0.0000
     35 C15        6.5654    3.7283   15.0589 C.3       1 RES1    0.0000
     36 C16        7.5801    4.8494   14.9060 C.3       1 RES1    0.0000
     37 H16        8.0182    4.7772   14.0328 H         1 RES1    0.0000
     38 H17        8.2525    4.7805   15.6164 H         1 RES1    0.0000
     39 H18        7.1237    5.7146   14.9725 H         1 RES1    0.0000
     40 C17        5.8471    3.8367   16.4012 C.3       1 RES1    0.0000
     41 H19        5.3719    4.6925   16.4488 H         1 RES1    0.0000
     42 H20        6.5030    3.7859   17.1268 H         1 RES1    0.0000
     43 H21        5.2056    3.1015   16.4881 H         1 RES1    0.0000
@<TRIPOS>BOND
     1    1    3 1
     2    2   31 1
     3    3    6 2
     4    4    6 1
     5    5   31 2
     6    6    7 1
     7    7    8 1
     8    8    9 1
     9   10    8 1
    10   11    8 1
    11   12    7 1
    12   13   12 1
    13   14   12 1
    14   15   12 1
    15   16    7 1
    16   17   16 1
    17   18   16 1
    18   19   16 1
    19   20    1 1
    20   21   20 1
    21   22   21 ar
    22   23   22 1
    23   24   22 ar
    24   25   24 1
    25   26   24 ar
    26   27   26 ar
    27   28   27 1
    28   29   21 ar
    29   30   29 1
    30   31   26 1
    31   32    2 1
    32   33   32 1
    33   34   32 1
    34   35    5 1
    35   36   35 1
    36   37   36 1
    37   38   36 1
    38   39   36 1
    39   40   35 1
    40   41   40 1
    41   42   40 1
    42   43   40 1
    43    4   20 2
    44   27   29 ar
    45   32   35 1
@<TRIPOS>SUBSTRUCTURE
     1 RES1 1

@<TRIPOS>CRYSIN
   5.4582   11.0023   26.3293  90.0000  96.1910  90.0000  14 1

