# MOL2 file generated by ConQuest
# Please check atom types

@<TRIPOS>MOLECULE
AXIQAA
    21    22     1
SMALL
NO_CHARGES
****
Generated from CSD

@<TRIPOS>ATOM
      1 O1         1.1300    3.6563    9.5584 O.2       1 RES1    0.0000
      2 N1         1.0894    4.8443   10.1297 N.pl3     1 RES1    0.0000
      3 N2         1.1367    9.7842   11.1082 N.ar      1 RES1    0.0000
      4 C1         0.7484    5.9439    9.4121 C.ar      1 RES1    0.0000
      5 H1         0.5145    5.8495    8.5169 H         1 RES1    0.0000
      6 C2         0.7425    7.2066    9.9870 C.ar      1 RES1    0.0000
      7 H2         0.5241    7.9465    9.4672 H         1 RES1    0.0000
      8 C3         1.0621    7.3837   11.3513 C.ar      1 RES1    0.0000
      9 C4         1.3825    6.2286   12.0696 C.ar      1 RES1    0.0000
     10 H3         1.5891    6.2931   12.9744 H         1 RES1    0.0000
     11 C5         1.3965    4.9857   11.4518 C.ar      1 RES1    0.0000
     12 H4         1.6201    4.2336   11.9500 H         1 RES1    0.0000
     13 C6         1.0474    8.7433   11.9667 C.ar      1 RES1    0.0000
     14 C7         0.9610    8.9351   13.3523 C.ar      1 RES1    0.0000
     15 H5         0.9138    8.2053   13.9270 H         1 RES1    0.0000
     16 C8         0.9462   10.2283   13.8576 C.ar      1 RES1    0.0000
     17 H6         0.8724   10.3754   14.7732 H         1 RES1    0.0000
     18 C9         1.0444   11.2940   12.9837 C.ar      1 RES1    0.0000
     19 H7         1.0540   12.1690   13.2985 H         1 RES1    0.0000
     20 C10        1.1271   11.0281   11.6271 C.ar      1 RES1    0.0000
     21 H8         1.1795   11.7487   11.0414 H         1 RES1    0.0000
@<TRIPOS>BOND
     1    1    2 1
     2    2    4 ar
     3    3   13 ar
     4    4    5 1
     5    6    4 ar
     6    7    6 1
     7    8    6 ar
     8    9    8 ar
     9   10    9 1
    10   11    2 ar
    11   12   11 1
    12   13    8 1
    13   14   13 ar
    14   15   14 1
    15   16   14 ar
    16   17   16 1
    17   18   16 ar
    18   19   18 1
    19   20    3 ar
    20   21   20 1
    21    9   11 ar
    22   18   20 ar
@<TRIPOS>SUBSTRUCTURE
     1 RES1 1

@<TRIPOS>CRYSIN
   7.3810   10.1501   11.5750  90.0000  90.0000  90.0000  19 1

