# MOL2 file generated by ConQuest
# Please check atom types

@<TRIPOS>MOLECULE
AXOXUG
    65    67     1
SMALL
NO_CHARGES
****
Generated from CSD

@<TRIPOS>ATOM
      1 O1         2.3664    9.7924    2.2464 O.3       1 RES1    0.0000
      2 N1        -0.5653   10.3359    0.2289 N.pl3     1 RES1    0.0000
      3 O2         0.5837   10.5296    3.3811 O.2       1 RES1    0.0000
      4 C1         4.5445   10.2485    3.2591 C.3       1 RES1    0.0000
      5 C2         0.3050    8.7204    1.8740 C.3       1 RES1    0.0000
      6 O3        -0.9370    8.5602    2.5020 O.3       1 RES1    0.0000
      7 C3         1.0907    9.7881    2.5756 C.2       1 RES1    0.0000
      8 C4         3.4295   11.8180    1.6126 C.3       1 RES1    0.0000
      9 C5         0.0849    8.9882    0.3814 C.3       1 RES1    0.0000
     10 C6         3.6510    7.9877    3.9879 C.ar      1 RES1    0.0000
     11 C7         3.2406   10.8591    2.7578 C.3       1 RES1    0.0000
     12 C8         4.3913    9.2447    4.4360 C.3       1 RES1    0.0000
     13 C9         1.3182    8.9153   -0.4832 C.3       1 RES1    0.0000
     14 C10        5.6660   12.4006    2.4522 C.3       1 RES1    0.0000
     15 C11        1.0778    9.1181   -1.9475 C.ar      1 RES1    0.0000
     16 C12        3.7059    9.9169    5.6321 C.3       1 RES1    0.0000
     17 O4         0.1459   11.3072    0.3010 O.2       1 RES1    0.0000
     18 C13        5.4680   11.4293    3.5918 C.3       1 RES1    0.0000
     19 C14        4.1518    7.2192    2.9830 C.ar      1 RES1    0.0000
     20 C15        4.3596   12.9675    1.9475 C.3       1 RES1    0.0000
     21 C16        0.4268    8.1748   -2.6967 C.ar      1 RES1    0.0000
     22 C17        1.5418   10.2373   -2.5801 C.ar      1 RES1    0.0000
     23 O5        -1.7434   10.3930    0.0532 O.2       1 RES1    0.0000
     24 C18        5.7806    8.7876    4.9090 C.3       1 RES1    0.0000
     25 C19        2.2623    5.7057    3.2116 C.ar      1 RES1    0.0000
     26 C20        1.8011    6.4462    4.2119 C.ar      1 RES1    0.0000
     27 C21        3.4035    6.0507    2.5756 C.ar      1 RES1    0.0000
     28 C22        0.2490    8.3451   -4.0490 C.ar      1 RES1    0.0000
     29 H1        -0.1976    7.6976   -4.5457 H         1 RES1    0.0000
     30 C23        4.5553   13.8951    0.7650 C.3       1 RES1    0.0000
     31 C24        0.7304    9.4643   -4.6589 C.ar      1 RES1    0.0000
     32 C25        1.3844   10.3986   -3.9358 C.ar      1 RES1    0.0000
     33 H2         4.0599    5.7471    2.0596 H         1 RES1    0.0000
     34 H3         3.7283   14.0598    0.3621 H         1 RES1    0.0000
     35 C26        2.4668    7.5900    4.6001 C.ar      1 RES1    0.0000
     36 H4         1.9537    9.5786   -0.1584 H         1 RES1    0.0000
     37 H5         4.8903    9.7914    2.4330 H         1 RES1    0.0000
     38 H6         1.6527    8.0886   -0.3395 H         1 RES1    0.0000
     39 H7         0.1042    7.4052   -2.2406 H         1 RES1    0.0000
     40 H8         2.5562   12.1104    1.3806 H         1 RES1    0.0000
     41 H9         5.1268   14.6311    1.0411 H         1 RES1    0.0000
     42 H10        5.1047   13.4212    0.0113 H         1 RES1    0.0000
     43 H11        6.2959   11.1022    3.9720 H         1 RES1    0.0000
     44 H12        6.3319    8.3686    4.1191 H         1 RES1    0.0000
     45 H13        2.7791   10.1947    5.3752 H         1 RES1    0.0000
     46 H14        6.1206   11.9088    1.6409 H         1 RES1    0.0000
     47 H15        3.6681    9.3433    6.3258 H         1 RES1    0.0000
     48 H16        6.2561   13.1635    2.8064 H         1 RES1    0.0000
     49 H17        5.7102    8.1110    5.5450 H         1 RES1    0.0000
     50 H18        2.7779   11.2601    3.4922 H         1 RES1    0.0000
     51 H19        3.9687   13.4212    2.7159 H         1 RES1    0.0000
     52 H20       -0.5677    8.3910    0.0453 H         1 RES1    0.0000
     53 H21        3.8192   11.3374    0.8940 H         1 RES1    0.0000
     54 H22        0.8206    7.8309    1.7993 H         1 RES1    0.0000
     55 H23        2.1663    8.1782    5.3865 H         1 RES1    0.0000
     56 H24        1.8889   10.8781   -2.0822 H         1 RES1    0.0000
     57 H25        5.0218    7.4948    2.5801 H         1 RES1    0.0000
     58 H26        1.5766    4.7613    2.9762 H         1 RES1    0.0000
     59 H27        4.3943   10.7213    5.9750 H         1 RES1    0.0000
     60 H28        0.9152    6.1280    4.7755 H         1 RES1    0.0000
     61 H29        0.5796    9.4665   -5.6468 H         1 RES1    0.0000
     62 H30        6.3358    9.6682    5.3752 H         1 RES1    0.0000
     63 H31        5.0498   11.8528    4.3681 H         1 RES1    0.0000
     64 H32        1.7476   11.2702   -4.2436 H         1 RES1    0.0000
     65 H33       -0.9493    9.2761    2.9988 H         1 RES1    0.0000
@<TRIPOS>BOND
     1    1    7 1
     2    2    9 1
     3    3    7 2
     4    4   11 1
     5    5    6 1
     6    6   65 1
     7    7    5 1
     8    8   11 1
     9    9    5 1
    10   10   12 1
    11   11    1 1
    12   12    4 1
    13   13    9 1
    14   14   18 1
    15   15   13 1
    16   16   12 1
    17   17    2 2
    18   18    4 1
    19   19   10 ar
    20   20    8 1
    21   21   15 ar
    22   22   15 ar
    23   23    2 2
    24   24   12 1
    25   25   26 ar
    26   26   35 ar
    27   27   19 ar
    28   28   21 ar
    29   29   28 1
    30   30   20 1
    31   31   28 ar
    32   32   22 ar
    33   33   27 1
    34   34   30 1
    35   35   10 ar
    36   36   13 1
    37   37    4 1
    38   38   13 1
    39   39   21 1
    40   40    8 1
    41   41   30 1
    42   42   30 1
    43   43   18 1
    44   44   24 1
    45   45   16 1
    46   46   14 1
    47   47   16 1
    48   48   14 1
    49   49   24 1
    50   50   11 1
    51   51   20 1
    52   52    9 1
    53   53    8 1
    54   54    5 1
    55   55   35 1
    56   56   22 1
    57   57   19 1
    58   58   25 1
    59   59   16 1
    60   60   26 1
    61   61   31 1
    62   62   24 1
    63   63   18 1
    64   64   32 1
    65   14   20 1
    66   25   27 ar
    67   31   32 ar
@<TRIPOS>SUBSTRUCTURE
     1 RES1 1

@<TRIPOS>CRYSIN
   9.5610   11.2030   11.3530  90.0000  94.6100  90.0000   4 1

