# MOL2 file generated by ConQuest
# Please check atom types

@<TRIPOS>MOLECULE
AXTMHP
    36    36     1
SMALL
NO_CHARGES
****
Generated from CSD

@<TRIPOS>ATOM
      1 N1        -1.8524    4.0929    2.7965 N.3       1 RES1    0.0000
      2 C1        -2.4893    3.4551    1.6099 C.3       1 RES1    0.0000
      3 C2        -1.9594    2.0671    1.2963 C.3       1 RES1    0.0000
      4 N2        -0.5393    1.9887    0.9868 N.am      1 RES1    0.0000
      5 C3         0.3542    1.7537    2.1179 C.3       1 RES1    0.0000
      6 C4        -0.1872    2.3242    3.4141 C.3       1 RES1    0.0000
      7 C5        -0.5330    3.8037    3.4377 C.3       1 RES1    0.0000
      8 C6        -3.9786    3.3125    1.9319 C.3       1 RES1    0.0000
      9 C7        -2.2999    4.3902    0.4191 C.3       1 RES1    0.0000
     10 C8         0.5288    4.6484    2.7535 C.3       1 RES1    0.0000
     11 C9        -0.6588    4.2476    4.8992 C.3       1 RES1    0.0000
     12 C10       -0.1515    1.8451   -0.3067 C.2       1 RES1    0.0000
     13 C11        1.3197    1.6432   -0.5871 C.3       1 RES1    0.0000
     14 O1        -0.9450    1.8772   -1.2324 O.2       1 RES1    0.0000
     15 O2        -2.3530    5.2390    3.0880 O.2       1 RES1    0.0000
     16 H1        -2.1316    1.4363    2.0263 H         1 RES1    0.0000
     17 H2        -2.4064    1.7577    0.4858 H         1 RES1    0.0000
     18 H3         0.4773    0.7834    2.2206 H         1 RES1    0.0000
     19 H4         1.2178    2.2599    1.8736 H         1 RES1    0.0000
     20 H5         0.5283    2.2097    4.1081 H         1 RES1    0.0000
     21 H6        -1.0122    1.8381    3.7889 H         1 RES1    0.0000
     22 H7        -4.4060    2.9128    1.1936 H         1 RES1    0.0000
     23 H8        -4.3328    4.1783    2.1096 H         1 RES1    0.0000
     24 H9        -4.0368    2.6918    2.7480 H         1 RES1    0.0000
     25 H10       -2.6418    5.2028    0.6662 H         1 RES1    0.0000
     26 H11       -1.3078    4.4997    0.2082 H         1 RES1    0.0000
     27 H12       -2.7579    4.0377   -0.3192 H         1 RES1    0.0000
     28 H13        1.4409    4.4696    3.2198 H         1 RES1    0.0000
     29 H14        0.2828    5.5443    2.8590 H         1 RES1    0.0000
     30 H15        0.5872    4.3390    1.7487 H         1 RES1    0.0000
     31 H16        0.2746    4.1080    5.3572 H         1 RES1    0.0000
     32 H17       -1.2395    3.5455    5.2878 H         1 RES1    0.0000
     33 H18       -0.9059    5.2530    4.8436 H         1 RES1    0.0000
     34 H19        1.6815    2.4005   -0.1249 H         1 RES1    0.0000
     35 H20        1.8188    1.1048    0.0833 H         1 RES1    0.0000
     36 H21        1.4049    1.1751   -1.4017 H         1 RES1    0.0000
@<TRIPOS>BOND
     1    1    2 1
     2    2    3 1
     3    3    4 1
     4    4    5 1
     5    5    6 1
     6    6    7 1
     7    7    1 1
     8    8    2 1
     9    9    2 1
    10   10    7 1
    11   11    7 1
    12   12    4 1
    13   13   12 1
    14   14   12 2
    15   15    1 1
    16   16    3 1
    17   17    3 1
    18   18    5 1
    19   19    5 1
    20   20    6 1
    21   21    6 1
    22   22    8 1
    23   23    8 1
    24   24    8 1
    25   25    9 1
    26   26    9 1
    27   27    9 1
    28   28   10 1
    29   29   10 1
    30   30   10 1
    31   31   11 1
    32   32   11 1
    33   33   11 1
    34   34   13 1
    35   35   13 1
    36   36   13 1
@<TRIPOS>SUBSTRUCTURE
     1 RES1 1

@<TRIPOS>CRYSIN
   8.7580   10.0440   14.0140  90.0000  97.9700  90.0000 231 1

