# MOL2 file generated by ConQuest
# Please check atom types

@<TRIPOS>MOLECULE
AXUHAE
    54    55     1
SMALL
NO_CHARGES
****
Generated from CSD

@<TRIPOS>ATOM
      1 C1        11.6052   11.5669    3.3764 C.ar      1 RES1    0.0000
      2 C2        10.6931   11.3113    4.4142 C.ar      1 RES1    0.0000
      3 C3        10.1228   12.3358    5.1438 C.ar      1 RES1    0.0000
      4 H1         9.5333   12.1407    5.8352 H         1 RES1    0.0000
      5 C4        10.4245   13.6476    4.8496 C.ar      1 RES1    0.0000
      6 C5        11.3070   13.9245    3.8199 C.ar      1 RES1    0.0000
      7 H2        11.5145   14.8066    3.6131 H         1 RES1    0.0000
      8 C6        11.8878   12.8915    3.0928 C.ar      1 RES1    0.0000
      9 H3        12.4755   13.0939    2.4023 H         1 RES1    0.0000
     10 C7        10.0983   15.9601    5.3864 C.3       1 RES1    0.0000
     11 H4         9.8489   16.1836    4.4862 H         1 RES1    0.0000
     12 H5        11.0367   16.1223    5.5086 H         1 RES1    0.0000
     13 H6         9.5978   16.5021    6.0005 H         1 RES1    0.0000
     14 C8        13.7173    9.8552    1.0755 C.2       1 RES1    0.0000
     15 C9        13.3668    8.4517    1.2137 C.2       1 RES1    0.0000
     16 C10       14.9033    7.8921   -0.6223 C.2       1 RES1    0.0000
     17 C11       15.2731    9.3034   -0.6653 C.2       1 RES1    0.0000
     18 C12       14.7219   10.2580    0.1102 C.2       1 RES1    0.0000
     19 C13       16.2812    9.6195   -1.6191 C.1       1 RES1    0.0000
     20 C14       15.1423   11.6897    0.0242 C.3       1 RES1    0.0000
     21 H7        15.7353   11.8051   -0.7219 H         1 RES1    0.0000
     22 H8        15.5940   11.9398    0.8335 H         1 RES1    0.0000
     23 H9        14.3679   12.2436   -0.0937 H         1 RES1    0.0000
     24 C15       13.6022    6.1434    0.5291 C.3       1 RES1    0.0000
     25 H10       13.4627    5.9319    1.4655 H         1 RES1    0.0000
     26 H11       14.3121    5.5718    0.1942 H         1 RES1    0.0000
     27 C16       12.3203    5.8775   -0.2508 C.3       1 RES1    0.0000
     28 H12       11.7517    6.6621   -0.2078 H         1 RES1    0.0000
     29 H13       12.5418    5.7212   -1.1823 H         1 RES1    0.0000
     30 C17       11.8808    3.5087   -0.1855 C.2       1 RES1    0.0000
     31 C18       11.0750    2.3657    0.3551 C.3       1 RES1    0.0000
     32 H14       11.3157    1.5583   -0.1058 H         1 RES1    0.0000
     33 H15       10.1402    2.5433    0.2247 H         1 RES1    0.0000
     34 H16       11.2529    2.2640    1.2930 H         1 RES1    0.0000
     35 C19       10.5640    5.0278    1.3123 C.3       1 RES1    0.0000
     36 H17       10.3966    4.2266    1.8327 H         1 RES1    0.0000
     37 H18       10.9006    5.7090    1.9138 H         1 RES1    0.0000
     38 C20        9.2891    5.4933    0.7030 C.3       1 RES1    0.0000
     39 H19        8.9804    4.8391    0.0710 H         1 RES1    0.0000
     40 H20        9.4356    6.3289    0.2541 H         1 RES1    0.0000
     41 H21        8.6298    5.6110    1.3906 H         1 RES1    0.0000
     42 N1        10.2972    9.9559    4.7887 N.pl3     1 RES1    0.0000
     43 N2        12.2261   10.5410    2.6507 N.pl3     1 RES1    0.0000
     44 H22       12.0029    9.7224    2.7845 H         1 RES1    0.0000
     45 N3        13.1505   10.8348    1.7665 N.2       1 RES1    0.0000
     46 N4        13.9981    7.5425    0.3962 N.am      1 RES1    0.0000
     47 N5        17.0782    9.9174   -2.3859 N.1       1 RES1    0.0000
     48 N6        11.5948    4.7348    0.2667 N.am      1 RES1    0.0000
     49 O1         9.8137   14.5716    5.6318 O.3       1 RES1    0.0000
     50 O2         9.5838    9.8072    5.7690 O.2       1 RES1    0.0000
     51 O3        10.7198    9.0006    4.1355 O.2       1 RES1    0.0000
     52 O4        12.5483    8.0710    2.0583 O.2       1 RES1    0.0000
     53 O5        15.3237    7.0563   -1.3949 O.2       1 RES1    0.0000
     54 O6        12.7738    3.3281   -1.0006 O.2       1 RES1    0.0000
@<TRIPOS>BOND
     1    1    2 ar
     2    2    3 ar
     3    3    4 1
     4    5    3 ar
     5    6    5 ar
     6    7    6 1
     7    8    1 ar
     8    9    8 1
     9   10   11 1
    10   12   10 1
    11   13   10 1
    12   14   15 1
    13   15   46 1
    14   16   17 1
    15   17   18 2
    16   18   14 1
    17   19   17 1
    18   20   18 1
    19   21   20 1
    20   22   20 1
    21   23   20 1
    22   24   25 1
    23   26   24 1
    24   27   24 1
    25   28   27 1
    26   29   27 1
    27   30   31 1
    28   31   32 1
    29   33   31 1
    30   34   31 1
    31   35   36 1
    32   37   35 1
    33   38   35 1
    34   39   38 1
    35   40   38 1
    36   41   38 1
    37   42    2 1
    38   43    1 1
    39   44   43 1
    40   45   14 2
    41   46   16 1
    42   47   19 3
    43   48   27 1
    44   49    5 1
    45   50   42 2
    46   51   42 2
    47   52   15 2
    48   53   16 2
    49   54   30 2
    50    6    8 ar
    51   10   49 1
    52   24   46 1
    53   30   48 1
    54   35   48 1
    55   43   45 1
@<TRIPOS>SUBSTRUCTURE
     1 RES1 1

@<TRIPOS>CRYSIN
  17.4410   24.5020    4.8317  90.0000  90.0000  90.0000  33 1

