# MOL2 file generated by ConQuest
# Please check atom types

@<TRIPOS>MOLECULE
AXUKOU
    41    44     1
SMALL
NO_CHARGES
****
Generated from CSD

@<TRIPOS>ATOM
      1 N1        -0.0526    1.8781    0.0936 N.2       1 RES1    0.0000
      2 N2        -4.5434   -1.0798    3.4688 N.pl3     1 RES1    0.0000
      3 O1        -4.6763   -1.9436    2.6130 O.2       1 RES1    0.0000
      4 O2        -5.4373   -0.7550    4.2053 O.2       1 RES1    0.0000
      5 C1        -3.2709   -0.3610    3.5339 C.ar      1 RES1    0.0000
      6 C2        -1.2767    4.4076    2.3916 C.ar      1 RES1    0.0000
      7 H1        -1.0271    4.7438    3.2216 H         1 RES1    0.0000
      8 C3        -2.2155   -0.8154    2.7797 C.ar      1 RES1    0.0000
      9 H2        -2.3013   -1.5790    2.2562 H         1 RES1    0.0000
     10 C4        -0.9011    1.0431    3.5688 C.ar      1 RES1    0.0000
     11 C5        -1.0277   -0.1177    2.8132 C.ar      1 RES1    0.0000
     12 H3        -0.3001   -0.4273    2.3234 H         1 RES1    0.0000
     13 C6        -0.5618    3.3894    1.8015 C.ar      1 RES1    0.0000
     14 C7         0.6435    2.6056    2.2412 C.3       1 RES1    0.0000
     15 C8        -3.1712    0.7590    4.3263 C.ar      1 RES1    0.0000
     16 H4        -3.8875    1.0365    4.8505 H         1 RES1    0.0000
     17 C9        -1.9862    1.4603    4.3266 C.ar      1 RES1    0.0000
     18 H5        -1.9112    2.2283    4.8451 H         1 RES1    0.0000
     19 C10        2.0267    0.8416    0.9276 C.3       1 RES1    0.0000
     20 H6         2.0440    0.3956    0.0672 H         1 RES1    0.0000
     21 H7         2.0126    0.1652    1.6225 H         1 RES1    0.0000
     22 C11       -0.9468    2.8913    0.5581 C.ar      1 RES1    0.0000
     23 C12        0.3815    1.8354    3.5607 C.3       1 RES1    0.0000
     24 H8         1.1228    1.2302    3.7197 H         1 RES1    0.0000
     25 H9         0.3595    2.4704    4.2926 H         1 RES1    0.0000
     26 C13        0.8161    1.6984    1.0300 C.2       1 RES1    0.0000
     27 C14        1.9313    3.4483    2.3541 C.3       1 RES1    0.0000
     28 H10        1.9664    4.0761    1.6161 H         1 RES1    0.0000
     29 H11        1.9058    3.9592    3.1789 H         1 RES1    0.0000
     30 C15       -2.3794    4.9219    1.7206 C.ar      1 RES1    0.0000
     31 H12       -2.8591    5.6251    2.0961 H         1 RES1    0.0000
     32 C16       -2.7688    4.4017    0.5056 C.ar      1 RES1    0.0000
     33 H13       -3.5241    4.7438    0.0843 H         1 RES1    0.0000
     34 C17        3.2662    1.7226    1.0838 C.3       1 RES1    0.0000
     35 H14        4.0549    1.1601    1.1307 H         1 RES1    0.0000
     36 H15        3.3529    2.2951    0.3051 H         1 RES1    0.0000
     37 C18       -2.0575    3.3794   -0.0994 C.ar      1 RES1    0.0000
     38 H16       -2.3198    3.0329   -0.9217 H         1 RES1    0.0000
     39 C19        3.1901    2.5875    2.3372 C.3       1 RES1    0.0000
     40 H17        3.1970    2.0163    3.1213 H         1 RES1    0.0000
     41 H18        3.9707    3.1614    2.3788 H         1 RES1    0.0000
@<TRIPOS>BOND
     1    1   22 1
     2    2    3 2
     3    4    2 2
     4    5    2 1
     5    6    7 1
     6    8    5 ar
     7    9    8 1
     8   10   11 ar
     9   11    8 ar
    10   12   11 1
    11   13    6 ar
    12   14   13 1
    13   15    5 ar
    14   16   15 1
    15   17   10 ar
    16   18   17 1
    17   19   20 1
    18   21   19 1
    19   22   13 ar
    20   23   10 1
    21   24   23 1
    22   25   23 1
    23   26    1 2
    24   27   14 1
    25   28   27 1
    26   29   27 1
    27   30    6 ar
    28   31   30 1
    29   32   30 ar
    30   33   32 1
    31   34   19 1
    32   35   34 1
    33   36   34 1
    34   37   22 ar
    35   38   37 1
    36   39   27 1
    37   40   39 1
    38   41   39 1
    39   14   23 1
    40   14   26 1
    41   15   17 ar
    42   19   26 1
    43   32   37 ar
    44   34   39 1
@<TRIPOS>SUBSTRUCTURE
     1 RES1 1

@<TRIPOS>CRYSIN
   8.7266   16.6916   11.0857  90.0000 105.7900  90.0000  14 1

