# MOL2 file generated by ConQuest
# Please check atom types

@<TRIPOS>MOLECULE
AXUYIB
    52    56     1
SMALL
NO_CHARGES
****
Generated from CSD

@<TRIPOS>ATOM
      1 N1         1.9369    5.2489   24.2675 N.am      1 RES1    0.0000
      2 H1         2.4040    4.5776   24.5708 H         1 RES1    0.0000
      3 C1         0.6254    5.0064   24.0381 C.2       1 RES1    0.0000
      4 O1        -0.1763    5.8498   23.6811 O.2       1 RES1    0.0000
      5 C2         0.2282    3.5277   24.2726 C.3       1 RES1    0.0000
      6 H2         0.9434    2.9522   23.9039 H         1 RES1    0.0000
      7 N2         0.1231    3.2555   25.7362 N.am      1 RES1    0.0000
      8 C3         1.2089    3.0632   26.4868 C.2       1 RES1    0.0000
      9 O2         2.3657    3.0918   26.0535 O.2       1 RES1    0.0000
     10 C4         0.9890    2.9355   27.9968 C.3       1 RES1    0.0000
     11 H3         0.1141    2.6183   28.2283 H         1 RES1    0.0000
     12 C5         1.3709    4.2516   28.6930 C.3       1 RES1    0.0000
     13 H4         1.0643    4.2323   29.6129 H         1 RES1    0.0000
     14 H5         2.3363    4.3465   28.7008 H         1 RES1    0.0000
     15 C6         0.7570    5.4249   27.9854 C.2       1 RES1    0.0000
     16 C7         1.3701    6.1434   27.0267 C.2       1 RES1    0.0000
     17 H6         2.2747    6.1240   26.7509 H         1 RES1    0.0000
     18 N3         0.4890    7.0616   26.4507 N.am      1 RES1    0.0000
     19 C8         0.7608    7.8977   25.3606 C.2       1 RES1    0.0000
     20 O3        -0.0100    8.7772   25.0373 O.2       1 RES1    0.0000
     21 C9         2.0853    7.7108   24.6901 C.ar      1 RES1    0.0000
     22 C10        2.6110    6.5053   24.1928 C.ar      1 RES1    0.0000
     23 C11        3.8860    6.4939   23.6359 C.ar      1 RES1    0.0000
     24 H7         4.2337    5.6970   23.3057 H         1 RES1    0.0000
     25 C12        4.6422    7.6466   23.5644 C.ar      1 RES1    0.0000
     26 H8         5.5065    7.6176   23.2220 H         1 RES1    0.0000
     27 C13        4.1089    8.8442   24.0067 C.ar      1 RES1    0.0000
     28 H9         4.6034    9.6288   23.9398 H         1 RES1    0.0000
     29 C14        2.8430    8.8705   24.5480 C.ar      1 RES1    0.0000
     30 H10        2.4854    9.6824   24.8250 H         1 RES1    0.0000
     31 C15       -0.6025    5.9108   28.0716 C.ar      1 RES1    0.0000
     32 C16       -1.6859    5.5748   28.8835 C.ar      1 RES1    0.0000
     33 H11       -1.6128    4.8939   29.5112 H         1 RES1    0.0000
     34 C17       -2.8719    6.2760   28.7352 C.ar      1 RES1    0.0000
     35 H12       -3.6030    6.0598   29.2660 H         1 RES1    0.0000
     36 C18       -2.9815    7.3057   27.7943 C.ar      1 RES1    0.0000
     37 H13       -3.7841    7.7688   27.7199 H         1 RES1    0.0000
     38 C19       -1.9240    7.6519   26.9725 C.ar      1 RES1    0.0000
     39 H14       -2.0023    8.3346   26.3442 H         1 RES1    0.0000
     40 C20       -0.7440    6.9405   27.1218 C.ar      1 RES1    0.0000
     41 C21       -1.2857    3.0330   26.1393 C.3       1 RES1    0.0000
     42 H15       -1.5025    3.5312   26.9423 H         1 RES1    0.0000
     43 H16       -1.4614    2.0920   26.2934 H         1 RES1    0.0000
     44 C22       -2.0678    3.5479   24.9524 C.3       1 RES1    0.0000
     45 H17       -2.2184    4.5038   25.0224 H         1 RES1    0.0000
     46 H18       -2.9236    3.0971   24.8758 H         1 RES1    0.0000
     47 C23       -1.1678    3.2193   23.7612 C.3       1 RES1    0.0000
     48 H19       -1.2492    2.2853   23.5091 H         1 RES1    0.0000
     49 H20       -1.3884    3.7719   22.9947 H         1 RES1    0.0000
     50 N4         1.8631    1.7955   28.4609 N.pl3     1 RES1    0.0000
     51 O4         1.6326    0.7035   27.9663 O.2       1 RES1    0.0000
     52 O5         2.7213    1.9960   29.3001 O.2       1 RES1    0.0000
@<TRIPOS>BOND
     1    1    2 1
     2    3    1 1
     3    4    3 2
     4    5    3 1
     5    6    5 1
     6    7    5 1
     7    8    7 1
     8    9    8 2
     9   10    8 1
    10   11   10 1
    11   12   10 1
    12   13   12 1
    13   14   12 1
    14   15   12 1
    15   16   15 2
    16   17   16 1
    17   18   16 1
    18   19   18 1
    19   20   19 2
    20   21   19 1
    21   22    1 1
    22   23   22 ar
    23   24   23 1
    24   25   23 ar
    25   26   25 1
    26   27   25 ar
    27   28   27 1
    28   29   21 ar
    29   30   29 1
    30   31   15 1
    31   32   31 ar
    32   33   32 1
    33   34   32 ar
    34   35   34 1
    35   36   34 ar
    36   37   36 1
    37   38   36 ar
    38   39   38 1
    39   40   18 1
    40   41    7 1
    41   42   41 1
    42   43   41 1
    43   44   41 1
    44   45   44 1
    45   46   44 1
    46   47    5 1
    47   48   47 1
    48   49   47 1
    49   50   10 1
    50   51   50 2
    51   52   50 2
    52   21   22 ar
    53   27   29 ar
    54   31   40 ar
    55   38   40 ar
    56   44   47 1
@<TRIPOS>SUBSTRUCTURE
     1 RES1 1

@<TRIPOS>CRYSIN
   7.6077    8.7862   29.9060  90.0000  90.0000  90.0000  19 1

