# MOL2 file generated by ConQuest
# Please check atom types

@<TRIPOS>MOLECULE
AYAMIX
    40    41     1
SMALL
NO_CHARGES
****
Generated from CSD

@<TRIPOS>ATOM
      1 N1         2.5203    1.7482    4.7507 N.2       1 RES1    0.0000
      2 C1         3.6114    1.2457    4.1776 C.2       1 RES1    0.0000
      3 N2         3.9806    1.9552    3.0489 N.3       1 RES1    0.0000
      4 C2         3.0797    2.9866    2.9150 C.ar      1 RES1    0.0000
      5 C3         2.9675    3.9936    1.9805 C.ar      1 RES1    0.0000
      6 H1         3.5744    4.0947    1.2828 H         1 RES1    0.0000
      7 C4         1.8903    4.8437    2.1512 C.ar      1 RES1    0.0000
      8 C5         0.9747    4.7198    3.1861 C.ar      1 RES1    0.0000
      9 H2         0.2737    5.3267    3.2590 H         1 RES1    0.0000
     10 C6         1.0968    3.7038    4.1061 C.ar      1 RES1    0.0000
     11 H3         0.4800    3.6072    4.7958 H         1 RES1    0.0000
     12 C7         2.1685    2.8257    3.9771 C.ar      1 RES1    0.0000
     13 O1         2.5687    6.0820    0.3278 O.2       1 RES1    0.0000
     14 O2         0.6988    6.5981    1.2407 O.2       1 RES1    0.0000
     15 N3         1.7112    5.9082    1.1790 N.pl3     1 RES1    0.0000
     16 C8         4.3449    0.1152    4.6624 C.2       1 RES1    0.0000
     17 H4         5.1504   -0.1061    4.2556 H         1 RES1    0.0000
     18 C9         3.9051   -0.6350    5.6881 C.2       1 RES1    0.0000
     19 H5         3.0724   -0.4073    6.0346 H         1 RES1    0.0000
     20 C10        4.5566   -1.7298    6.3043 C.2       1 RES1    0.0000
     21 H6         5.3805   -2.0167    5.9821 H         1 RES1    0.0000
     22 C11        3.9913   -2.3616    7.3574 C.2       1 RES1    0.0000
     23 H7         3.1575   -2.0388    7.6143 H         1 RES1    0.0000
     24 N4         4.4565   -3.3837    8.0817 N.3       1 RES1    0.0000
     25 C12        5.7177   -4.0055    7.7697 C.3       1 RES1    0.0000
     26 H8         6.1155   -3.5620    7.0163 H         1 RES1    0.0000
     27 H9         5.5739   -4.9306    7.5564 H         1 RES1    0.0000
     28 H10        6.3035   -3.9395    8.5263 H         1 RES1    0.0000
     29 C13        3.7225   -3.9291    9.1896 C.3       1 RES1    0.0000
     30 H11        2.9013   -3.4439    9.2989 H         1 RES1    0.0000
     31 H12        4.2473   -3.8529    9.9902 H         1 RES1    0.0000
     32 H13        3.5275   -4.8538    9.0214 H         1 RES1    0.0000
     33 C14        5.0279    1.6324    2.0810 C.3       1 RES1    0.0000
     34 H14        4.6754    1.7471    1.1842 H         1 RES1    0.0000
     35 H15        5.2761    0.7001    2.1841 H         1 RES1    0.0000
     36 C15        6.2316    2.4682    2.2344 C.2       1 RES1    0.0000
     37 H16        6.5930    2.5703    3.0843 H         1 RES1    0.0000
     38 C16        6.8162    3.0727    1.2335 C.2       1 RES1    0.0000
     39 H17        6.4726    2.9851    0.3729 H         1 RES1    0.0000
     40 H18        7.5747    3.5899    1.3814 H         1 RES1    0.0000
@<TRIPOS>BOND
     1    1    2 2
     2    2    3 1
     3    3    4 1
     4    4    5 ar
     5    5    6 1
     6    7    5 ar
     7    8    7 ar
     8    9    8 1
     9   10    8 ar
    10   11   10 1
    11   12    1 1
    12   13   15 2
    13   14   15 2
    14   15    7 1
    15   16    2 1
    16   17   16 1
    17   18   16 2
    18   19   18 1
    19   20   18 1
    20   21   20 1
    21   22   20 2
    22   23   22 1
    23   24   22 1
    24   25   24 1
    25   26   25 1
    26   27   25 1
    27   28   25 1
    28   29   24 1
    29   30   29 1
    30   31   29 1
    31   32   29 1
    32   33    3 1
    33   34   33 1
    34   35   33 1
    35   36   33 1
    36   37   36 1
    37   38   36 2
    38   39   38 1
    39   40   38 1
    40    4   12 ar
    41   10   12 ar
@<TRIPOS>SUBSTRUCTURE
     1 RES1 1

@<TRIPOS>CRYSIN
   8.4565    9.3177   11.5310  68.8300  85.4200  65.5800   2 1

