# MOL2 file generated by ConQuest
# Please check atom types

@<TRIPOS>MOLECULE
AYASIC
    48    50     1
SMALL
NO_CHARGES
****
Generated from CSD

@<TRIPOS>ATOM
      1 O1         0.2471    0.4814    2.9460 O.2       1 RES1    0.0000
      2 O2         4.9735   -2.8378    6.6792 O.2       1 RES1    0.0000
      3 O3         6.5058   -1.5284    5.8240 O.2       1 RES1    0.0000
      4 O4         1.3985   -1.2400    0.6275 O.2       1 RES1    0.0000
      5 O5         2.5446   -0.7653   -1.2153 O.3       1 RES1    0.0000
      6 N1         2.5621    2.9860    3.1204 N.ar      1 RES1    0.0000
      7 N2         5.3628   -1.9698    5.8999 N.pl3     1 RES1    0.0000
      8 C1         2.7243    4.2174    3.6041 C.ar      1 RES1    0.0000
      9 C2         2.2206    5.3221    2.9630 C.ar      1 RES1    0.0000
     10 C3         1.5288    5.1712    1.7930 C.ar      1 RES1    0.0000
     11 C4         1.3638    3.9075    1.2584 C.ar      1 RES1    0.0000
     12 C5         1.9141    2.8371    1.9515 C.ar      1 RES1    0.0000
     13 C6         1.8292    1.4236    1.4894 C.2       1 RES1    0.0000
     14 C7         1.4179    0.5075    2.6119 C.2       1 RES1    0.0000
     15 C8         2.4610   -0.2138    3.4002 C.ar      1 RES1    0.0000
     16 C9         2.0753   -0.9135    4.5272 C.ar      1 RES1    0.0000
     17 H1         1.1722   -0.9956    4.7344 H         1 RES1    0.0000
     18 C10        3.0248   -1.4948    5.3495 C.ar      1 RES1    0.0000
     19 H2         2.7701   -1.9694    6.1072 H         1 RES1    0.0000
     20 C11        4.3374   -1.3570    5.0233 C.ar      1 RES1    0.0000
     21 C12        4.7528   -0.6796    3.9167 C.ar      1 RES1    0.0000
     22 H3         5.6580   -0.6020    3.7196 H         1 RES1    0.0000
     23 C13        3.7998   -0.1080    3.0932 C.ar      1 RES1    0.0000
     24 H4         4.0640    0.3498    2.3287 H         1 RES1    0.0000
     25 C14        2.0739    1.0218    0.2333 C.2       1 RES1    0.0000
     26 C15        2.5083    1.9616   -0.8314 C.ar      1 RES1    0.0000
     27 C16        1.6972    2.1962   -1.9379 C.ar      1 RES1    0.0000
     28 C17        2.0371    3.1856   -2.8452 C.ar      1 RES1    0.0000
     29 C18        3.1649    3.9395   -2.6674 C.ar      1 RES1    0.0000
     30 C19        3.9822    3.6788   -1.6038 C.ar      1 RES1    0.0000
     31 H5         4.7654    4.1691   -1.4928 H         1 RES1    0.0000
     32 C20        3.6596    2.7075   -0.7045 C.ar      1 RES1    0.0000
     33 C21        3.5044    4.3161    4.9089 C.3       1 RES1    0.0000
     34 H6         4.1825    3.6368    4.9292 H         1 RES1    0.0000
     35 H7         2.9055    4.1925    5.6496 H         1 RES1    0.0000
     36 H8         3.9159    5.1812    4.9712 H         1 RES1    0.0000
     37 C22        1.9500   -0.4411   -0.0714 C.2       1 RES1    0.0000
     38 C23        2.4000   -2.1322   -1.6514 C.3       1 RES1    0.0000
     39 H9         2.9245   -2.2724   -2.4431 H         1 RES1    0.0000
     40 H10        1.4760   -2.3092   -1.8451 H         1 RES1    0.0000
     41 H11        2.7014   -2.7230   -0.9582 H         1 RES1    0.0000
     42 H12        2.3836    6.1409    3.2733 H         1 RES1    0.0000
     43 H13        0.8857    1.6647   -2.0388 H         1 RES1    0.0000
     44 H14        0.8816    3.7788    0.4417 H         1 RES1    0.0000
     45 H15        4.1516    2.5779    0.0113 H         1 RES1    0.0000
     46 H16        1.4611    3.3022   -3.5905 H         1 RES1    0.0000
     47 H17        3.3043    4.6746   -3.2280 H         1 RES1    0.0000
     48 H18        1.1789    5.8105    1.2572 H         1 RES1    0.0000
@<TRIPOS>BOND
     1    1   14 2
     2    2    7 2
     3    3    7 2
     4    4   37 2
     5    5   37 1
     6    6    8 ar
     7    7   20 1
     8    8    9 ar
     9    9   10 ar
    10   10   11 ar
    11   11   12 ar
    12   12    6 ar
    13   13   12 1
    14   14   13 1
    15   15   14 1
    16   16   15 ar
    17   17   16 1
    18   18   16 ar
    19   19   18 1
    20   20   18 ar
    21   21   20 ar
    22   22   21 1
    23   23   15 ar
    24   24   23 1
    25   25   13 2
    26   26   25 1
    27   27   26 ar
    28   28   27 ar
    29   29   28 ar
    30   30   29 ar
    31   31   30 1
    32   32   26 ar
    33   33    8 1
    34   34   33 1
    35   35   33 1
    36   36   33 1
    37   37   25 1
    38   38    5 1
    39   39   38 1
    40   40   38 1
    41   41   38 1
    42   42    9 1
    43   43   27 1
    44   44   11 1
    45   45   32 1
    46   46   28 1
    47   47   29 1
    48   48   10 1
    49   21   23 ar
    50   30   32 ar
@<TRIPOS>SUBSTRUCTURE
     1 RES1 1

@<TRIPOS>CRYSIN
   9.2096    9.6929   11.8722  87.1610  72.7340  88.4840   2 1

