# MOL2 file generated by ConQuest
# Please check atom types

@<TRIPOS>MOLECULE
AYAVIG
    41    43     1
SMALL
USER_CHARGES
****
Generated from CSD

@<TRIPOS>ATOM
      1 N1         2.6382    1.2597    4.0604 N.ar      1 RES1    0.0000
      2 O1         1.5604    4.2760    1.6694 O.3       1 RES1    0.0000
      3 N2         2.3412    3.5284    3.6132 N.pl3     1 RES1    1.0000
      4 C1         1.8827    3.2210    2.3746 C.ar      1 RES1    0.0000
      5 C2         3.2528    2.8637    5.7489 C.2       1 RES1    0.0000
      6 N3         1.7572    2.0053    1.9395 N.ar      1 RES1    0.0000
      7 O2         2.6933    5.7586    4.8348 O.2       1 RES1   -1.0000
      8 C3         2.7189    2.5122    4.4143 C.ar      1 RES1    0.0000
      9 O3         4.1478    2.4080    7.6676 O.3       1 RES1    0.0000
     10 N4         3.6278    1.8514    6.4886 N.2       1 RES1    0.0000
     11 O4         3.6694    6.4077    6.7283 O.3       1 RES1    0.0000
     12 C4         3.4923    4.1281    6.3646 C.2       1 RES1    0.0000
     13 C5         3.2461    5.4533    5.8958 C.2       1 RES1    0.0000
     14 O5         4.5473    4.4416    8.5489 O.2       1 RES1    0.0000
     15 C6         2.1395    1.0312    2.8085 C.ar      1 RES1    0.0000
     16 N5         2.0100   -0.2280    2.4204 N.3       1 RES1    0.0000
     17 C7         2.4240   -1.3672    3.2485 C.3       1 RES1    0.0000
     18 C8         1.0039    4.0533    0.3464 C.3       1 RES1    0.0000
     19 C9         1.3525   -0.5957    1.1524 C.3       1 RES1    0.0000
     20 C10        4.1000    3.8080    7.6140 C.2       1 RES1    0.0000
     21 C11        2.6137   -2.7368    1.1667 C.3       1 RES1    0.0000
     22 C12        2.2034   -1.5364    0.3513 C.3       1 RES1    0.0000
     23 C13        3.3013   -2.2980    2.4414 C.3       1 RES1    0.0000
     24 C14        3.5345    7.7644    6.2644 C.3       1 RES1    0.0000
     25 H1         0.5418   -1.0534    1.4379 H         1 RES1    0.0000
     26 H2         1.1387    0.2411    0.6773 H         1 RES1    0.0000
     27 H3         1.7486   -1.7807   -0.4689 H         1 RES1    0.0000
     28 H4         3.0300   -1.0621    0.0729 H         1 RES1    0.0000
     29 H5         1.7579   -3.2787    1.3577 H         1 RES1    0.0000
     30 H6         3.1470   -3.3118    0.6356 H         1 RES1    0.0000
     31 H7         4.1412   -1.8325    2.2403 H         1 RES1    0.0000
     32 H8         3.5399   -3.0368    3.0217 H         1 RES1    0.0000
     33 H9         2.8838   -1.0216    3.9970 H         1 RES1    0.0000
     34 H10        1.5665   -1.8364    3.5115 H         1 RES1    0.0000
     35 H11        0.1151    3.6765    0.4168 H         1 RES1    0.0000
     36 H12        0.9084    4.9145   -0.0104 H         1 RES1    0.0000
     37 H13        1.5869    3.4774   -0.1563 H         1 RES1    0.0000
     38 H14        3.7699    8.3411    7.0751 H         1 RES1    0.0000
     39 H15        4.1230    7.8987    5.5225 H         1 RES1    0.0000
     40 H16        2.6332    7.9344    6.0227 H         1 RES1    0.0000
     41 H17        2.4417    4.4350    3.9418 H         1 RES1    0.0000
@<TRIPOS>BOND
     1    1    8 ar
     2    2    4 1
     3    3    4 ar
     4    4    6 ar
     5    5    8 1
     6    6   15 ar
     7    7   13 1
     8    8    3 ar
     9    9   10 1
    10   10    5 2
    11   11   13 1
    12   12    5 1
    13   13   12 2
    14   14   20 2
    15   15    1 ar
    16   16   15 1
    17   17   16 1
    18   18    2 1
    19   19   16 1
    20   20    9 1
    21   21   22 1
    22   22   19 1
    23   23   17 1
    24   24   11 1
    25   25   19 1
    26   26   19 1
    27   27   22 1
    28   28   22 1
    29   29   21 1
    30   30   21 1
    31   31   23 1
    32   32   23 1
    33   33   17 1
    34   34   17 1
    35   35   18 1
    36   36   18 1
    37   37   18 1
    38   38   24 1
    39   39   24 1
    40   40   24 1
    41   41    3 1
    42   12   20 1
    43   21   23 1
@<TRIPOS>SUBSTRUCTURE
     1 RES1 1

@<TRIPOS>CRYSIN
   7.0908   10.5571   11.1432  98.5520 107.4930  97.1870   2 1

