# MOL2 file generated by ConQuest
# Please check atom types

@<TRIPOS>MOLECULE
AYECEM
    31    32     1
SMALL
NO_CHARGES
****
Generated from CSD

@<TRIPOS>ATOM
      1 O1         9.3688    2.2459    9.5866 O.2       1 RES1    0.0000
      2 O2         7.4542    2.0748   10.7377 O.3       1 RES1    0.0000
      3 O3         7.7952   -0.9662    7.4983 O.2       1 RES1    0.0000
      4 O4         7.2154    1.7904    5.9650 O.2       1 RES1    0.0000
      5 O5         8.4884    3.0294    4.7145 O.2       1 RES1    0.0000
      6 N1         7.7471    0.6674    9.0469 N.am      1 RES1    0.0000
      7 N2        10.7196    0.4577    7.5457 N.3       1 RES1    0.0000
      8 N3        11.5981    1.1955    6.8058 N.2       1 RES1    0.0000
      9 N4         8.3206    2.2088    5.6088 N.pl3     1 RES1    0.0000
     10 C1         8.2919    1.7231    9.7562 C.2       1 RES1    0.0000
     11 C2         6.2569    1.2633   10.6735 C.3       1 RES1    0.0000
     12 C3         6.5106    0.1933    9.6737 C.3       1 RES1    0.0000
     13 C4         8.2725    0.0572    7.9355 C.2       1 RES1    0.0000
     14 C5         9.4427    0.7395    7.2660 C.2       1 RES1    0.0000
     15 C6         9.4816    1.6754    6.2616 C.2       1 RES1    0.0000
     16 C7        10.8338    1.9609    6.0063 C.2       1 RES1    0.0000
     17 C8        11.4679    2.9351    5.0524 C.3       1 RES1    0.0000
     18 C9        12.9930    2.9425    5.1028 C.3       1 RES1    0.0000
     19 C10       11.2328   -0.4449    8.5745 C.3       1 RES1    0.0000
     20 H1         6.0845    0.8745   11.5448 H         1 RES1    0.0000
     21 H2         5.4976    1.8026   10.4044 H         1 RES1    0.0000
     22 H3         5.7928    0.1308    9.0255 H         1 RES1    0.0000
     23 H4         6.6415   -0.6695   10.0971 H         1 RES1    0.0000
     24 H5        11.1943    2.7126    4.1474 H         1 RES1    0.0000
     25 H6        11.1411    3.8197    5.2802 H         1 RES1    0.0000
     26 H7        13.2826    3.5744    5.7648 H         1 RES1    0.0000
     27 H8        13.3546    3.1861    4.2468 H         1 RES1    0.0000
     28 H9        13.2994    2.0648    5.3413 H         1 RES1    0.0000
     29 H10       11.3896   -1.3110    8.1908 H         1 RES1    0.0000
     30 H11       10.5858   -0.5207    9.2793 H         1 RES1    0.0000
     31 H12       12.0541   -0.0985    8.9307 H         1 RES1    0.0000
@<TRIPOS>BOND
     1    1   10 2
     2    2   10 1
     3    3   13 2
     4    4    9 2
     5    5    9 2
     6    6   10 1
     7    7    8 1
     8    8   16 2
     9    9   15 1
    10   11    2 1
    11   12    6 1
    12   13    6 1
    13   14    7 1
    14   15   14 2
    15   16   15 1
    16   17   16 1
    17   18   17 1
    18   19    7 1
    19   20   11 1
    20   21   11 1
    21   22   12 1
    22   23   12 1
    23   24   17 1
    24   25   17 1
    25   26   18 1
    26   27   18 1
    27   28   18 1
    28   29   19 1
    29   30   19 1
    30   31   19 1
    31   11   12 1
    32   13   14 1
@<TRIPOS>SUBSTRUCTURE
     1 RES1 1

@<TRIPOS>CRYSIN
  15.2175    5.2970   15.8185  90.0000 104.8930  90.0000 231 1

