# MOL2 file generated by ConQuest
# Please check atom types

@<TRIPOS>MOLECULE
AYOYAP
    25    22     2
SMALL
NO_CHARGES
****
Generated from CSD

@<TRIPOS>ATOM
      1 C1         3.2676    1.3886    0.9065 C.ar      1 RES1    0.0000
      2 C2         2.0563    2.0774    1.0050 C.ar      1 RES1    0.0000
      3 C3         1.9240    3.4484    1.0109 C.ar      1 RES1    0.0000
      4 H1         1.0613    3.8392    1.0822 H         1 RES1    0.0000
      5 C4         3.0407    4.2601    0.9139 C.ar      1 RES1    0.0000
      6 C5         4.2667    3.6321    0.8117 C.ar      1 RES1    0.0000
      7 H2         5.0555    4.1546    0.7315 H         1 RES1    0.0000
      8 C6         4.3608    2.2547    0.8257 C.ar      1 RES1    0.0000
      9 C7         3.3547   -0.1077    0.7904 C.3       1 RES1    0.0000
     10 H3         3.5234   -0.4947    1.6748 H         1 RES1    0.0000
     11 H4         4.0866   -0.3464    0.1845 H         1 RES1    0.0000
     12 H5         2.5102   -0.4581    0.4367 H         1 RES1    0.0000
     13 C8         2.9139    5.7620    0.9095 C.3       1 RES1    0.0000
     14 H6         2.5129    6.0535    0.0640 H         1 RES1    0.0000
     15 H7         3.8018    6.1653    1.0065 H         1 RES1    0.0000
     16 H8         2.3439    6.0442    1.6557 H         1 RES1    0.0000
     17 N1         0.8028    1.3148    1.1168 N.pl3     1 RES1    0.0000
     18 N2         5.7210    1.7054    0.7668 N.pl3     1 RES1    0.0000
     19 O1         0.7721    0.3680    1.8961 O.2       1 RES1    0.0000
     20 O2        -0.1369    1.6787    0.4477 O.2       1 RES1    0.0000
     21 O3         5.9519    0.6612    1.3444 O.2       1 RES1    0.0000
     22 O4         6.5659    2.3401    0.1610 O.2       1 RES1    0.0000
     23 H9         3.2603    6.1211    1.7535 Du        2 SUP2    0.0000
     24 H10        1.9715    6.0104    0.8109 Du        2 SUP2    0.0000
     25 H11        3.4293    6.1315    0.1617 Du        2 SUP2    0.0000
@<TRIPOS>BOND
     1    1    2 ar
     2    2    3 ar
     3    3    4 1
     4    5    3 ar
     5    6    5 ar
     6    7    6 1
     7    8    1 ar
     8    9    1 1
     9   10    9 1
    10   11    9 1
    11   12    9 1
    12   13    5 1
    13   14   13 1
    14   15   13 1
    15   16   13 1
    16   17    2 1
    17   18    8 1
    18   19   17 2
    19   20   17 2
    20   21   18 2
    21   22   18 2
    22    6    8 ar
@<TRIPOS>SUBSTRUCTURE
     1 RES1 1
     2 SUP2 23

@<TRIPOS>CRYSIN
  12.5820    9.3868    7.3565  90.0000  91.9630  90.0000  14 1

