# MOL2 file generated by ConQuest
# Please check atom types

@<TRIPOS>MOLECULE
AYUGUX01
    31    32     1
SMALL
NO_CHARGES
****
Generated from CSD

@<TRIPOS>ATOM
      1 H1        10.5853   12.0883   -0.3290 H         1 RES1    0.0000
      2 C1         8.6069   12.5798    0.7940 C.ar      1 RES1    0.0000
      3 N1        10.9654   12.4931    1.0236 N.2       1 RES1    0.0000
      4 C2        12.1623   12.4714    1.7878 C.ar      1 RES1    0.0000
      5 C3         7.3786   12.8717    1.3831 C.ar      1 RES1    0.0000
      6 H2         7.3454   13.1991    2.2534 H         1 RES1    0.0000
      7 C4         6.2191   12.6761    0.6791 C.ar      1 RES1    0.0000
      8 C5        12.2020   11.9833    3.0821 C.ar      1 RES1    0.0000
      9 H3        11.4188   11.7119    3.5030 H         1 RES1    0.0000
     10 O1         9.7847   11.8424   -1.1514 O.3       1 RES1    0.0000
     11 C6         7.4264   11.9004   -1.2229 C.ar      1 RES1    0.0000
     12 H4         7.4374   11.5670   -2.0907 H         1 RES1    0.0000
     13 C7        13.4072   11.9011    3.7457 C.ar      1 RES1    0.0000
     14 H5        13.4270   11.5627    4.6117 H         1 RES1    0.0000
     15 C8         9.8188   12.7147    1.5594 C.2       1 RES1    0.0000
     16 H6         9.7707   12.9661    2.4539 H         1 RES1    0.0000
     17 C9        13.3377   12.8799    1.1757 C.ar      1 RES1    0.0000
     18 H7        13.3199   13.2034    0.3042 H         1 RES1    0.0000
     19 N2         4.9509   12.9904    1.3129 N.pl3     1 RES1    0.0000
     20 C10       14.5894   12.3097    3.1529 C.ar      1 RES1    0.0000
     21 C11        6.2305   12.1852   -0.6301 C.ar      1 RES1    0.0000
     22 H8         5.4328   12.0542   -1.0913 H         1 RES1    0.0000
     23 C12        8.6393   12.1008   -0.5457 C.ar      1 RES1    0.0000
     24 C13       14.5325   12.8056    1.8617 C.ar      1 RES1    0.0000
     25 H9        15.3149   13.0940    1.4489 H         1 RES1    0.0000
     26 O2         3.9308   12.8468    0.6735 O.2       1 RES1    0.0000
     27 O3         4.9526   13.4096    2.4607 O.2       1 RES1    0.0000
     28 C14       15.8991   12.1786    3.8872 C.3       1 RES1    0.0000
     29 H10       16.6106   12.5073    3.3329 H         1 RES1    0.0000
     30 H11       16.0582   11.2559    4.0964 H         1 RES1    0.0000
     31 H12       15.8630   12.6891    4.6992 H         1 RES1    0.0000
@<TRIPOS>BOND
     1    1   10 1
     2    2    5 ar
     3    3    4 1
     4    4    8 ar
     5    5    6 1
     6    7    5 ar
     7    8    9 1
     8   10   23 1
     9   11   12 1
    10   13    8 ar
    11   14   13 1
    12   15    2 1
    13   16   15 1
    14   17    4 ar
    15   18   17 1
    16   19    7 1
    17   20   13 ar
    18   21    7 ar
    19   22   21 1
    20   23    2 ar
    21   24   17 ar
    22   25   24 1
    23   26   19 2
    24   27   19 2
    25   28   20 1
    26   29   28 1
    27   30   28 1
    28   31   28 1
    29    3   15 2
    30   11   21 ar
    31   11   23 ar
    32   20   24 ar
@<TRIPOS>SUBSTRUCTURE
     1 RES1 1

@<TRIPOS>CRYSIN
  14.0721   14.2048    6.2356  90.0000  95.4280  90.0000  14 1

