# MOL2 file generated by ConQuest
# Please check atom types

@<TRIPOS>MOLECULE
AYUGUX
    32    32     2
SMALL
NO_CHARGES
****
Generated from CSD

@<TRIPOS>ATOM
      1 O1         2.4498    9.4440    1.9499 O.3       1 RES1    0.0000
      2 O2        -3.3983    8.4490    3.7776 O.2       1 RES1    0.0000
      3 O3        -2.3757    7.8828    5.5655 O.2       1 RES1    0.0000
      4 N1         3.6351    8.7904    4.1302 N.2       1 RES1    0.0000
      5 N2        -2.3753    8.3017    4.4170 N.pl3     1 RES1    0.0000
      6 C1         4.8319    8.8098    4.8944 C.ar      1 RES1    0.0000
      7 C2         6.0075    8.4115    4.2848 C.ar      1 RES1    0.0000
      8 C3         7.1994    8.4817    4.9683 C.ar      1 RES1    0.0000
      9 C4         7.2564    8.9816    6.2608 C.ar      1 RES1    0.0000
     10 C5         6.0738    9.3805    6.8487 C.ar      1 RES1    0.0000
     11 C6         4.8690    9.3034    6.1863 C.ar      1 RES1    0.0000
     12 C7         8.5632    9.1085    6.9927 C.3       1 RES1    0.0000
     13 C8         2.4884    8.5724    4.6610 C.2       1 RES1    0.0000
     14 C9         1.2772    8.7103    3.8974 C.ar      1 RES1    0.0000
     15 C10        1.3075    9.1817    2.5577 C.ar      1 RES1    0.0000
     16 C11        0.1011    9.3840    1.8804 C.ar      1 RES1    0.0000
     17 C12       -1.0971    9.1006    2.4751 C.ar      1 RES1    0.0000
     18 C13       -1.1078    8.6085    3.7844 C.ar      1 RES1    0.0000
     19 C14        0.0506    8.4154    4.4859 C.ar      1 RES1    0.0000
     20 H1         3.0617    9.2403    2.4211 H         1 RES1    0.0000
     21 H2         5.9923    8.0955    3.4099 H         1 RES1    0.0000
     22 H3         7.9804    8.1890    4.5566 H         1 RES1    0.0000
     23 H4         6.0907    9.7113    7.7179 H         1 RES1    0.0000
     24 H5         4.0861    9.5812    6.6038 H         1 RES1    0.0000
     25 H6         8.4440    8.8455    7.9084 H         1 RES1    0.0000
     26 H7         8.8617   10.0205    6.9584 H         1 RES1    0.0000
     27 H8         9.2180    8.5416    6.5795 H         1 RES1    0.0000
     28 H9         2.4388    8.3210    5.5551 H         1 RES1    0.0000
     29 H10        0.1139    9.7167    1.0119 H         1 RES1    0.0000
     30 H11       -1.8944    9.2331    2.0151 H         1 RES1    0.0000
     31 H12        0.0187    8.0874    5.3556 H         1 RES1    0.0000
     32 H13        3.5491    9.0844    3.2158 Du        2 SUP2    0.0000
@<TRIPOS>BOND
     1    1   15 1
     2    2    5 2
     3    3    5 2
     4    4    6 1
     5    5   18 1
     6    6    7 ar
     7    7    8 ar
     8    8    9 ar
     9    9   10 ar
    10   10   11 ar
    11   11    6 ar
    12   12    9 1
    13   13    4 2
    14   14   13 1
    15   15   14 ar
    16   16   15 ar
    17   17   16 ar
    18   18   17 ar
    19   19   14 ar
    20   20    1 1
    21   21    7 1
    22   22    8 1
    23   23   10 1
    24   24   11 1
    25   25   12 1
    26   26   12 1
    27   27   12 1
    28   28   13 1
    29   29   16 1
    30   30   17 1
    31   31   19 1
    32   18   19 ar
@<TRIPOS>SUBSTRUCTURE
     1 RES1 1
     2 SUP2 32

@<TRIPOS>CRYSIN
  14.0623   14.1723    6.2357  90.0000  95.4000  90.0000  14 1

