# MOL2 file generated by ConQuest
# Please check atom types

@<TRIPOS>MOLECULE
AYUQIU
    36    37     1
SMALL
NO_CHARGES
****
Generated from CSD

@<TRIPOS>ATOM
      1 C1         0.9221    6.8614    8.9138 C.ar      1 RES1    0.0000
      2 C2        -0.1616    6.0384    9.2043 C.ar      1 RES1    0.0000
      3 C3        -0.2880    5.3888   10.4299 C.ar      1 RES1    0.0000
      4 H1        -1.0174    4.8031   10.5933 H         1 RES1    0.0000
      5 C4         0.6660    5.6135   11.4031 C.ar      1 RES1    0.0000
      6 H2         0.5941    5.1795   12.2453 H         1 RES1    0.0000
      7 C5         1.7279    6.4688   11.1567 C.ar      1 RES1    0.0000
      8 H3         2.3694    6.6341   11.8371 H         1 RES1    0.0000
      9 C6         1.8592    7.0842    9.9214 C.ar      1 RES1    0.0000
     10 H4         2.5939    7.6646    9.7605 H         1 RES1    0.0000
     11 N1        -1.2587    5.8766    8.2467 N.pl3     1 RES1    0.0000
     12 O1        -1.6341    6.8588    7.6293 O.2       1 RES1    0.0000
     13 O2        -1.7706    4.7588    8.1502 O.2       1 RES1    0.0000
     14 N2         1.1481    7.4486    7.6480 N.am      1 RES1    0.0000
     15 C7         1.1619    6.7478    6.4949 C.2       1 RES1    0.0000
     16 O3         0.7918    5.5820    6.3979 O.2       1 RES1    0.0000
     17 C8         1.6909    7.5541    5.3211 C.3       1 RES1    0.0000
     18 H5         1.1086    8.3438    5.1881 H         1 RES1    0.0000
     19 H6         2.5977    7.8829    5.5427 H         1 RES1    0.0000
     20 N3         1.7551    6.8085    4.0860 N.pl3     1 RES1    0.0000
     21 N4         0.8125    7.0492    3.1192 N.2       1 RES1    0.0000
     22 C9         1.1724    6.2612    2.1015 C.2       1 RES1    0.0000
     23 C10        2.3286    5.5371    2.4397 C.2       1 RES1    0.0000
     24 C11        2.6906    5.9153    3.7210 C.2       1 RES1    0.0000
     25 C12        0.3824    6.2990    0.8190 C.3       1 RES1    0.0000
     26 H7        -0.3738    6.9144    0.9194 H         1 RES1    0.0000
     27 H8         0.0483    5.4005    0.6143 H         1 RES1    0.0000
     28 H9         0.9594    6.6071    0.0893 H         1 RES1    0.0000
     29 C13        3.8266    5.5200    4.5905 C.3       1 RES1    0.0000
     30 H10        4.6701    5.7860    4.1670 H         1 RES1    0.0000
     31 H11        3.8175    4.5488    4.7194 H         1 RES1    0.0000
     32 H12        3.7433    5.9647    5.4602 H         1 RES1    0.0000
     33 N5         3.0436    4.5488    1.6375 N.pl3     1 RES1    0.0000
     34 O4         4.0578    4.0070    2.1207 O.2       1 RES1    0.0000
     35 O5         2.5438    4.2820    0.5427 O.2       1 RES1    0.0000
     36 H13        1.5870    8.3402    7.6605 H         1 RES1    0.0000
@<TRIPOS>BOND
     1    1    2 ar
     2    2    3 ar
     3    3    4 1
     4    5    3 ar
     5    6    5 1
     6    7    5 ar
     7    8    7 1
     8    9    1 ar
     9   10    9 1
    10   11    2 1
    11   12   11 2
    12   13   11 2
    13   14    1 1
    14   15   14 1
    15   16   15 2
    16   17   15 1
    17   18   17 1
    18   19   17 1
    19   20   17 1
    20   21   20 1
    21   22   21 2
    22   23   22 1
    23   24   20 1
    24   25   22 1
    25   26   25 1
    26   27   25 1
    27   28   25 1
    28   29   24 1
    29   30   29 1
    30   31   29 1
    31   32   29 1
    32   33   23 1
    33   34   33 2
    34   35   33 2
    35   36   14 1
    36    7    9 ar
    37   23   24 2
@<TRIPOS>SUBSTRUCTURE
     1 RES1 1

@<TRIPOS>CRYSIN
   5.7788    8.9844   14.0304  90.0000 101.6110  90.0000   4 1

