# MOL2 file generated by ConQuest
# Please check atom types

@<TRIPOS>MOLECULE
AZAFIQ
    52    55     1
SMALL
NO_CHARGES
****
Generated from CSD

@<TRIPOS>ATOM
      1 C1         4.6637   10.1238   14.9214 C.ar      1 RES1    0.0000
      2 N1         5.1586   10.0350   13.5445 N.pl3     1 RES1    0.0000
      3 O1         6.3173    9.7040   13.4149 O.2       1 RES1    0.0000
      4 O2         4.4076   10.3373   12.6511 O.2       1 RES1    0.0000
      5 C2         3.5179   10.8337   15.1667 C.ar      1 RES1    0.0000
      6 H1         3.0393   11.2330   14.4765 H         1 RES1    0.0000
      7 C3         3.1092   10.9317   16.4665 C.ar      1 RES1    0.0000
      8 N2         1.8824   11.7376   16.7502 N.pl3     1 RES1    0.0000
      9 O3         1.3619   12.3381   15.8148 O.2       1 RES1    0.0000
     10 O4         1.4766   11.7692   17.8959 O.2       1 RES1    0.0000
     11 C4         3.7595   10.3230   17.5210 C.ar      1 RES1    0.0000
     12 H2         3.4370   10.3832   18.3899 H         1 RES1    0.0000
     13 C5         4.9071    9.6244   17.2232 C.ar      1 RES1    0.0000
     14 C6         5.3642    9.5222   15.9409 C.ar      1 RES1    0.0000
     15 H3         6.1444    9.0493   15.7587 H         1 RES1    0.0000
     16 C7         5.7281    9.0013   18.3093 C.2       1 RES1    0.0000
     17 O5         6.8215    8.5499   18.1019 O.2       1 RES1    0.0000
     18 O6         5.1534    9.0330   19.4816 O.3       1 RES1    0.0000
     19 C8         5.9086    8.6367   20.6426 C.3       1 RES1    0.0000
     20 H4         6.8425    8.5254   20.4044 H         1 RES1    0.0000
     21 H5         5.5767    7.7900   20.9790 H         1 RES1    0.0000
     22 C9         5.7729    9.6948   21.7007 C.3       1 RES1    0.0000
     23 H6         4.8274    9.7929   21.9389 H         1 RES1    0.0000
     24 N3         6.5409    9.3302   22.9080 N.3       1 RES1    0.0000
     25 C10        7.3979   10.5365   23.1651 C.3       1 RES1    0.0000
     26 H7         8.1420   10.3965   23.7853 H         1 RES1    0.0000
     27 C11        6.4687   11.7151   23.5015 C.2       1 RES1    0.0000
     28 C12        5.8457   12.0082   22.3874 C.2       1 RES1    0.0000
     29 C13        6.3377   11.0655   21.3048 C.3       1 RES1    0.0000
     30 H8         6.1863   11.3474   20.3799 H         1 RES1    0.0000
     31 C14        7.7997   10.8807   21.7322 C.3       1 RES1    0.0000
     32 H9         8.2439   10.1514   21.2733 H         1 RES1    0.0000
     33 H10        8.3237   11.6947   21.6656 H         1 RES1    0.0000
     34 C15        5.7193    8.9176   24.0445 C.3       1 RES1    0.0000
     35 C16        6.5648    8.6929   25.2883 C.ar      1 RES1    0.0000
     36 C17        6.4105    9.4569   26.3849 C.ar      1 RES1    0.0000
     37 H11        5.7752   10.1361   26.3743 H         1 RES1    0.0000
     38 C18        7.1557    9.2659   27.5200 C.ar      1 RES1    0.0000
     39 H12        7.0090    9.7960   28.2697 H         1 RES1    0.0000
     40 C19        8.1106    8.3027   27.5480 C.ar      1 RES1    0.0000
     41 H13        8.6480    8.1914   28.3013 H         1 RES1    0.0000
     42 C20        8.2853    7.4866   26.4409 C.ar      1 RES1    0.0000
     43 H14        8.9269    6.8156   26.4514 H         1 RES1    0.0000
     44 C21        7.4993    7.6746   25.3268 C.ar      1 RES1    0.0000
     45 H15        7.5982    7.1118   24.5946 H         1 RES1    0.0000
     46 C22        4.9374    7.6531   23.6942 C.3       1 RES1    0.0000
     47 H16        5.5487    6.9596   23.4349 H         1 RES1    0.0000
     48 H17        4.3383    7.8380   22.9689 H         1 RES1    0.0000
     49 H18        4.4332    7.3661   24.4579 H         1 RES1    0.0000
     50 H19        4.9432    9.4681   24.1742 H         1 RES1    0.0000
     51 H20        5.2460   12.5424   22.1772 H         1 RES1    0.0000
     52 H21        6.4163   11.9909   24.3844 H         1 RES1    0.0000
@<TRIPOS>BOND
     1    1    2 1
     2    2    3 2
     3    4    2 2
     4    5    1 ar
     5    6    5 1
     6    7    5 ar
     7    8    7 1
     8    9    8 2
     9   10    8 2
    10   11    7 ar
    11   12   11 1
    12   13   11 ar
    13   14    1 ar
    14   15   14 1
    15   16   13 1
    16   17   16 2
    17   18   16 1
    18   19   18 1
    19   20   19 1
    20   21   19 1
    21   22   19 1
    22   23   22 1
    23   24   22 1
    24   25   24 1
    25   26   25 1
    26   27   25 1
    27   28   27 2
    28   29   22 1
    29   30   29 1
    30   31   25 1
    31   32   31 1
    32   33   31 1
    33   34   24 1
    34   35   34 1
    35   36   35 ar
    36   37   36 1
    37   38   36 ar
    38   39   38 1
    39   40   38 ar
    40   41   40 1
    41   42   40 ar
    42   43   42 1
    43   44   35 ar
    44   45   44 1
    45   46   34 1
    46   47   46 1
    47   48   46 1
    48   49   46 1
    49   50   34 1
    50   51   28 1
    51   52   27 1
    52   13   14 ar
    53   28   29 1
    54   29   31 1
    55   42   44 ar
@<TRIPOS>SUBSTRUCTURE
     1 RES1 1

@<TRIPOS>CRYSIN
   5.8224   10.2137   35.0350  90.0000  90.0000  90.0000  19 1

