# MOL2 file generated by ConQuest
# Please check atom types

@<TRIPOS>MOLECULE
AZAPIA
    42    44     1
SMALL
USER_CHARGES
****
Generated from CSD

@<TRIPOS>ATOM
      1 O1         7.2386    4.3003   10.7876 O.2       1 RES1   -1.0000
      2 N1         5.9807    4.6526   10.7288 N.pl3     1 RES1    1.0000
      3 C1         3.5169    3.6100    7.0909 C.3       1 RES1    0.0000
      4 H1         3.2818    3.9832    6.2042 H         1 RES1    0.0000
      5 H2         4.2300    2.9362    6.9534 H         1 RES1    0.0000
      6 C2         4.0821    4.7733    8.0019 C.3       1 RES1    0.0000
      7 H3         5.0238    4.5729    8.2317 H         1 RES1    0.0000
      8 H4         4.0701    5.6191    7.4876 H         1 RES1    0.0000
      9 C3         3.2953    4.9628    9.2758 C.ar      1 RES1    0.0000
     10 C4         3.6173    4.2897   10.4754 C.ar      1 RES1    0.0000
     11 C5         2.5994    3.9780   11.3789 C.ar      1 RES1    0.0000
     12 H5         2.8046    3.4673   12.1538 H         1 RES1    0.0000
     13 C6         1.2870    4.4031   11.1656 C.ar      1 RES1    0.0000
     14 C7         1.0870    5.3528   10.1699 C.ar      1 RES1    0.0000
     15 H6         0.2652    5.8284   10.1338 H         1 RES1    0.0000
     16 C8         2.0663    5.6148    9.2327 C.ar      1 RES1    0.0000
     17 H7         1.8978    6.2506    8.5473 H         1 RES1    0.0000
     18 C9         0.1053    3.6942   11.7708 C.3       1 RES1    0.0000
     19 H8        -0.5770    4.3651   12.0271 H         1 RES1    0.0000
     20 H9         0.3962    3.2281   12.5948 H         1 RES1    0.0000
     21 C10       -0.5467    2.6486   10.7910 C.3       1 RES1    0.0000
     22 H10       -0.6485    1.7853   11.2643 H         1 RES1    0.0000
     23 H11       -1.4509    2.9640   10.5412 H         1 RES1    0.0000
     24 C11        0.2609    2.4262    9.5308 C.ar      1 RES1    0.0000
     25 C12        0.0104    3.1535    8.3747 C.ar      1 RES1    0.0000
     26 H12       -0.8647    3.4834    8.2094 H         1 RES1    0.0000
     27 C13        1.0193    3.4059    7.4585 C.ar      1 RES1    0.0000
     28 H13        0.8296    3.9129    6.6776 H         1 RES1    0.0000
     29 C14        2.3055    2.9252    7.6677 C.ar      1 RES1    0.0000
     30 C15        2.4589    1.9499    8.6520 C.ar      1 RES1    0.0000
     31 H14        3.2614    1.4436    8.6902 H         1 RES1    0.0000
     32 C16        1.4542    1.7121    9.5736 C.ar      1 RES1    0.0000
     33 H15        1.5813    1.0514   10.2443 H         1 RES1    0.0000
     34 C17        4.9911    3.8002   10.7055 C.2       1 RES1    0.0000
     35 C18        5.7615    6.1174   10.7357 C.3       1 RES1    0.0000
     36 H16        5.7819    6.4547    9.8157 H         1 RES1    0.0000
     37 H17        6.4682    6.5513   11.2581 H         1 RES1    0.0000
     38 H18        4.8907    6.3157   11.1376 H         1 RES1    0.0000
     39 C19        5.2977    2.3486   10.8633 C.3       1 RES1    0.0000
     40 H19        5.3739    1.9330    9.9797 H         1 RES1    0.0000
     41 H20        4.5776    1.9155   11.3662 H         1 RES1    0.0000
     42 H21        6.1427    2.2440   11.3475 H         1 RES1    0.0000
@<TRIPOS>BOND
     1    1    2 1
     2    2   34 2
     3    3    4 1
     4    5    3 1
     5    6    3 1
     6    7    6 1
     7    8    6 1
     8    9    6 1
     9   10    9 ar
    10   11   10 ar
    11   12   11 1
    12   13   11 ar
    13   14   13 ar
    14   15   14 1
    15   16    9 ar
    16   17   16 1
    17   18   13 1
    18   19   18 1
    19   20   18 1
    20   21   18 1
    21   22   21 1
    22   23   21 1
    23   24   21 1
    24   25   24 ar
    25   26   25 1
    26   27   25 ar
    27   28   27 1
    28   29    3 1
    29   30   29 ar
    30   31   30 1
    31   32   24 ar
    32   33   32 1
    33   34   10 1
    34   35    2 1
    35   36   35 1
    36   37   35 1
    37   38   35 1
    38   39   34 1
    39   40   39 1
    40   41   39 1
    41   42   39 1
    42   14   16 ar
    43   27   29 ar
    44   30   32 ar
@<TRIPOS>SUBSTRUCTURE
     1 RES1 1

@<TRIPOS>CRYSIN
  15.7360    7.3166   12.5400  90.0000  97.8200  90.0000  14 1

