# MOL2 file generated by ConQuest
# Please check atom types

@<TRIPOS>MOLECULE
AZEJAS
    29    29     1
SMALL
USER_CHARGES
****
Generated from CSD

@<TRIPOS>ATOM
      1 O1         0.9558    1.7596    1.4124 O.2       1 RES1   -1.0000
      2 N1        -0.2294    1.5467    2.0322 N.pl3     1 RES1    1.0000
      3 C1        -1.6040    1.7819    4.0660 C.ar      1 RES1    0.0000
      4 C2        -3.8411    1.2799    5.7450 C.ar      1 RES1    0.0000
      5 N2        -4.9248    1.0242    6.5451 N.3       1 RES1    0.0000
      6 N3         0.6323    2.6791    3.7895 N.pl3     1 RES1    0.0000
      7 H1         1.3765    2.7874    3.3328 H         1 RES1    0.0000
      8 H2         0.5633    3.0088    4.6026 H         1 RES1    0.0000
      9 C3        -1.4396    1.2626    5.3598 C.ar      1 RES1    0.0000
     10 H3        -0.5636    1.0898    5.6827 H         1 RES1    0.0000
     11 C4        -3.9979    1.8542    4.4603 C.ar      1 RES1    0.0000
     12 H4        -4.8665    2.0873    4.1536 H         1 RES1    0.0000
     13 C5        -2.9006    2.0810    3.6438 C.ar      1 RES1    0.0000
     14 H5        -3.0341    2.4483    2.7779 H         1 RES1    0.0000
     15 C6        -2.5244    0.9978    6.1733 C.ar      1 RES1    0.0000
     16 H6        -2.3826    0.6204    7.0335 H         1 RES1    0.0000
     17 C7        -0.3921    2.0148    3.2489 C.2       1 RES1    0.0000
     18 C8        -6.2319    1.5526    6.2011 C.3       1 RES1    0.0000
     19 H7        -6.1570    2.5106    6.0097 H         1 RES1    0.0000
     20 H8        -6.8474    1.4162    6.9515 H         1 RES1    0.0000
     21 H9        -6.5740    1.0875    5.4100 H         1 RES1    0.0000
     22 C9        -1.1789    0.7351    1.2919 C.3       1 RES1    0.0000
     23 H10       -1.4939    1.2328    0.5091 H         1 RES1    0.0000
     24 H11       -1.9405    0.5166    1.8685 H         1 RES1    0.0000
     25 H12       -0.7425   -0.0923    0.9991 H         1 RES1    0.0000
     26 C10       -4.7816    0.2965    7.7933 C.3       1 RES1    0.0000
     27 H13       -4.1006   -0.4002    7.6894 H         1 RES1    0.0000
     28 H14       -5.6379   -0.1176    8.0307 H         1 RES1    0.0000
     29 H15       -4.5103    0.9157    8.5026 H         1 RES1    0.0000
@<TRIPOS>BOND
     1    1    2 1
     2    2   17 2
     3    3    9 ar
     4    4    5 1
     5    5   18 1
     6    6    7 1
     7    8    6 1
     8    9   10 1
     9   11    4 ar
    10   12   11 1
    11   13    3 ar
    12   14   13 1
    13   15    4 ar
    14   16   15 1
    15   17    3 1
    16   18   19 1
    17   20   18 1
    18   21   18 1
    19   22    2 1
    20   23   22 1
    21   24   22 1
    22   25   22 1
    23   26    5 1
    24   27   26 1
    25   28   26 1
    26   29   26 1
    27    6   17 1
    28    9   15 ar
    29   11   13 ar
@<TRIPOS>SUBSTRUCTURE
     1 RES1 1

@<TRIPOS>CRYSIN
   9.1118   11.5323    9.5800  90.0000  95.6730  90.0000  14 1

