# MOL2 file generated by ConQuest
# Please check atom types

@<TRIPOS>MOLECULE
AZIQIJ
    24    25     1
SMALL
NO_CHARGES
****
Generated from CSD

@<TRIPOS>ATOM
      1 N1         4.6527    3.6381    4.3811 N.pl3     1 RES1    0.0000
      2 C1         4.6560    2.3996    3.6436 C.ar      1 RES1    0.0000
      3 C2         5.8359    1.6653    3.5899 C.ar      1 RES1    0.0000
      4 H1         6.6461    2.0272    4.0135 H         1 RES1    0.0000
      5 C3         5.8534    0.4786    2.8711 C.ar      1 RES1    0.0000
      6 H2         6.6461   -0.0380    2.8143 H         1 RES1    0.0000
      7 C4         4.7139    0.0488    2.2036 C.ar      1 RES1    0.0000
      8 H3         4.7288   -0.7877    1.7191 H         1 RES1    0.0000
      9 C5         3.5595    0.8103    2.2355 C.ar      1 RES1    0.0000
     10 H4         2.7912    0.5158    1.7953 H         1 RES1    0.0000
     11 C6         3.5173    1.9926    2.9723 C.ar      1 RES1    0.0000
     12 H5         2.7506    2.5250    3.0292 H         1 RES1    0.0000
     13 C7         4.4239    4.8852    3.8413 C.2       1 RES1    0.0000
     14 H6         4.1733    4.9600    2.8836 H         1 RES1    0.0000
     15 N2         4.6307    5.8440    4.7111 N.2       1 RES1    0.0000
     16 C8         5.0134    5.1683    5.8451 C.2       1 RES1    0.0000
     17 N3         5.3861    5.8802    7.0259 N.pl3     1 RES1    0.0000
     18 O1         5.8697    5.2325    7.9588 O.2       1 RES1    0.0000
     19 O2         5.2323    7.1023    7.0593 O.2       1 RES1    0.0000
     20 C9         5.0331    3.8044    5.6903 C.2       1 RES1    0.0000
     21 C10        5.2864    2.6705    6.6198 C.3       1 RES1    0.0000
     22 H7         6.2735    2.5190    6.6683 H         1 RES1    0.0000
     23 H8         4.8237    1.8972    6.3425 H         1 RES1    0.0000
     24 H9         4.9795    2.9568    7.4793 H         1 RES1    0.0000
@<TRIPOS>BOND
     1    1    2 1
     2    2    3 ar
     3    3    4 1
     4    5    3 ar
     5    6    5 1
     6    7    5 ar
     7    8    7 1
     8    9    7 ar
     9   10    9 1
    10   11    2 ar
    11   12   11 1
    12   13    1 1
    13   14   13 1
    14   15   13 2
    15   16   15 1
    16   17   16 1
    17   18   17 2
    18   19   17 2
    19   20    1 1
    20   21   20 1
    21   22   21 1
    22   23   21 1
    23   24   21 1
    24    9   11 ar
    25   16   20 2
@<TRIPOS>SUBSTRUCTURE
     1 RES1 1

@<TRIPOS>CRYSIN
   6.7748   19.9918    6.9317  90.0000  90.0000  90.0000  33 1

