# MOL2 file generated by ConQuest
# Please check atom types

@<TRIPOS>MOLECULE
AZOLOR
    14    14     1
SMALL
NO_CHARGES
****
Generated from CSD

@<TRIPOS>ATOM
      1 O1        -0.4978    1.9427    1.6035 O.3       1 RES1    0.0000
      2 N1         0.2618    1.0950    2.3990 N.2       1 RES1    0.0000
      3 C1         1.1046    1.8894    3.0251 C.2       1 RES1    0.0000
      4 C2         2.0865    1.2891    3.9576 C.2       1 RES1    0.0000
      5 C3         0.9291    3.2368    2.6716 C.2       1 RES1    0.0000
      6 H1         1.4022    3.9741    2.9847 H         1 RES1    0.0000
      7 C4        -0.0778    3.2239    1.7772 C.2       1 RES1    0.0000
      8 O2         2.1193    0.0488    4.0981 O.2       1 RES1    0.0000
      9 C5        -0.7778    4.2584    0.9789 C.3       1 RES1    0.0000
     10 H2        -0.8725    3.9556    0.0727 H         1 RES1    0.0000
     11 H3        -0.2674    5.0716    0.9942 H         1 RES1    0.0000
     12 H4        -1.6466    4.4187    1.3546 H         1 RES1    0.0000
     13 O3         2.8442    2.1205    4.5474 O.3       1 RES1    0.0000
     14 H5         3.5215    1.6390    5.0663 H         1 RES1    0.0000
@<TRIPOS>BOND
     1    1    2 1
     2    2    3 2
     3    3    4 1
     4    4    8 2
     5    5    3 1
     6    6    5 1
     7    7    1 1
     8    9    7 1
     9   10    9 1
    10   11    9 1
    11   12    9 1
    12   13    4 1
    13   14   13 1
    14    5    7 2
@<TRIPOS>SUBSTRUCTURE
     1 RES1 1

@<TRIPOS>CRYSIN
   4.9125    5.6909   10.4640  82.2100  79.7200  78.9600   2 1

