# MOL2 file generated by ConQuest
# Please check atom types

@<TRIPOS>MOLECULE
AZOMAD01
    52    51     2
SMALL
NO_CHARGES
****
Generated from CSD

@<TRIPOS>ATOM
      1 O1         3.0942    5.5005    6.0946 O.2       1 RES1    0.0000
      2 N1         2.7013    0.6281    5.3961 N.3       1 RES1    0.0000
      3 H1         2.3969   -0.1338    5.0771 Du        2 SUP2    0.0000
      4 O2         2.2827   -0.4877    4.9016 O.2       1 RES1    0.0000
      5 N2         2.4364    5.4684    4.9907 N.3       1 RES1    0.0000
      6 C1         2.3767    1.8000    4.6743 C.ar      1 RES1    0.0000
      7 C2         2.5849    3.0838    5.1732 C.ar      1 RES1    0.0000
      8 C3         2.2048    4.1991    4.4128 C.ar      1 RES1    0.0000
      9 C4         1.6368    4.0233    3.1410 C.ar      1 RES1    0.0000
     10 C5         1.4282    2.7322    2.6464 C.ar      1 RES1    0.0000
     11 C6         1.7885    1.6245    3.4096 C.ar      1 RES1    0.0000
     12 H2         1.6371    0.7490    3.0747 H         1 RES1    0.0000
     13 O3         1.5082    0.4297    3.2860 Du        2 SUP2    0.0000
     14 C7         0.8075    2.5334    1.2999 C.ar      1 RES1    0.0000
     15 C8         1.2914    1.5357    0.4477 C.ar      1 RES1    0.0000
     16 C9         0.7106    1.3367   -0.7987 C.ar      1 RES1    0.0000
     17 C10       -0.3587    2.1210   -1.2079 C.ar      1 RES1    0.0000
     18 C11       -0.8368    3.1206   -0.3689 C.ar      1 RES1    0.0000
     19 C12       -0.2493    3.3290    0.8768 C.ar      1 RES1    0.0000
     20 C13        3.5243    0.5615    6.6699 C.3       1 RES1    0.0000
     21 C14        3.7641   -0.9203    6.9643 C.3       1 RES1    0.0000
     22 C15        2.7431    1.1697    7.8380 C.3       1 RES1    0.0000
     23 C16        4.8757    1.2492    6.4540 C.3       1 RES1    0.0000
     24 C17        1.9958    6.8012    4.4175 C.3       1 RES1    0.0000
     25 C18        2.8168    7.0956    3.1575 C.3       1 RES1    0.0000
     26 C19        2.3095    7.8703    5.4610 C.3       1 RES1    0.0000
     27 C20        0.4842    6.7941    4.1653 C.3       1 RES1    0.0000
     28 H3         2.9568    3.2460    6.0200 H         1 RES1    0.0000
     29 H4         1.4148    4.7686    2.5901 H         1 RES1    0.0000
     30 H5         2.0412    0.9803    0.7158 H         1 RES1    0.0000
     31 H6         1.0532    0.6234   -1.3728 H         1 RES1    0.0000
     32 H7        -0.7859    2.0169   -2.0813 H         1 RES1    0.0000
     33 H8        -1.6097    3.6710   -0.6254 H         1 RES1    0.0000
     34 H9        -0.6264    4.0032    1.4758 H         1 RES1    0.0000
     35 H10        2.9168   -1.3630    7.1185 H         1 RES1    0.0000
     36 H11        4.3416   -0.9638    7.7608 H         1 RES1    0.0000
     37 H12        4.2212   -1.3747    6.2156 H         1 RES1    0.0000
     38 H13        1.8734    0.7983    7.8796 H         1 RES1    0.0000
     39 H14        2.6317    2.1472    7.7618 H         1 RES1    0.0000
     40 H15        3.2277    0.9838    8.6553 H         1 RES1    0.0000
     41 H16        5.4324    1.0836    7.2405 H         1 RES1    0.0000
     42 H17        5.3244    0.8593    5.6700 H         1 RES1    0.0000
     43 H18        4.7816    2.2082    6.3060 H         1 RES1    0.0000
     44 H19        2.6399    6.4580    2.4219 H         1 RES1    0.0000
     45 H20        2.6053    8.0029    2.8266 H         1 RES1    0.0000
     46 H21        3.7840    7.0931    3.3837 H         1 RES1    0.0000
     47 H22        2.0509    8.7249    5.0866 H         1 RES1    0.0000
     48 H23        1.7925    7.7035    6.3070 H         1 RES1    0.0000
     49 H24        3.2760    7.9043    5.6605 H         1 RES1    0.0000
     50 H25        0.2005    7.6965    3.9944 H         1 RES1    0.0000
     51 H26        0.0100    6.4662    4.9479 H         1 RES1    0.0000
     52 H27        0.1813    6.2314    3.3974 H         1 RES1    0.0000
@<TRIPOS>BOND
     1    1    5 1
     2    2    4 1
     3    5    8 1
     4    6    2 1
     5    7    6 ar
     6    8    7 ar
     7    9    8 ar
     8   10    9 ar
     9   11    6 ar
    10   12   11 1
    11   14   10 1
    12   15   14 ar
    13   16   15 ar
    14   17   16 ar
    15   18   17 ar
    16   19   14 ar
    17   20    2 1
    18   21   20 1
    19   22   20 1
    20   23   20 1
    21   24    5 1
    22   25   24 1
    23   26   24 1
    24   27   24 1
    25   28    7 1
    26   29    9 1
    27   30   15 1
    28   31   16 1
    29   32   17 1
    30   33   18 1
    31   34   19 1
    32   35   21 1
    33   36   21 1
    34   37   21 1
    35   38   22 1
    36   39   22 1
    37   40   22 1
    38   41   23 1
    39   42   23 1
    40   43   23 1
    41   44   25 1
    42   45   25 1
    43   46   25 1
    44   47   26 1
    45   48   26 1
    46   49   26 1
    47   50   27 1
    48   51   27 1
    49   52   27 1
    50   10   11 ar
    51   18   19 ar
@<TRIPOS>SUBSTRUCTURE
     1 RES1 1
     2 SUP2 3

@<TRIPOS>CRYSIN
  29.2720   11.7396   11.2259  90.0000 110.5480  90.0000  15 1

