# MOL2 file generated by ConQuest
# Please check atom types

@<TRIPOS>MOLECULE
AZOMAD
    50    51     1
SMALL
NO_CHARGES
****
Generated from CSD

@<TRIPOS>ATOM
      1 O1         0.2227    2.1351    4.5442 O.2       1 RES1    0.0000
      2 O2         4.2109    2.1756    9.1801 O.2       1 RES1    0.0000
      3 N1         1.4839    1.9374    4.8061 N.3       1 RES1    0.0000
      4 N2         4.1598    0.9346    8.8175 N.3       1 RES1    0.0000
      5 C1         1.7537    1.1241    5.9753 C.ar      1 RES1    0.0000
      6 C2         2.7912    1.4480    6.8576 C.ar      1 RES1    0.0000
      7 C3         3.0540    0.5977    7.9272 C.ar      1 RES1    0.0000
      8 C4         2.2689   -0.5340    8.1618 C.ar      1 RES1    0.0000
      9 C5         1.1912   -0.8393    7.3078 C.ar      1 RES1    0.0000
     10 C6         0.9579   -0.0026    6.2100 C.ar      1 RES1    0.0000
     11 C7         0.3464   -2.0540    7.5475 C.ar      1 RES1    0.0000
     12 C8        -0.3063   -2.6959    6.4829 C.ar      1 RES1    0.0000
     13 C9        -1.0603   -3.8503    6.6955 C.ar      1 RES1    0.0000
     14 C10       -1.1788   -4.3825    7.9765 C.ar      1 RES1    0.0000
     15 C11       -0.5521   -3.7571    9.0421 C.ar      1 RES1    0.0000
     16 C12        0.2036   -2.5970    8.8386 C.ar      1 RES1    0.0000
     17 C13        2.4186    1.8067    3.6015 C.3       1 RES1    0.0000
     18 C14        1.9515    2.7740    2.5219 C.3       1 RES1    0.0000
     19 C15        2.3193    0.3591    3.1020 C.3       1 RES1    0.0000
     20 C16        3.8558    2.1390    4.0306 C.3       1 RES1    0.0000
     21 C17        5.4823    0.1926    8.6221 C.3       1 RES1    0.0000
     22 C18        5.2836   -1.3084    8.8930 C.3       1 RES1    0.0000
     23 C19        6.5033    0.7605    9.5890 C.3       1 RES1    0.0000
     24 C20        5.9391    0.4140    7.1718 C.3       1 RES1    0.0000
     25 H1         3.3001    2.2575    6.7478 H         1 RES1    0.0000
     26 H2         2.4329   -1.0443    8.9132 H         1 RES1    0.0000
     27 H3         0.2323   -0.1548    5.6098 H         1 RES1    0.0000
     28 H4        -0.2368   -2.3496    5.6098 H         1 RES1    0.0000
     29 H5        -1.4849   -4.2535    6.0126 H         1 RES1    0.0000
     30 H6        -1.6637   -5.1814    8.1276 H         1 RES1    0.0000
     31 H7        -0.6358   -4.0639    9.8901 H         1 RES1    0.0000
     32 H8         0.6069   -2.1637    9.6585 H         1 RES1    0.0000
     33 H9         2.5279    2.6233    1.7826 H         1 RES1    0.0000
     34 H10        2.0596    3.6739    2.8099 H         1 RES1    0.0000
     35 H11        0.9873    2.5711    2.2459 H         1 RES1    0.0000
     36 H12        1.3203    0.1399    2.7998 H         1 RES1    0.0000
     37 H13        2.6736   -0.2614    3.7969 H         1 RES1    0.0000
     38 H14        2.8787    0.2761    2.2459 H         1 RES1    0.0000
     39 H15        4.4195    2.1621    3.1826 H         1 RES1    0.0000
     40 H16        3.9578    3.0588    4.4616 H         1 RES1    0.0000
     41 H17        4.2771    1.4142    4.7335 H         1 RES1    0.0000
     42 H18        4.6961   -1.6286    8.2485 H         1 RES1    0.0000
     43 H19        6.2031   -1.7922    8.8225 H         1 RES1    0.0000
     44 H20        4.9042   -1.3994    9.8397 H         1 RES1    0.0000
     45 H21        6.6462    1.7435    9.4470 H         1 RES1    0.0000
     46 H22        6.2518    0.5980   10.5044 H         1 RES1    0.0000
     47 H23        7.3893    0.3166    9.4570 H         1 RES1    0.0000
     48 H24        6.8093    0.0517    7.0197 H         1 RES1    0.0000
     49 H25        5.9869    1.3883    6.9291 H         1 RES1    0.0000
     50 H26        5.3164    0.0262    6.4960 H         1 RES1    0.0000
@<TRIPOS>BOND
     1    1    3 1
     2    2    4 1
     3    3    5 1
     4    4    7 1
     5    5    6 ar
     6    6    7 ar
     7    7    8 ar
     8    8    9 ar
     9    9   10 ar
    10   10    5 ar
    11   11    9 1
    12   12   11 ar
    13   13   12 ar
    14   14   13 ar
    15   15   14 ar
    16   16   11 ar
    17   17    3 1
    18   18   17 1
    19   19   17 1
    20   20   17 1
    21   21    4 1
    22   22   21 1
    23   23   21 1
    24   24   21 1
    25   25    6 1
    26   26    8 1
    27   27   10 1
    28   28   12 1
    29   29   13 1
    30   30   14 1
    31   31   15 1
    32   32   16 1
    33   33   18 1
    34   34   18 1
    35   35   18 1
    36   36   19 1
    37   37   19 1
    38   38   19 1
    39   39   20 1
    40   40   20 1
    41   41   20 1
    42   42   22 1
    43   43   22 1
    44   44   22 1
    45   45   23 1
    46   46   23 1
    47   47   23 1
    48   48   24 1
    49   49   24 1
    50   50   24 1
    51   15   16 ar
@<TRIPOS>SUBSTRUCTURE
     1 RES1 1

@<TRIPOS>CRYSIN
   8.8300   10.7270   11.1920 102.3300 106.2100 110.8900   2 1

