# MOL2 file generated by ConQuest
# Please check atom types

@<TRIPOS>MOLECULE
AZONUZ
    42    44     1
SMALL
NO_CHARGES
****
Generated from CSD

@<TRIPOS>ATOM
      1 O1         6.3888    0.4922    7.8685 O.2       1 RES1    0.0000
      2 O2         6.0044    1.9661    9.4084 O.2       1 RES1    0.0000
      3 N1         3.0092    1.5229    9.3505 N.pl3     1 RES1    0.0000
      4 N2         2.3278    2.4640    7.3520 N.ar      1 RES1    0.0000
      5 N3         3.7946    2.7686    5.4907 N.ar      1 RES1    0.0000
      6 N4         5.7585    1.4305    8.3358 N.pl3     1 RES1    0.0000
      7 N5         6.0918    2.5396    5.6923 N.3       1 RES1    0.0000
      8 C1         4.4433   -1.8450    9.8902 C.ar      1 RES1    0.0000
      9 H1         4.5379   -2.6481    9.4310 H         1 RES1    0.0000
     10 C2         4.9301   -1.7302   11.1709 C.ar      1 RES1    0.0000
     11 H2         5.3614   -2.4493   11.5729 H         1 RES1    0.0000
     12 C3         4.7761   -0.5574   11.8524 C.ar      1 RES1    0.0000
     13 H3         5.0959   -0.4845   12.7222 H         1 RES1    0.0000
     14 C4         3.6762    0.4047    9.9611 C.ar      1 RES1    0.0000
     15 C5         3.8166   -0.7758    9.2816 C.ar      1 RES1    0.0000
     16 H4         3.4908   -0.8570    8.4136 H         1 RES1    0.0000
     17 C6         4.1512    0.5216   11.2574 C.ar      1 RES1    0.0000
     18 H5         4.0501    1.3199   11.7227 H         1 RES1    0.0000
     19 C7         1.7036    1.8898    9.9034 C.3       1 RES1    0.0000
     20 H6         1.5349    2.8204    9.7350 H         1 RES1    0.0000
     21 H7         1.7008    1.7295   10.8507 H         1 RES1    0.0000
     22 H8         1.0203    1.3605    9.4868 H         1 RES1    0.0000
     23 C8         4.6297    1.9458    7.5584 C.ar      1 RES1    0.0000
     24 C9         3.3416    1.9598    8.0950 C.ar      1 RES1    0.0000
     25 C10        4.8538    2.4136    6.2538 C.ar      1 RES1    0.0000
     26 C11        2.6249    2.7763    6.1002 C.ar      1 RES1    0.0000
     27 H9         1.9050    3.0395    5.5741 H         1 RES1    0.0000
     28 C12        7.0865    4.0401    7.3482 C.ar      1 RES1    0.0000
     29 H10        6.2848    4.5106    7.3851 H         1 RES1    0.0000
     30 C13        8.4144    2.2952    6.4020 C.ar      1 RES1    0.0000
     31 H11        8.5108    1.5796    5.8155 H         1 RES1    0.0000
     32 C14        8.1417    4.4182    8.1417 C.ar      1 RES1    0.0000
     33 H12        8.0505    5.1338    8.7289 H         1 RES1    0.0000
     34 C15        9.4794    2.7034    7.1890 C.ar      1 RES1    0.0000
     35 H13       10.2990    2.2693    7.1190 H         1 RES1    0.0000
     36 C16        9.3334    3.7383    8.0666 C.ar      1 RES1    0.0000
     37 H14       10.0435    3.9841    8.6149 H         1 RES1    0.0000
     38 C17        7.2151    2.9604    6.4961 C.ar      1 RES1    0.0000
     39 C18        6.1898    2.7587    4.2571 C.3       1 RES1    0.0000
     40 H15        5.7179    2.0621    3.7943 H         1 RES1    0.0000
     41 H16        7.1129    2.7496    3.9933 H         1 RES1    0.0000
     42 H17        5.8019    3.6088    4.0358 H         1 RES1    0.0000
@<TRIPOS>BOND
     1    1    6 2
     2    2    6 2
     3    3   14 1
     4    4   24 ar
     5    5   25 ar
     6    6   23 1
     7    7   25 1
     8    8    9 1
     9   10    8 ar
    10   11   10 1
    11   12   10 ar
    12   13   12 1
    13   14   15 ar
    14   15    8 ar
    15   16   15 1
    16   17   12 ar
    17   18   17 1
    18   19    3 1
    19   20   19 1
    20   21   19 1
    21   22   19 1
    22   23   24 ar
    23   24    3 1
    24   25   23 ar
    25   26    4 ar
    26   27   26 1
    27   28   29 1
    28   30   31 1
    29   32   28 ar
    30   33   32 1
    31   34   30 ar
    32   35   34 1
    33   36   32 ar
    34   37   36 1
    35   38    7 1
    36   39    7 1
    37   40   39 1
    38   41   39 1
    39   42   39 1
    40    5   26 ar
    41   14   17 ar
    42   28   38 ar
    43   30   38 ar
    44   34   36 ar
@<TRIPOS>SUBSTRUCTURE
     1 RES1 1

@<TRIPOS>CRYSIN
  10.7940    7.0019   23.6500  90.0000 109.0200  90.0000  14 1

