# MOL2 file generated by ConQuest
# Please check atom types

@<TRIPOS>MOLECULE
AZORUD
    39    42     1
SMALL
NO_CHARGES
****
Generated from CSD

@<TRIPOS>ATOM
      1 C1         4.0485    0.8246    7.9575 C.ar      1 RES1    0.0000
      2 C2         4.5921    0.0074    8.9800 C.ar      1 RES1    0.0000
      3 H1         5.3340    0.3070    9.4551 H         1 RES1    0.0000
      4 C3         4.0571   -1.1969    9.2804 C.ar      1 RES1    0.0000
      5 H2         4.4370   -1.7077    9.9580 H         1 RES1    0.0000
      6 C4         2.9478   -1.6909    8.5962 C.ar      1 RES1    0.0000
      7 H3         2.5874   -2.5151    8.8298 H         1 RES1    0.0000
      8 C5         2.3992   -0.9770    7.5981 C.ar      1 RES1    0.0000
      9 H4         1.6652   -1.3180    7.1397 H         1 RES1    0.0000
     10 C6         2.9290    0.3001    7.2332 C.ar      1 RES1    0.0000
     11 C7         2.4072    1.0150    6.1762 C.ar      1 RES1    0.0000
     12 H5         1.6969    0.6526    5.6978 H         1 RES1    0.0000
     13 C8         2.9048    2.2672    5.7979 C.ar      1 RES1    0.0000
     14 C9         2.3360    2.9844    4.7187 C.ar      1 RES1    0.0000
     15 H6         1.6497    2.5978    4.2258 H         1 RES1    0.0000
     16 C10        2.7678    4.2122    4.3949 C.ar      1 RES1    0.0000
     17 H7         2.3801    4.6729    3.6850 H         1 RES1    0.0000
     18 C11        3.8149    4.7984    5.1392 C.ar      1 RES1    0.0000
     19 H8         4.0992    5.6577    4.9256 H         1 RES1    0.0000
     20 C12        4.4080    4.1403    6.1473 C.ar      1 RES1    0.0000
     21 H9         5.1050    4.5490    6.6079 H         1 RES1    0.0000
     22 C13        3.9945    2.8329    6.5289 C.ar      1 RES1    0.0000
     23 C14        4.5723    2.1010    7.5937 C.ar      1 RES1    0.0000
     24 C15        5.7269    2.5820    8.3681 C.2       1 RES1    0.0000
     25 H10        5.7909    2.2852    9.2470 H         1 RES1    0.0000
     26 C16        7.6865    3.6998    8.8365 C.ar      1 RES1    0.0000
     27 C17        8.9522    3.6899    8.3113 C.ar      1 RES1    0.0000
     28 H11        9.0790    3.4459    7.4234 H         1 RES1    0.0000
     29 C18       10.0321    4.0327    9.0768 C.ar      1 RES1    0.0000
     30 H12       10.8914    3.9990    8.7241 H         1 RES1    0.0000
     31 C19        9.8277    4.4227   10.3652 C.ar      1 RES1    0.0000
     32 C20        8.5884    4.4638   10.9327 C.ar      1 RES1    0.0000
     33 H13        8.4773    4.7261   11.8183 H         1 RES1    0.0000
     34 C21        7.5004    4.1044   10.1561 C.ar      1 RES1    0.0000
     35 H14        6.6428    4.1346   10.5154 H         1 RES1    0.0000
     36 N1         6.6275    3.3441    7.9697 N.2       1 RES1    0.0000
     37 N2        10.9959    4.7777   11.1763 N.pl3     1 RES1    0.0000
     38 O1        10.8091    5.1845   12.3023 O.2       1 RES1    0.0000
     39 O2        12.1054    4.5947   10.7135 O.2       1 RES1    0.0000
@<TRIPOS>BOND
     1    1    2 ar
     2    2    3 1
     3    4    2 ar
     4    5    4 1
     5    6    4 ar
     6    7    6 1
     7    8    6 ar
     8    9    8 1
     9   10    1 ar
    10   11   10 ar
    11   12   11 1
    12   13   11 ar
    13   14   13 ar
    14   15   14 1
    15   16   14 ar
    16   17   16 1
    17   18   16 ar
    18   19   18 1
    19   20   18 ar
    20   21   20 1
    21   22   13 ar
    22   23    1 ar
    23   24   23 1
    24   25   24 1
    25   26   27 ar
    26   27   28 1
    27   29   27 ar
    28   30   29 1
    29   31   29 ar
    30   32   31 ar
    31   33   32 1
    32   34   26 ar
    33   35   34 1
    34   36   24 2
    35   37   31 1
    36   38   37 2
    37   39   37 2
    38    8   10 ar
    39   20   22 ar
    40   22   23 ar
    41   26   36 1
    42   32   34 ar
@<TRIPOS>SUBSTRUCTURE
     1 RES1 1

@<TRIPOS>CRYSIN
   8.3634    8.9045   11.5119  75.2350  84.5440  75.0540   2 1

