# MOL2 file generated by ConQuest
# Please check atom types

@<TRIPOS>MOLECULE
AZPYRO
    16    17     1
SMALL
USER_CHARGES
****
Generated from CSD

@<TRIPOS>ATOM
      1 O1        -3.8591    1.7660    3.8914 O.2       1 RES1   -1.0000
      2 N1        -3.0177    1.2620    3.0612 N.pl3     1 RES1    1.0000
      3 C1        -2.7725   -0.0681    3.0380 C.ar      1 RES1    0.0000
      4 C2        -1.8536   -0.5804    2.1651 C.ar      1 RES1    0.0000
      5 C3        -1.1929    0.2291    1.2610 C.ar      1 RES1    0.0000
      6 C4        -1.4956    1.5792    1.2707 C.ar      1 RES1    0.0000
      7 C5        -2.3777    2.0715    2.1686 C.ar      1 RES1    0.0000
      8 N2        -0.2593   -0.3842    0.4040 N.2       1 RES1    0.0000
      9 N2B        0.2593    0.3842   -0.4040 N.2       1 RES1    0.0000
     10 C3B        1.1929   -0.2291   -1.2610 C.ar      1 RES1    0.0000
     11 C2B        1.8536    0.5804   -2.1651 C.ar      1 RES1    0.0000
     12 C4B        1.4956   -1.5792   -1.2707 C.ar      1 RES1    0.0000
     13 C1B        2.7725    0.0681   -3.0380 C.ar      1 RES1    0.0000
     14 C5B        2.3777   -2.0715   -2.1686 C.ar      1 RES1    0.0000
     15 N1B        3.0177   -1.2620   -3.0612 N.pl3     1 RES1    1.0000
     16 O1B        3.8591   -1.7660   -3.8914 O.2       1 RES1   -1.0000
@<TRIPOS>BOND
     1    1    2 1
     2    2    3 ar
     3    3    4 ar
     4    4    5 ar
     5    5    6 ar
     6    6    7 ar
     7    7    2 ar
     8    8    5 1
     9    9    8 2
    10   10    9 1
    11   11   10 ar
    12   12   10 ar
    13   13   11 ar
    14   14   12 ar
    15   15   13 ar
    16   16   15 1
    17   14   15 ar
@<TRIPOS>SUBSTRUCTURE
     1 RES1 1

@<TRIPOS>CRYSIN
   4.5600   11.7500    9.7500  90.0000 114.1200  90.0000  14 1

