# MOL2 file generated by ConQuest
# Please check atom types

@<TRIPOS>MOLECULE
AZUCOO
    50    53     1
SMALL
NO_CHARGES
****
Generated from CSD

@<TRIPOS>ATOM
      1 N1        10.9505    7.7633    8.0100 N.pl3     1 RES1    0.0000
      2 O1        10.1433    8.4628    7.4524 O.2       1 RES1    0.0000
      3 O2        11.3658    8.0118    9.1159 O.2       1 RES1    0.0000
      4 O3        11.5609    5.3669    9.2710 O.3       1 RES1    0.0000
      5 C1        12.3361    5.8102    3.6673 C.ar      1 RES1    0.0000
      6 C2        11.5013    5.0278    2.9128 C.ar      1 RES1    0.0000
      7 H1        10.8932    4.4767    3.3497 H         1 RES1    0.0000
      8 C3        11.5260    5.0236    1.5108 C.ar      1 RES1    0.0000
      9 H2        10.9517    4.4727    1.0300 H         1 RES1    0.0000
     10 C4        14.2059    7.4681    0.8666 C.ar      1 RES1    0.0000
     11 H3        14.2018    7.4501   -0.0638 H         1 RES1    0.0000
     12 C5        13.3038    6.6519    1.5766 C.ar      1 RES1    0.0000
     13 C6        13.3038    6.6519    3.0174 C.ar      1 RES1    0.0000
     14 C7        12.1546    5.7052    5.1512 C.ar      1 RES1    0.0000
     15 C8        11.6676    6.7601    5.9152 C.ar      1 RES1    0.0000
     16 H4        11.4639    7.5685    5.5053 H         1 RES1    0.0000
     17 C9        11.4826    6.6200    7.2795 C.ar      1 RES1    0.0000
     18 C10       11.7642    5.4205    7.9362 C.ar      1 RES1    0.0000
     19 C11       12.2148    4.3581    7.1594 C.ar      1 RES1    0.0000
     20 H5        12.3952    3.5388    7.5607 H         1 RES1    0.0000
     21 C12       12.3966    4.5064    5.8040 C.ar      1 RES1    0.0000
     22 H6        12.6918    3.7769    5.3093 H         1 RES1    0.0000
     23 C13       11.8482    4.1344    9.9337 C.3       1 RES1    0.0000
     24 H7        11.2949    3.4390    9.5705 H         1 RES1    0.0000
     25 H8        11.6701    4.2266   10.8716 H         1 RES1    0.0000
     26 H9        12.7730    3.9087    9.8029 H         1 RES1    0.0000
     27 N1I       15.6571    5.5405    8.0100 N.pl3     1 RES1    0.0000
     28 O1I       16.4643    4.8410    7.4524 O.2       1 RES1    0.0000
     29 O2I       15.2418    5.2920    9.1159 O.2       1 RES1    0.0000
     30 O3I       15.0467    7.9369    9.2710 O.3       1 RES1    0.0000
     31 C1I       14.2715    7.4936    3.6673 C.ar      1 RES1    0.0000
     32 C2I       15.1063    8.2760    2.9128 C.ar      1 RES1    0.0000
     33 H1I       15.7144    8.8271    3.3497 H         1 RES1    0.0000
     34 C3I       15.0816    8.2802    1.5108 C.ar      1 RES1    0.0000
     35 H2I       15.6559    8.8311    1.0300 H         1 RES1    0.0000
     36 C4I       12.4017    5.8357    0.8666 C.ar      1 RES1    0.0000
     37 H3I       12.4058    5.8537   -0.0638 H         1 RES1    0.0000
     38 C7I       14.4530    7.5986    5.1512 C.ar      1 RES1    0.0000
     39 C8I       14.9400    6.5437    5.9152 C.ar      1 RES1    0.0000
     40 H4I       15.1437    5.7353    5.5053 H         1 RES1    0.0000
     41 C9I       15.1250    6.6838    7.2795 C.ar      1 RES1    0.0000
     42 C10I      14.8434    7.8833    7.9362 C.ar      1 RES1    0.0000
     43 C11I      14.3928    8.9457    7.1594 C.ar      1 RES1    0.0000
     44 H5I       14.2124    9.7650    7.5607 H         1 RES1    0.0000
     45 C12I      14.2110    8.7974    5.8040 C.ar      1 RES1    0.0000
     46 H6I       13.9158    9.5269    5.3093 H         1 RES1    0.0000
     47 C13I      14.7594    9.1694    9.9337 C.3       1 RES1    0.0000
     48 H7I       15.3127    9.8648    9.5705 H         1 RES1    0.0000
     49 H8I       14.9375    9.0772   10.8716 H         1 RES1    0.0000
     50 H9I       13.8346    9.3951    9.8029 H         1 RES1    0.0000
@<TRIPOS>BOND
     1    1    2 2
     2    3    1 2
     3    4   18 1
     4    5    6 ar
     5    6    7 1
     6    8    6 ar
     7    9    8 1
     8   10   11 1
     9   12   10 ar
    10   13    5 ar
    11   14    5 1
    12   15   14 ar
    13   16   15 1
    14   17    1 1
    15   18   17 ar
    16   19   18 ar
    17   20   19 1
    18   21   14 ar
    19   22   21 1
    20   23    4 1
    21   24   23 1
    22   25   23 1
    23   26   23 1
    24   27   28 2
    25   29   27 2
    26   30   42 1
    27   31   13 ar
    28   32   31 ar
    29   33   32 1
    30   34   10 ar
    31   35   34 1
    32   36    8 ar
    33   37   36 1
    34   38   31 1
    35   39   38 ar
    36   40   39 1
    37   41   27 1
    38   42   41 ar
    39   43   42 ar
    40   44   43 1
    41   45   38 ar
    42   46   45 1
    43   47   30 1
    44   48   47 1
    45   49   47 1
    46   50   47 1
    47   12   13 ar
    48   12   36 ar
    49   15   17 ar
    50   19   21 ar
    51   32   34 ar
    52   39   41 ar
    53   43   45 ar
@<TRIPOS>SUBSTRUCTURE
     1 RES1 1

@<TRIPOS>CRYSIN
  13.3038   13.3038   22.7868  90.0000  90.0000  90.0000 110 1

