# MOL2 file generated by ConQuest
# Please check atom types

@<TRIPOS>MOLECULE
AZUDIJ
    24    24     1
SMALL
NO_CHARGES
****
Generated from CSD

@<TRIPOS>ATOM
      1 O1        -2.7364    1.7133    6.4799 O.3       1 RES1    0.0000
      2 H1        -2.8979    0.6835    6.6349 H         1 RES1    0.0000
      3 O2         4.2407    4.3406    3.6615 O.2       1 RES1    0.0000
      4 N1        -1.4483    1.9064    5.9397 N.2       1 RES1    0.0000
      5 N2         0.4947    4.7678    5.0935 N.2       1 RES1    0.0000
      6 N3         1.7309    4.7561    4.6188 N.pl3     1 RES1    0.0000
      7 H2         2.1365    5.4782    4.3119 H         1 RES1    0.0000
      8 C1        -1.1944    3.1352    5.7599 C.2       1 RES1    0.0000
      9 C2        -2.1508    4.2458    6.0708 C.3       1 RES1    0.0000
     10 H3        -2.9530    4.1511    5.5162 H         1 RES1    0.0000
     11 H4        -1.7231    5.1072    5.8814 H         1 RES1    0.0000
     12 H5        -2.4007    4.2061    7.0169 H         1 RES1    0.0000
     13 C3         0.1638    3.4664    5.2509 C.2       1 RES1    0.0000
     14 C4         1.2285    2.6203    4.8665 C.2       1 RES1    0.0000
     15 C5         1.2637    1.1176    4.8889 C.3       1 RES1    0.0000
     16 H6         0.3617    0.7736    5.0559 H         1 RES1    0.0000
     17 H7         1.8657    0.8157    5.6009 H         1 RES1    0.0000
     18 H8         1.5863    0.7853    4.0251 H         1 RES1    0.0000
     19 C6         2.2205    3.5004    4.4614 C.2       1 RES1    0.0000
     20 C7         3.6015    3.3283    3.9627 C.2       1 RES1    0.0000
     21 C8         4.1954    1.9567    3.8341 C.3       1 RES1    0.0000
     22 H9         5.0531    2.0153    3.3642 H         1 RES1    0.0000
     23 H10        3.5834    1.3821    3.3283 H         1 RES1    0.0000
     24 H11        4.3365    1.5776    4.7267 H         1 RES1    0.0000
@<TRIPOS>BOND
     1    1    2 1
     2    3   20 2
     3    4    1 1
     4    5    6 1
     5    6    7 1
     6    8    4 2
     7    9    8 1
     8   10    9 1
     9   11    9 1
    10   12    9 1
    11   13    5 2
    12   14   13 1
    13   15   14 1
    14   16   15 1
    15   17   15 1
    16   18   15 1
    17   19    6 1
    18   20   19 1
    19   21   20 1
    20   22   21 1
    21   23   21 1
    22   24   21 1
    23    8   13 1
    24   14   19 2
@<TRIPOS>SUBSTRUCTURE
     1 RES1 1

@<TRIPOS>CRYSIN
   9.0721   11.7030    8.2401  90.0000 104.1240  90.0000  14 1

