# MOL2 file generated by ConQuest
# Please check atom types

@<TRIPOS>MOLECULE
AZUHIN
    43    45     1
SMALL
NO_CHARGES
****
Generated from CSD

@<TRIPOS>ATOM
      1 C1        13.3500   13.6253    3.7130 C.ar      1 RES1    0.0000
      2 H1        14.1252   13.7913    3.2275 H         1 RES1    0.0000
      3 C2        12.7141   14.6442    4.3751 C.ar      1 RES1    0.0000
      4 H2        13.0629   15.5050    4.3252 H         1 RES1    0.0000
      5 C3        11.5642   14.4203    5.1173 C.ar      1 RES1    0.0000
      6 H3        11.1694   15.1291    5.5720 H         1 RES1    0.0000
      7 C4        10.9999   13.1710    5.1918 C.ar      1 RES1    0.0000
      8 H4        10.2238   13.0208    5.6826 H         1 RES1    0.0000
      9 C5        11.6282   12.1439    4.5080 C.ar      1 RES1    0.0000
     10 C6        12.8191   12.3356    3.7754 C.ar      1 RES1    0.0000
     11 C7        13.1791   11.0534    3.2275 C.2       1 RES1    0.0000
     12 C8        12.2182   10.1631    3.6362 C.2       1 RES1    0.0000
     13 C9        12.0580    8.7025    3.3741 C.3       1 RES1    0.0000
     14 H5        11.5266    8.3093    4.0707 H         1 RES1    0.0000
     15 H6        12.9228    8.2837    3.3548 H         1 RES1    0.0000
     16 H7        11.6223    8.5755    2.5283 H         1 RES1    0.0000
     17 C10       14.4203   10.7158    2.4446 C.3       1 RES1    0.0000
     18 H8        14.3587    9.7709    2.1890 H         1 RES1    0.0000
     19 C11       15.6617   10.8722    3.3207 C.3       1 RES1    0.0000
     20 H9        16.4576   10.6651    2.8047 H         1 RES1    0.0000
     21 H10       15.7315   11.7881    3.6324 H         1 RES1    0.0000
     22 C12       14.5821   11.5278    1.1630 C.ar      1 RES1    0.0000
     23 C13       15.4880   12.5607    1.0157 C.ar      1 RES1    0.0000
     24 H11       16.0560   12.7687    1.7211 H         1 RES1    0.0000
     25 C14       15.5715   13.2956   -0.1551 C.ar      1 RES1    0.0000
     26 H12       16.1938   13.9828   -0.2339 H         1 RES1    0.0000
     27 C15       14.7324   13.0024   -1.1932 C.ar      1 RES1    0.0000
     28 H13       14.7719   13.5065   -1.9743 H         1 RES1    0.0000
     29 C16       13.8296   11.9709   -1.0947 C.ar      1 RES1    0.0000
     30 H14       13.2637   11.7764   -1.8072 H         1 RES1    0.0000
     31 C17       13.7654   11.2189    0.0695 C.ar      1 RES1    0.0000
     32 C18       12.1799    9.7142   -0.8922 C.3       1 RES1    0.0000
     33 H15       12.7850    9.5281   -1.6273 H         1 RES1    0.0000
     34 H16       11.5616   10.4083   -1.1722 H         1 RES1    0.0000
     35 C19       11.4491    8.5157   -0.5393 C.1       1 RES1    0.0000
     36 C20       10.8507    7.5447   -0.3252 C.1       1 RES1    0.0000
     37 N1        11.2880   10.8257    4.3896 N.pl3     1 RES1    0.0000
     38 H17       10.5904   10.4643    4.7391 H         1 RES1    0.0000
     39 N2        15.5615    9.9537    4.4772 N.pl3     1 RES1    0.0000
     40 O1        15.5424   10.4377    5.5833 O.2       1 RES1    0.0000
     41 O2        15.4415    8.7800    4.2764 O.2       1 RES1    0.0000
     42 O3        12.9200   10.1519    0.2491 O.3       1 RES1    0.0000
     43 H18       10.3709    6.8151   -0.1414 H         1 RES1    0.0000
@<TRIPOS>BOND
     1    1    2 1
     2    3    1 ar
     3    4    3 1
     4    5    3 ar
     5    6    5 1
     6    7    5 ar
     7    8    7 1
     8    9    7 ar
     9   10    1 ar
    10   11   10 1
    11   12   11 2
    12   13   12 1
    13   14   13 1
    14   15   13 1
    15   16   13 1
    16   17   11 1
    17   18   17 1
    18   19   17 1
    19   20   19 1
    20   21   19 1
    21   22   17 1
    22   23   22 ar
    23   24   23 1
    24   25   23 ar
    25   26   25 1
    26   27   25 ar
    27   28   27 1
    28   29   27 ar
    29   30   29 1
    30   31   22 ar
    31   32   33 1
    32   34   32 1
    33   35   32 1
    34   36   35 3
    35   37    9 1
    36   38   37 1
    37   39   19 1
    38   40   39 2
    39   41   39 2
    40   42   31 1
    41   43   36 1
    42    9   10 ar
    43   12   37 1
    44   29   31 ar
    45   32   42 1
@<TRIPOS>SUBSTRUCTURE
     1 RES1 1

@<TRIPOS>CRYSIN
  23.3474   23.3474   12.8536  90.0000  90.0000  90.0000  88 1

