# MOL2 file generated by ConQuest
# Please check atom types

@<TRIPOS>MOLECULE
AZUYOJ
    41    45     1
SMALL
NO_CHARGES
****
Generated from CSD

@<TRIPOS>ATOM
      1 O1         5.4497    1.5851    6.4958 O.3       1 RES1    0.0000
      2 O2         2.8762    1.0502    6.9070 O.2       1 RES1    0.0000
      3 O3         5.7678   -0.1581    7.8597 O.2       1 RES1    0.0000
      4 O4         8.9387    4.2132   12.1632 O.2       1 RES1    0.0000
      5 O5         7.9988    5.8723   11.1614 O.2       1 RES1    0.0000
      6 N1         8.2192    4.6783   11.2964 N.pl3     1 RES1    0.0000
      7 C1         4.7872    0.6987    5.5853 C.3       1 RES1    0.0000
      8 H1         5.3040   -0.2157    5.5301 H         1 RES1    0.0000
      9 H2         4.8377    1.1645    4.7532 H         1 RES1    0.0000
     10 C2         3.3609    0.4522    5.9850 C.2       1 RES1    0.0000
     11 C3         5.8656    1.0157    7.6379 C.2       1 RES1    0.0000
     12 C4         6.4515    2.0063    8.5742 C.ar      1 RES1    0.0000
     13 C5         6.3848    3.3829    8.3534 C.ar      1 RES1    0.0000
     14 H3         5.9489    3.7236    7.6154 H         1 RES1    0.0000
     15 C6         6.9565    4.2585    9.2417 C.ar      1 RES1    0.0000
     16 H4         6.8941    5.2045    9.0669 H         1 RES1    0.0000
     17 C7         7.5926    3.7445   10.3498 C.ar      1 RES1    0.0000
     18 C8         7.6619    2.3923   10.6146 C.ar      1 RES1    0.0000
     19 H5         8.0859    2.1134   11.3771 H         1 RES1    0.0000
     20 C9         7.0883    1.5276    9.7211 C.ar      1 RES1    0.0000
     21 H6         7.1201    0.5751    9.8540 H         1 RES1    0.0000
     22 C10        1.5248   -2.7137    5.0783 C.3       1 RES1    0.0000
     23 H7         1.6345   -3.4720    4.7430 H         1 RES1    0.0000
     24 C11        0.7688   -2.6296    6.3734 C.3       1 RES1    0.0000
     25 H8        -0.0334   -3.1773    6.6034 H         1 RES1    0.0000
     26 C12        0.7338   -1.1013    6.5084 C.3       1 RES1    0.0000
     27 H9        -0.0527   -0.5463    7.0328 H         1 RES1    0.0000
     28 C13        1.5523   -1.9064    7.3476 C.3       1 RES1    0.0000
     29 H10        1.1942   -1.7324    8.3514 H         1 RES1    0.0000
     30 C14        2.9863   -2.2299    6.9326 C.3       1 RES1    0.0000
     31 H11        3.2312   -3.1486    7.1708 H         1 RES1    0.0000
     32 H12        3.6259   -1.6081    7.3374 H         1 RES1    0.0000
     33 C15        2.9055   -2.0444    5.4054 C.3       1 RES1    0.0000
     34 H13        3.4263   -2.1853    4.8044 H         1 RES1    0.0000
     35 C16        2.6166   -0.5255    5.1294 C.3       1 RES1    0.0000
     36 H14        2.8005   -0.3163    4.2319 H         1 RES1    0.0000
     37 C17        1.1415   -0.5363    5.2347 C.3       1 RES1    0.0000
     38 H15        0.5389    0.4601    4.9883 H         1 RES1    0.0000
     39 C18        0.8038   -1.6541    4.2442 C.3       1 RES1    0.0000
     40 H16        1.0776   -1.3155    3.2710 H         1 RES1    0.0000
     41 H17       -0.2215   -1.7899    4.2830 H         1 RES1    0.0000
@<TRIPOS>BOND
     1    1    7 1
     2    2   10 2
     3    3   11 2
     4    4    6 2
     5    5    6 2
     6    6   17 1
     7    7    8 1
     8    9    7 1
     9   10    7 1
    10   11    1 1
    11   12   11 1
    12   13   12 ar
    13   14   13 1
    14   15   13 ar
    15   16   15 1
    16   17   15 ar
    17   18   17 ar
    18   19   18 1
    19   20   12 ar
    20   21   20 1
    21   22   23 1
    22   24   22 1
    23   25   24 1
    24   26   24 1
    25   27   26 1
    26   28   24 1
    27   29   28 1
    28   30   28 1
    29   31   30 1
    30   32   30 1
    31   33   22 1
    32   34   33 1
    33   35   10 1
    34   36   35 1
    35   37   26 1
    36   38   37 1
    37   39   22 1
    38   40   39 1
    39   41   39 1
    40   18   20 ar
    41   26   28 1
    42   30   33 1
    43   33   35 1
    44   35   37 1
    45   37   39 1
@<TRIPOS>SUBSTRUCTURE
     1 RES1 1

@<TRIPOS>CRYSIN
  41.9430    7.1885   10.2993  90.0000  97.0230  90.0000  15 1

