# MOL2 file generated by ConQuest
# Please check atom types

@<TRIPOS>MOLECULE
BABBUB
    15    15     1
SMALL
NO_CHARGES
****
Generated from CSD

@<TRIPOS>ATOM
      1 C1        -0.9382    7.7376    5.0774 C.2       1 RES1    0.0000
      2 C2        -0.1598    5.6528    4.4976 C.3       1 RES1    0.0000
      3 C3        -1.3790    5.5054    5.3940 C.3       1 RES1    0.0000
      4 N1        -1.6776    6.8756    5.7569 N.3       1 RES1    0.0000
      5 N2        -1.1757    9.0533    5.2884 N.2       1 RES1    0.0000
      6 N3        -0.0721    7.0993    4.3018 N.3       1 RES1    0.0000
      7 N4        -0.4338    9.9400    4.6120 N.pl3     1 RES1    0.0000
      8 O1        -0.6959   11.1265    4.8447 O.2       1 RES1    0.0000
      9 O2         0.4431    9.6179    3.7996 O.2       1 RES1    0.0000
     10 H1        -2.2995    7.1213    6.2363 H         1 RES1    0.0000
     11 H2         0.5596    7.4970    3.8333 H         1 RES1    0.0000
     12 H3         0.6651    5.3282    4.9458 H         1 RES1    0.0000
     13 H4        -0.2255    5.2086    3.6172 H         1 RES1    0.0000
     14 H5        -2.1223    5.1062    4.9076 H         1 RES1    0.0000
     15 H6        -1.2353    4.9354    6.1791 H         1 RES1    0.0000
@<TRIPOS>BOND
     1    1    4 1
     2    2    3 1
     3    3    4 1
     4    4   10 1
     5    5    1 2
     6    6    1 1
     7    7    5 1
     8    8    7 2
     9    9    7 2
    10   11    6 1
    11   12    2 1
    12   13    2 1
    13   14    3 1
    14   15    3 1
    15    2    6 1
@<TRIPOS>SUBSTRUCTURE
     1 RES1 1

@<TRIPOS>CRYSIN
   5.2089   17.0775    6.8283  90.0000 111.4110  90.0000 231 1

