# MOL2 file generated by ConQuest
# Please check atom types

@<TRIPOS>MOLECULE
BABTAA
    16    17     1
SMALL
USER_CHARGES
****
Generated from CSD

@<TRIPOS>ATOM
      1 O1        -0.0430    1.8759   10.6602 O.2       1 RES1   -1.0000
      2 N1         1.2514    1.8065   10.6732 N.pl3     1 RES1    1.0000
      3 C1         1.6510    3.6615   12.2375 C.ar      1 RES1    0.0000
      4 C2         1.6424    1.0510    8.3613 C.ar      1 RES1    0.0000
      5 C3         1.8132    0.7367    9.8173 C.2       1 RES1    0.0000
      6 C4         2.0356    2.5798   11.3665 C.3       1 RES1    0.0000
      7 C5         2.6650    4.3010   12.9352 C.ar      1 RES1    0.0000
      8 C6         0.3534    4.1265   12.4065 C.ar      1 RES1    0.0000
      9 C7         0.7347    0.3549    7.5943 C.ar      1 RES1    0.0000
     10 C8         1.1021    5.8289   13.8842 C.ar      1 RES1    0.0000
     11 C9         2.3868    2.0484    7.7568 C.ar      1 RES1    0.0000
     12 C10        2.3900    5.3708   13.7542 C.ar      1 RES1    0.0000
     13 C11        1.3126    1.6459    5.6768 C.ar      1 RES1    0.0000
     14 C12        0.5650    0.6613    6.2553 C.ar      1 RES1    0.0000
     15 C13        0.0977    5.2023   13.2190 C.ar      1 RES1    0.0000
     16 C14        2.2149    2.3449    6.4221 C.ar      1 RES1    0.0000
@<TRIPOS>BOND
     1    1    2 1
     2    2    5 2
     3    3    6 1
     4    4    5 1
     5    6    2 1
     6    7    3 ar
     7    8    3 ar
     8    9    4 ar
     9   10   12 ar
    10   11    4 ar
    11   12    7 ar
    12   13   14 ar
    13   14    9 ar
    14   15    8 ar
    15   16   11 ar
    16   10   15 ar
    17   13   16 ar
@<TRIPOS>SUBSTRUCTURE
     1 RES1 1

@<TRIPOS>CRYSIN
  10.7417    9.9148   21.6670  90.0000  90.0000  90.0000  61 1

