# MOL2 file generated by ConQuest
# Please check atom types

@<TRIPOS>MOLECULE
BACBAL
    85    90     1
SMALL
NO_CHARGES
****
Generated from CSD

@<TRIPOS>ATOM
      1 O1        12.9143    4.7926    2.4984 O.3       1 RES1    0.0000
      2 O2        11.8185    5.1282    0.4606 O.3       1 RES1    0.0000
      3 O3         7.7463    3.0552    9.1373 O.3       1 RES1    0.0000
      4 O4        11.0720    2.6363    1.5125 O.2       1 RES1    0.0000
      5 O5         7.6336    4.9988   10.2642 O.2       1 RES1    0.0000
      6 C1         9.9856    4.5415    4.1056 C.2       1 RES1    0.0000
      7 C2         9.7366    3.7664    5.3883 C.3       1 RES1    0.0000
      8 C3         9.4921    3.9555    2.7885 C.3       1 RES1    0.0000
      9 C4         8.6837    2.6818    2.9532 C.3       1 RES1    0.0000
     10 H1         9.2989    1.9351    3.0150 H         1 RES1    0.0000
     11 H2         8.1501    2.5531    2.1532 H         1 RES1    0.0000
     12 C5         8.2282    3.4072    5.4227 C.3       1 RES1    0.0000
     13 H3         7.7731    4.2734    5.3628 H         1 RES1    0.0000
     14 C6        10.7699    3.7052    1.9956 C.2       1 RES1    0.0000
     15 C7        11.6689    4.9625    1.8486 C.3       1 RES1    0.0000
     16 C8        10.7119    5.6446    3.9705 C.2       1 RES1    0.0000
     17 H4        11.0488    6.1047    4.7053 H         1 RES1    0.0000
     18 C9         7.3344    5.2811    2.3797 C.ar      1 RES1    0.0000
     19 C10        8.7479    5.0564    1.9270 C.3       1 RES1    0.0000
     20 H5         8.7019    4.7151    1.0089 H         1 RES1    0.0000
     21 C11        7.6904    2.7828    6.7426 C.3       1 RES1    0.0000
     22 C12        7.7525    2.6420    4.1656 C.3       1 RES1    0.0000
     23 H6         7.6144    1.7139    4.4109 H         1 RES1    0.0000
     24 H7         6.8936    3.0026    3.8981 H         1 RES1    0.0000
     25 C13       10.9565    6.1068    2.5625 C.3       1 RES1    0.0000
     26 H8        11.4983    6.9225    2.5497 H         1 RES1    0.0000
     27 C14       10.0503    4.6404    6.6135 C.3       1 RES1    0.0000
     28 H9        11.0044    4.8104    6.6472 H         1 RES1    0.0000
     29 H10        9.6000    5.4945    6.5190 H         1 RES1    0.0000
     30 O6         6.0449   -0.5888   14.5813 O.2       1 RES1    0.0000
     31 N1         6.2628    0.5881   14.7527 N.pl3     1 RES1    0.0000
     32 C15        7.0053    6.0129    3.5080 C.ar      1 RES1    0.0000
     33 H11        7.6862    6.4304    3.9859 H         1 RES1    0.0000
     34 C16        8.1263    3.7102    7.8850 C.3       1 RES1    0.0000
     35 H12        7.6450    4.5600    7.8081 H         1 RES1    0.0000
     36 C17        9.6129    3.9868    7.9199 C.3       1 RES1    0.0000
     37 H13       10.0973    3.1555    8.0478 H         1 RES1    0.0000
     38 H14        9.8192    4.5742    8.6651 H         1 RES1    0.0000
     39 C18       10.7022    2.5574    5.3790 C.3       1 RES1    0.0000
     40 H15       10.3590    1.8789    4.7931 H         1 RES1    0.0000
     41 H16       10.7783    2.2025    6.2673 H         1 RES1    0.0000
     42 H17       11.5660    2.8404    5.0708 H         1 RES1    0.0000
     43 C19        7.2892    2.9336   11.4189 C.ar      1 RES1    0.0000
     44 C20        7.5762    3.7984   10.2338 C.2       1 RES1    0.0000
     45 C21        9.6030    6.3344    1.8845 C.3       1 RES1    0.0000
     46 H18        9.7437    6.5989    0.9615 H         1 RES1    0.0000
     47 H19        9.1319    7.0534    2.3360 H         1 RES1    0.0000
     48 C22        6.2755    4.7094    1.6713 C.ar      1 RES1    0.0000
     49 H20        6.4540    4.2265    0.8974 H         1 RES1    0.0000
     50 C23        8.1539    1.3342    7.0049 C.3       1 RES1    0.0000
     51 H21        8.0106    0.8043    6.2175 H         1 RES1    0.0000
     52 H22        7.6513    0.9651    7.7345 H         1 RES1    0.0000
     53 H23        9.0881    1.3320    7.2264 H         1 RES1    0.0000
     54 C24        7.1824    1.5624   11.3009 C.ar      1 RES1    0.0000
     55 H24        7.3229    1.1557   10.4764 H         1 RES1    0.0000
     56 O7         3.3722    5.5919    3.5992 O.3       1 RES1    0.0000
     57 C25        6.1510    2.7793    6.6942 C.3       1 RES1    0.0000
     58 H25        5.8344    3.6661    6.5047 H         1 RES1    0.0000
     59 H26        5.8046    2.4905    7.5422 H         1 RES1    0.0000
     60 H27        5.8538    2.1797    6.0062 H         1 RES1    0.0000
     61 C26        5.7074    6.1459    3.9503 C.ar      1 RES1    0.0000
     62 H28        5.5189    6.6395    4.7171 H         1 RES1    0.0000
     63 C27        6.6630    1.4138   13.6013 C.ar      1 RES1    0.0000
     64 C28        6.8692    0.7930   12.4024 C.ar      1 RES1    0.0000
     65 H29        6.7987   -0.1316   12.3305 H         1 RES1    0.0000
     66 C29        4.6871    5.5372    3.2438 C.ar      1 RES1    0.0000
     67 C30       13.7762    3.7706    1.9899 C.3       1 RES1    0.0000
     68 H30       13.9125    3.9050    1.0493 H         1 RES1    0.0000
     69 H31       13.3727    2.9108    2.1366 H         1 RES1    0.0000
     70 H32       14.6211    3.8090    2.4428 H         1 RES1    0.0000
     71 O8         6.1508    1.1393   15.8307 O.2       1 RES1    0.0000
     72 C31       12.5742    6.2825    0.0617 C.3       1 RES1    0.0000
     73 H33       12.7242    6.2547   -0.8855 H         1 RES1    0.0000
     74 H34       13.4174    6.2867    0.5199 H         1 RES1    0.0000
     75 H35       12.0857    7.0783    0.2849 H         1 RES1    0.0000
     76 C32        7.1134    3.5324   12.6508 C.ar      1 RES1    0.0000
     77 H36        7.2140    4.4526   12.7388 H         1 RES1    0.0000
     78 C33        4.9802    4.8438    2.0939 C.ar      1 RES1    0.0000
     79 H37        4.2915    4.4626    1.5977 H         1 RES1    0.0000
     80 C34        6.7867    2.7650   13.7544 C.ar      1 RES1    0.0000
     81 H38        6.6543    3.1619   14.5858 H         1 RES1    0.0000
     82 C35        3.0500    6.1594    4.8185 C.3       1 RES1    0.0000
     83 H39        3.1828    7.1089    4.7741 H         1 RES1    0.0000
     84 H40        3.6114    5.7882    5.5029 H         1 RES1    0.0000
     85 H41        2.1305    5.9745    5.0234 H         1 RES1    0.0000
@<TRIPOS>BOND
     1    1   15 1
     2    2   15 1
     3    3   34 1
     4    4   14 2
     5    5   44 2
     6    6    7 1
     7    7   12 1
     8    8    6 1
     9    9    8 1
    10   10    9 1
    11   11    9 1
    12   12   13 1
    13   14    8 1
    14   15   14 1
    15   16    6 2
    16   17   16 1
    17   18   19 1
    18   19    8 1
    19   20   19 1
    20   21   12 1
    21   22    9 1
    22   23   22 1
    23   24   22 1
    24   25   15 1
    25   26   25 1
    26   27    7 1
    27   28   27 1
    28   29   27 1
    29   30   31 2
    30   31   63 1
    31   32   18 ar
    32   33   32 1
    33   34   21 1
    34   35   34 1
    35   36   27 1
    36   37   36 1
    37   38   36 1
    38   39    7 1
    39   40   39 1
    40   41   39 1
    41   42   39 1
    42   43   44 1
    43   44    3 1
    44   45   19 1
    45   46   45 1
    46   47   45 1
    47   48   18 ar
    48   49   48 1
    49   50   21 1
    50   51   50 1
    51   52   50 1
    52   53   50 1
    53   54   43 ar
    54   55   54 1
    55   56   66 1
    56   57   21 1
    57   58   57 1
    58   59   57 1
    59   60   57 1
    60   61   32 ar
    61   62   61 1
    62   63   64 ar
    63   64   54 ar
    64   65   64 1
    65   66   61 ar
    66   67    1 1
    67   68   67 1
    68   69   67 1
    69   70   67 1
    70   71   31 2
    71   72    2 1
    72   73   72 1
    73   74   72 1
    74   75   72 1
    75   76   43 ar
    76   77   76 1
    77   78   48 ar
    78   79   78 1
    79   80   63 ar
    80   81   80 1
    81   82   56 1
    82   83   82 1
    83   84   82 1
    84   85   82 1
    85   12   22 1
    86   16   25 1
    87   25   45 1
    88   34   36 1
    89   66   78 ar
    90   76   80 ar
@<TRIPOS>SUBSTRUCTURE
     1 RES1 1

@<TRIPOS>CRYSIN
  18.9567    7.1117   25.0982  90.0000 108.9360  90.0000 231 1

