# MOL2 file generated by ConQuest
# Please check atom types

@<TRIPOS>MOLECULE
BACQIG
    33    36     1
SMALL
NO_CHARGES
****
Generated from CSD

@<TRIPOS>ATOM
      1 O1        13.4593    0.5713    1.1369 O.3       1 RES1    0.0000
      2 N1        12.4434    1.2715    1.9654 N.3       1 RES1    0.0000
      3 C1        13.1800    1.5885    3.2194 C.3       1 RES1    0.0000
      4 H1        12.7161    2.3151    3.6708 H         1 RES1    0.0000
      5 C2        13.3977    0.4144    4.1051 C.2       1 RES1    0.0000
      6 C3        12.8850   -0.0055    5.2891 C.2       1 RES1    0.0000
      7 H2        12.2113    0.5081    5.8187 H         1 RES1    0.0000
      8 C4        13.5236   -1.2244    5.6277 C.2       1 RES1    0.0000
      9 H3        13.3816   -1.7580    6.4149 H         1 RES1    0.0000
     10 C5        14.4011   -1.5382    4.6617 C.2       1 RES1    0.0000
     11 H4        15.0142   -2.2337    4.5244 H         1 RES1    0.0000
     12 N2        14.3411   -0.5353    3.6983 N.am      1 RES1    0.0000
     13 C6        15.1204   -0.3952    2.5564 C.2       1 RES1    0.0000
     14 C7        14.7424    0.8258    1.7396 C.3       1 RES1    0.0000
     15 H5        15.3682    0.9431    1.0513 H         1 RES1    0.0000
     16 C8        14.5208    2.0195    2.6404 C.3       1 RES1    0.0000
     17 H6        14.4503    2.8127    2.1463 H         1 RES1    0.0000
     18 H7        15.2043    2.1002    3.3403 H         1 RES1    0.0000
     19 C9        11.3626    0.3022    2.1331 C.3       1 RES1    0.0000
     20 H8        10.7820    0.7074    2.7924 H         1 RES1    0.0000
     21 H9        11.6737   -0.5863    2.5071 H         1 RES1    0.0000
     22 C10       10.6194    0.0597    0.8461 C.ar      1 RES1    0.0000
     23 C11       10.5129   -1.2153    0.3389 C.ar      1 RES1    0.0000
     24 H10       10.9590   -1.9322    0.7728 H         1 RES1    0.0000
     25 C12        9.7648   -1.4711   -0.8000 C.ar      1 RES1    0.0000
     26 H11        9.6871   -2.4100   -1.1245 H         1 RES1    0.0000
     27 C13        9.1465   -0.4538   -1.4566 C.ar      1 RES1    0.0000
     28 H12        8.6151   -0.6364   -2.2867 H         1 RES1    0.0000
     29 C14        9.2619    0.8190   -0.9856 C.ar      1 RES1    0.0000
     30 H13        8.8511    1.5441   -1.4113 H         1 RES1    0.0000
     31 C15        9.9920    1.0845    0.1698 C.ar      1 RES1    0.0000
     32 H14       10.0706    1.9531    0.5207 H         1 RES1    0.0000
     33 O2        15.9917   -1.1811    2.2676 O.2       1 RES1    0.0000
@<TRIPOS>BOND
     1    1    2 1
     2    2    3 1
     3    3    4 1
     4    5    3 1
     5    6    5 2
     6    7    6 1
     7    8    6 1
     8    9    8 1
     9   10    8 2
    10   11   10 1
    11   12    5 1
    12   13   12 1
    13   14    1 1
    14   15   14 1
    15   16    3 1
    16   17   16 1
    17   18   16 1
    18   19    2 1
    19   20   19 1
    20   21   19 1
    21   22   19 1
    22   23   22 ar
    23   24   23 1
    24   25   23 ar
    25   26   25 1
    26   27   25 ar
    27   28   27 1
    28   29   27 ar
    29   30   29 1
    30   31   22 ar
    31   32   31 1
    32   33   13 2
    33   10   12 1
    34   13   14 1
    35   14   16 1
    36   29   31 ar
@<TRIPOS>SUBSTRUCTURE
     1 RES1 1

@<TRIPOS>CRYSIN
  32.7820   10.4330    7.5469  90.0000  90.0000  90.0000  56 1

