# MOL2 file generated by ConQuest
# Please check atom types

@<TRIPOS>MOLECULE
BACTUV
    63    63     2
SMALL
NO_CHARGES
****
Generated from CSD

@<TRIPOS>ATOM
      1 O1         3.6546    9.1775    3.8647 O.2       1 RES1    0.0000
      2 O2         3.1136    7.9037    1.5404 O.3       1 RES1    0.0000
      3 O3         4.5403   11.4935    4.8008 O.3       1 RES1    0.0000
      4 O4         6.1880   13.7219    4.3212 O.2       1 RES1    0.0000
      5 O5         4.9220   13.9670    2.4875 O.3       1 RES1    0.0000
      6 N1         4.5528    9.0043    2.8966 N.pl3     1 RES1    0.0000
      7 C1         5.9752    9.4404    3.0653 C.3       1 RES1    0.0000
      8 C2         6.1276   10.9886    2.9925 C.3       1 RES1    0.0000
      9 C3         6.5105   11.2817    1.5448 C.3       1 RES1    0.0000
     10 C4         7.3813   10.0997    1.1633 C.3       1 RES1    0.0000
     11 C5         6.6484    8.9094    1.7741 C.3       1 RES1    0.0000
     12 C6         5.5050    8.3773    0.8821 C.3       1 RES1    0.0000
     13 C7         4.3202    8.4201    1.7642 C.2       1 RES1    0.0000
     14 C8         6.5246    8.8426    4.3443 C.3       1 RES1    0.0000
     15 C9         4.9628   11.8263    3.4898 C.3       1 RES1    0.0000
     16 C10        5.4246   13.2681    3.5173 C.2       1 RES1    0.0000
     17 C11        5.4115   15.3233    2.3651 C.3       1 RES1    0.0000
     18 C12        2.7866    7.4572    0.1786 C.3       1 RES1    0.0000
     19 C13        1.7782    8.4315   -0.4212 C.3       1 RES1    0.0000
     20 C14        1.3904    7.9183   -1.8149 C.3       1 RES1    0.0000
     21 C15        0.8481    6.4953   -1.7686 C.3       1 RES1    0.0000
     22 C16        1.8366    5.5543   -1.1092 C.3       1 RES1    0.0000
     23 C17        2.2289    6.0519    0.2757 C.3       1 RES1    0.0000
     24 C18        2.2860    9.8545   -0.4201 C.ar      1 RES1    0.0000
     25 C19        3.2516   10.2812   -1.3187 C.ar      1 RES1    0.0000
     26 C20        3.7189   11.5884   -1.3033 C.ar      1 RES1    0.0000
     27 C21        3.2380   12.4741   -0.3749 C.ar      1 RES1    0.0000
     28 C22        2.2888   12.0808    0.5293 C.ar      1 RES1    0.0000
     29 C23        1.8107   10.7716    0.5017 C.ar      1 RES1    0.0000
     30 H1         4.1417   10.6537    4.6729 H         1 RES1    0.0000
     31 H2         6.8627   11.2035    3.5637 H         1 RES1    0.0000
     32 H3         6.9641   12.1497    1.4632 H         1 RES1    0.0000
     33 H4         5.7005   11.3067    0.9879 H         1 RES1    0.0000
     34 H5         8.2892   10.1946    1.6186 H         1 RES1    0.0000
     35 H6         7.5165   10.0110    0.1709 H         1 RES1    0.0000
     36 H7         7.2362    8.1530    2.0046 H         1 RES1    0.0000
     37 H8         5.6705    7.4572    0.5006 H         1 RES1    0.0000
     38 H9         5.3641    8.9615    0.0948 H         1 RES1    0.0000
     39 H10        7.4733    9.0126    4.4413 H         1 RES1    0.0000
     40 H11        6.0899    9.2244    5.1272 H         1 RES1    0.0000
     41 H12        6.4017    7.8692    4.3796 H         1 RES1    0.0000
     42 H13        4.2167   11.7418    2.8481 H         1 RES1    0.0000
     43 H14        5.1314   15.5966    1.4003 H         1 RES1    0.0000
     44 H15        6.4262   15.3358    2.4478 H         1 RES1    0.0000
     45 H16        4.8553   15.8689    3.0664 H         1 RES1    0.0000
     46 H17        5.6618   15.7218    3.3034 Du        2 SUP2    0.0000
     47 H18        4.6479   15.8783    1.9406 Du        2 SUP2    0.0000
     48 H19        6.2623   15.3045    1.7532 Du        2 SUP2    0.0000
     49 H20        3.6063    7.4561   -0.3672 H         1 RES1    0.0000
     50 H21        1.0186    8.3929    0.1466 H         1 RES1    0.0000
     51 H22        0.7354    8.5526   -2.2339 H         1 RES1    0.0000
     52 H23        2.1701    7.9537   -2.4191 H         1 RES1    0.0000
     53 H24       -0.0223    6.4848   -1.2404 H         1 RES1    0.0000
     54 H25        0.6502    6.2011   -2.6772 H         1 RES1    0.0000
     55 H26        1.4566    4.6466   -1.0023 H         1 RES1    0.0000
     56 H27        2.6401    5.4958   -1.6672 H         1 RES1    0.0000
     57 H28        1.4347    6.0675    0.8678 H         1 RES1    0.0000
     58 H29        2.9077    5.4374    0.6935 H         1 RES1    0.0000
     59 H30        3.5795    9.6553   -1.9891 H         1 RES1    0.0000
     60 H31        4.4535   11.8190   -1.9847 H         1 RES1    0.0000
     61 H32        3.5468   13.3619   -0.3440 H         1 RES1    0.0000
     62 H33        1.9241   12.6661    1.2371 H         1 RES1    0.0000
     63 H34        1.1919   10.5180    1.1357 H         1 RES1    0.0000
@<TRIPOS>BOND
     1    1    6 1
     2    2   13 1
     3    3   15 1
     4    4   16 2
     5    5   16 1
     6    6    7 1
     7    7    8 1
     8    8    9 1
     9    9   10 1
    10   10   11 1
    11   11    7 1
    12   12   11 1
    13   13    6 2
    14   14    7 1
    15   15    8 1
    16   16   15 1
    17   17    5 1
    18   18    2 1
    19   19   18 1
    20   20   19 1
    21   21   20 1
    22   22   21 1
    23   23   18 1
    24   24   19 1
    25   25   24 ar
    26   26   25 ar
    27   27   26 ar
    28   28   27 ar
    29   29   24 ar
    30   30    3 1
    31   31    8 1
    32   32    9 1
    33   33    9 1
    34   34   10 1
    35   35   10 1
    36   36   11 1
    37   37   12 1
    38   38   12 1
    39   39   14 1
    40   40   14 1
    41   41   14 1
    42   42   15 1
    43   43   17 1
    44   44   17 1
    45   45   17 1
    46   49   18 1
    47   50   19 1
    48   51   20 1
    49   52   20 1
    50   53   21 1
    51   54   21 1
    52   55   22 1
    53   56   22 1
    54   57   23 1
    55   58   23 1
    56   59   25 1
    57   60   26 1
    58   61   27 1
    59   62   28 1
    60   63   29 1
    61   12   13 1
    62   22   23 1
    63   28   29 ar
@<TRIPOS>SUBSTRUCTURE
     1 RES1 1
     2 SUP2 46

@<TRIPOS>CRYSIN
  18.0854   10.4325   11.5299  90.0000 106.9990  90.0000  14 1

