# MOL2 file generated by ConQuest
# Please check atom types

@<TRIPOS>MOLECULE
BACXEI10
    24    24     1
SMALL
NO_CHARGES
****
Generated from CSD

@<TRIPOS>ATOM
      1 N1         7.3978    2.0829    4.8081 N.3       1 RES1    0.0000
      2 C1         8.0117    0.9902    5.3382 C.2       1 RES1    0.0000
      3 N2         7.2220   -0.0644    5.2911 N.2       1 RES1    0.0000
      4 C2         6.0867    0.3941    4.6867 C.2       1 RES1    0.0000
      5 C3         6.1731    1.7297    4.3483 C.2       1 RES1    0.0000
      6 C4         5.3000    2.6692    3.5972 C.3       1 RES1    0.0000
      7 C5         5.6594    2.6888    2.1189 C.3       1 RES1    0.0000
      8 C6         4.7956    3.6839    1.3453 C.2       1 RES1    0.0000
      9 O1         5.0301    3.6575    0.0532 O.co2     1 RES1    0.0000
     10 O2         3.9704    4.3970    1.8515 O.co2     1 RES1    0.0000
     11 N3         7.0554    3.0614    1.9136 N.am      1 RES1    0.0000
     12 C7         8.0256    2.1551    1.7846 C.2       1 RES1    0.0000
     13 O3         7.7773    0.9395    1.7355 O.2       1 RES1    0.0000
     14 C8         9.4139    2.7014    1.7805 C.3       1 RES1    0.0000
     15 N4         4.9854   -0.4673    4.4493 N.pl3     1 RES1    0.0000
     16 O4         5.0872   -1.6419    4.8709 O.2       1 RES1    0.0000
     17 O5         3.9951   -0.0585    3.8667 O.2       1 RES1    0.0000
     18 H1         4.2727    2.3512    3.7043 H         1 RES1    0.0000
     19 H2         5.4142    3.6683    4.0045 H         1 RES1    0.0000
     20 H3         5.4913    1.6878    1.7464 H         1 RES1    0.0000
     21 H4         7.5428    2.7317    4.4752 H         1 RES1    0.0000
     22 H5         7.4811    3.7073    1.9238 H         1 RES1    0.0000
     23 H6         9.3167    3.5122    1.5418 H         1 RES1    0.0000
     24 H7         9.9954    2.2439    1.7123 H         1 RES1    0.0000
@<TRIPOS>BOND
     1    1    2 1
     2    2    3 2
     3    3    4 1
     4    4    5 2
     5    5    1 1
     6    6    5 1
     7    7    6 1
     8    8    7 1
     9    9    8 1
    10   10    8 2
    11   11    7 1
    12   12   11 1
    13   13   12 2
    14   14   12 1
    15   15    4 1
    16   16   15 2
    17   17   15 2
    18   18    6 1
    19   19    6 1
    20   20    7 1
    21   21    1 1
    22   22   11 1
    23   23   14 1
    24   24   14 1
@<TRIPOS>SUBSTRUCTURE
     1 RES1 1

@<TRIPOS>CRYSIN
  15.4250    9.7560    6.8220  90.0000  90.0000  90.0000  19 1

