# MOL2 file generated by ConQuest
# Please check atom types

@<TRIPOS>MOLECULE
BADMOJ
    37    39     1
SMALL
NO_CHARGES
****
Generated from CSD

@<TRIPOS>ATOM
      1 O1         5.0409    2.5172    1.7816 O.2       1 RES1    0.0000
      2 C1         4.3727    1.5439    2.0552 C.2       1 RES1    0.0000
      3 O2         4.8446    0.2700    2.1898 O.3       1 RES1    0.0000
      4 C2         6.1566   -0.1999    2.0323 C.ar      1 RES1    0.0000
      5 C3         7.2216    0.6401    1.7129 C.ar      1 RES1    0.0000
      6 H1         7.0697    1.5524    1.6119 H         1 RES1    0.0000
      7 C4         8.4998    0.1446    1.5425 C.ar      1 RES1    0.0000
      8 H2         9.1918    0.7265    1.3233 H         1 RES1    0.0000
      9 C5         8.7650   -1.1951    1.6914 C.ar      1 RES1    0.0000
     10 H3         9.6278   -1.5183    1.5711 H         1 RES1    0.0000
     11 C6         7.7469   -2.0489    2.0201 C.ar      1 RES1    0.0000
     12 H4         7.9202   -2.9572    2.1225 H         1 RES1    0.0000
     13 C7         6.4583   -1.5680    2.1998 C.ar      1 RES1    0.0000
     14 N1         5.4549   -2.5507    2.5930 N.pl3     1 RES1    0.0000
     15 O3         4.3138   -2.1941    2.8629 O.2       1 RES1    0.0000
     16 O4         5.7738   -3.7078    2.6646 O.2       1 RES1    0.0000
     17 C8         2.9040    1.6645    2.3738 C.ar      1 RES1    0.0000
     18 C9         2.5480    2.5823    3.3484 C.ar      1 RES1    0.0000
     19 H5         3.2016    3.1204    3.7337 H         1 RES1    0.0000
     20 C10        1.2360    2.7079    3.7530 C.ar      1 RES1    0.0000
     21 H6         1.0049    3.3247    4.4090 H         1 RES1    0.0000
     22 C11        0.2678    1.9093    3.1751 C.ar      1 RES1    0.0000
     23 H7        -0.6152    1.9767    3.4587 H         1 RES1    0.0000
     24 C12        0.6010    1.0174    2.1862 C.ar      1 RES1    0.0000
     25 H8        -0.0653    0.4981    1.7967 H         1 RES1    0.0000
     26 C13        1.9167    0.8769    1.7551 C.ar      1 RES1    0.0000
     27 C14        2.2397   -0.0471    0.6280 C.ar      1 RES1    0.0000
     28 C15        1.9463   -1.3976    0.7003 C.ar      1 RES1    0.0000
     29 H9         1.5007   -1.7354    1.4436 H         1 RES1    0.0000
     30 C16        2.3130   -2.2507   -0.3330 C.ar      1 RES1    0.0000
     31 H10        2.1322   -3.1601   -0.2678 H         1 RES1    0.0000
     32 C17        2.9443   -1.7581   -1.4501 C.ar      1 RES1    0.0000
     33 H11        3.2083   -2.3343   -2.1304 H         1 RES1    0.0000
     34 C18        3.1775   -0.4248   -1.5503 C.ar      1 RES1    0.0000
     35 H12        3.5689   -0.0837   -2.3223 H         1 RES1    0.0000
     36 C19        2.8420    0.4275   -0.5235 C.ar      1 RES1    0.0000
     37 H13        3.0223    1.3367   -0.6051 H         1 RES1    0.0000
@<TRIPOS>BOND
     1    1    2 2
     2    2    3 1
     3    3    4 1
     4    4    5 ar
     5    5    6 1
     6    7    5 ar
     7    8    7 1
     8    9    7 ar
     9   10    9 1
    10   11    9 ar
    11   12   11 1
    12   13    4 ar
    13   14   13 1
    14   15   14 2
    15   16   14 2
    16   17    2 1
    17   18   17 ar
    18   19   18 1
    19   20   18 ar
    20   21   20 1
    21   22   20 ar
    22   23   22 1
    23   24   22 ar
    24   25   24 1
    25   26   17 ar
    26   27   26 1
    27   28   27 ar
    28   29   28 1
    29   30   28 ar
    30   31   30 1
    31   32   30 ar
    32   33   32 1
    33   34   32 ar
    34   35   34 1
    35   36   27 ar
    36   37   36 1
    37   11   13 ar
    38   24   26 ar
    39   34   36 ar
@<TRIPOS>SUBSTRUCTURE
     1 RES1 1

@<TRIPOS>CRYSIN
  15.2560   14.1900    7.2010  90.0000  96.0500  90.0000  14 1

