# MOL2 file generated by ConQuest
# Please check atom types

@<TRIPOS>MOLECULE
BAFGUL
    32    33     1
SMALL
NO_CHARGES
****
Generated from CSD

@<TRIPOS>ATOM
      1 O1         3.2596   -3.6117    3.8161 O.3       1 RES1    0.0000
      2 H1         3.9105   -2.9992    3.7800 H         1 RES1    0.0000
      3 O2         8.3937    0.3805    7.9552 O.2       1 RES1    0.0000
      4 O3         9.6373    1.6337    6.7126 O.2       1 RES1    0.0000
      5 O4         9.0211    1.7608    2.0539 O.2       1 RES1    0.0000
      6 O5         7.6181    0.4806    1.0138 O.2       1 RES1    0.0000
      7 N1         8.7367    0.8153    6.8632 N.pl3     1 RES1    0.0000
      8 N2         8.1551    0.8919    2.0613 N.pl3     1 RES1    0.0000
      9 N3         6.0228   -1.1126    2.3430 N.pl3     1 RES1    0.0000
     10 H2         6.2436   -0.8532    1.5162 H         1 RES1    0.0000
     11 N4         5.0194   -2.0498    2.5083 N.2       1 RES1    0.0000
     12 C1         4.5045   -2.4917    1.4106 C.2       1 RES1    0.0000
     13 H3         4.8612   -2.1765    0.5681 H         1 RES1    0.0000
     14 C2         3.4319   -3.4624    1.4028 C.ar      1 RES1    0.0000
     15 C3         2.8395   -3.9686    2.5719 C.ar      1 RES1    0.0000
     16 C4         1.7886   -4.8741    2.4815 C.ar      1 RES1    0.0000
     17 H4         1.3932   -5.2062    3.2985 H         1 RES1    0.0000
     18 C5         1.3129   -5.2667    1.2459 C.ar      1 RES1    0.0000
     19 H5         0.6057   -5.8635    1.1636 H         1 RES1    0.0000
     20 C6         1.8788   -4.7731    0.0817 C.ar      1 RES1    0.0000
     21 H6         1.5816   -5.0190   -0.7433 H         1 RES1    0.0000
     22 C7         2.9226   -3.8794    0.1590 C.ar      1 RES1    0.0000
     23 H7         3.3084   -3.5129   -0.6082 H         1 RES1    0.0000
     24 C8         6.6554   -0.5916    3.4227 C.ar      1 RES1    0.0000
     25 C9         6.2784   -0.9820    4.7350 C.ar      1 RES1    0.0000
     26 H8         5.5428   -1.5410    4.8190 H         1 RES1    0.0000
     27 C10        6.9523   -0.5398    5.8339 C.ar      1 RES1    0.0000
     28 H9         6.6915   -0.8097    6.6837 H         1 RES1    0.0000
     29 C11        8.0140    0.3430    5.6838 C.ar      1 RES1    0.0000
     30 C12        8.3924    0.8040    4.4507 C.ar      1 RES1    0.0000
     31 H10        9.0911    1.4234    4.3460 H         1 RES1    0.0000
     32 C13        7.7160    0.3474    3.3273 C.ar      1 RES1    0.0000
@<TRIPOS>BOND
     1    1    2 1
     2    3    7 2
     3    4    7 2
     4    5    8 2
     5    6    8 2
     6    7   29 1
     7    8   32 1
     8    9   10 1
     9   11    9 1
    10   12   11 2
    11   13   12 1
    12   14   12 1
    13   15    1 1
    14   16   15 ar
    15   17   16 1
    16   18   16 ar
    17   19   18 1
    18   20   18 ar
    19   21   20 1
    20   22   14 ar
    21   23   22 1
    22   24    9 1
    23   25   24 ar
    24   26   25 1
    25   27   25 ar
    26   28   27 1
    27   29   27 ar
    28   30   29 ar
    29   31   30 1
    30   32   24 ar
    31   14   15 ar
    32   20   22 ar
    33   30   32 ar
@<TRIPOS>SUBSTRUCTURE
     1 RES1 1

@<TRIPOS>CRYSIN
  13.7670    4.3530   21.1180  90.0000  90.4070  90.0000 231 1

