# MOL2 file generated by ConQuest
# Please check atom types

@<TRIPOS>MOLECULE
BAFHAS
    32    33     1
SMALL
NO_CHARGES
****
Generated from CSD

@<TRIPOS>ATOM
      1 C1         7.5291    3.7136    9.5102 C.ar      1 RES1    0.0000
      2 C2         6.3187    4.1093    8.9005 C.ar      1 RES1    0.0000
      3 C3         5.3197    3.1985    8.5990 C.ar      1 RES1    0.0000
      4 H1         4.5372    3.4764    8.1800 H         1 RES1    0.0000
      5 C4         5.5015    1.8848    8.9284 C.ar      1 RES1    0.0000
      6 C5         6.6531    1.4610    9.5776 C.ar      1 RES1    0.0000
      7 H2         6.7461    0.5698    9.8222 H         1 RES1    0.0000
      8 C6         7.6469    2.3480    9.8559 C.ar      1 RES1    0.0000
      9 H3         8.4183    2.0491   10.2816 H         1 RES1    0.0000
     10 C7        10.6861    4.9121   10.3433 C.2       1 RES1    0.0000
     11 H4        10.5714    5.7542   10.0360 H         1 RES1    0.0000
     12 C8        11.9841    4.5051   10.8624 C.ar      1 RES1    0.0000
     13 C9        12.2852    3.1578   11.0454 C.ar      1 RES1    0.0000
     14 H5        11.6675    2.5094   10.7960 H         1 RES1    0.0000
     15 C10       13.4833    2.7817   11.5896 C.ar      1 RES1    0.0000
     16 C11       14.4100    3.7318   11.9585 C.ar      1 RES1    0.0000
     17 H6        15.2208    3.4736   12.3341 H         1 RES1    0.0000
     18 C12       14.1282    5.0707   11.7668 C.ar      1 RES1    0.0000
     19 H7        14.7546    5.7121   12.0124 H         1 RES1    0.0000
     20 C13       12.9262    5.4665   11.2130 C.ar      1 RES1    0.0000
     21 H8        12.7480    6.3689   11.0762 H         1 RES1    0.0000
     22 N1         9.7285    4.0728   10.2605 N.2       1 RES1    0.0000
     23 N2         8.5534    4.5612    9.7683 N.pl3     1 RES1    0.0000
     24 H9         8.3634    5.3612    9.6219 H         1 RES1    0.0000
     25 N3         6.0645    5.4798    8.5220 N.pl3     1 RES1    0.0000
     26 N4         4.4660    0.9305    8.5846 N.pl3     1 RES1    0.0000
     27 O1         6.9204    6.3281    8.7608 O.2       1 RES1    0.0000
     28 O2         5.0131    5.7540    7.9739 O.2       1 RES1    0.0000
     29 O3         3.4913    1.3122    7.9759 O.2       1 RES1    0.0000
     30 O4         4.6194   -0.2274    8.9284 O.2       1 RES1    0.0000
     31 O5        13.8045    1.4470   11.7996 O.3       1 RES1    0.0000
     32 H10       13.1154    1.0386   11.4615 H         1 RES1    0.0000
@<TRIPOS>BOND
     1    1    2 ar
     2    2    3 ar
     3    3    4 1
     4    5    3 ar
     5    6    5 ar
     6    7    6 1
     7    8    1 ar
     8    9    8 1
     9   10   11 1
    10   12   10 1
    11   13   12 ar
    12   14   13 1
    13   15   13 ar
    14   16   15 ar
    15   17   16 1
    16   18   16 ar
    17   19   18 1
    18   20   12 ar
    19   21   20 1
    20   22   10 2
    21   23    1 1
    22   24   23 1
    23   25    2 1
    24   26    5 1
    25   27   25 2
    26   28   25 2
    27   29   26 2
    28   30   26 2
    29   31   15 1
    30   32   31 1
    31    6    8 ar
    32   18   20 ar
    33   22   23 1
@<TRIPOS>SUBSTRUCTURE
     1 RES1 1

@<TRIPOS>CRYSIN
   9.7902   14.0346    9.8226  90.0000 101.3200  90.0000 231 1

