# MOL2 file generated by ConQuest
# Please check atom types

@<TRIPOS>MOLECULE
BAFMIG
    87    87     2
SMALL
NO_CHARGES
****
Generated from CSD

@<TRIPOS>ATOM
      1 C1         7.0518    9.9391    8.1491 C.3       1 RES1    0.0000
      2 H1         7.2868   10.2172    7.2506 H         1 RES1    0.0000
      3 H2         7.8743    9.8808    8.6602 H         1 RES1    0.0000
      4 C2         6.4454    8.5581    8.0724 C.3       1 RES1    0.0000
      5 H3         6.4901    8.1184    8.9473 H         1 RES1    0.0000
      6 O1         7.1305    7.7625    7.0737 O.3       1 RES1    0.0000
      7 C3         5.0130    8.5556    7.5514 C.3       1 RES1    0.0000
      8 H4         4.5864    7.6993    7.7657 H         1 RES1    0.0000
      9 O2         5.2327    8.6407    6.1386 O.3       1 RES1    0.0000
     10 C4         4.1375    9.6852    8.0134 C.3       1 RES1    0.0000
     11 H5         3.8320    9.4970    8.9138 H         1 RES1    0.0000
     12 H6         3.3561    9.7314    7.4413 H         1 RES1    0.0000
     13 C5         4.8344   11.0419    8.0036 C.3       1 RES1    0.0000
     14 H7         5.0283   11.2703    7.0697 H         1 RES1    0.0000
     15 C6         3.9131   12.0865    8.5442 C.2       1 RES1    0.0000
     16 O3         3.1504   12.7181    7.8119 O.2       1 RES1    0.0000
     17 C7         3.9037   12.2820    9.9991 C.2       1 RES1    0.0000
     18 H8         3.2515   12.8310   10.3707 H         1 RES1    0.0000
     19 C8         4.7956   11.7039   10.8130 C.2       1 RES1    0.0000
     20 C9         5.8802   10.7686   10.2934 C.3       1 RES1    0.0000
     21 H9         5.5194    9.8601   10.3569 H         1 RES1    0.0000
     22 C10        6.1775   11.0286    8.7723 C.3       1 RES1    0.0000
     23 C11        7.1658   10.7917   11.1315 C.3       1 RES1    0.0000
     24 H10        7.6570    9.9743   10.9565 H         1 RES1    0.0000
     25 H11        7.7145   11.5302   10.8268 H         1 RES1    0.0000
     26 C12        6.9801   10.9253   12.6492 C.3       1 RES1    0.0000
     27 H12        6.6076   10.1018   13.0012 H         1 RES1    0.0000
     28 H13        7.8426   11.0674   13.0680 H         1 RES1    0.0000
     29 C13        6.0553   12.0853   12.9913 C.3       1 RES1    0.0000
     30 C14        4.6722   11.8096   12.3239 C.3       1 RES1    0.0000
     31 O4         4.2245   10.5075   12.7672 O.3       1 RES1    0.0000
     32 H14        3.4524   10.3848   12.5195 H         1 RES1    0.0000
     33 C15        3.7756   12.8602   12.9206 C.3       1 RES1    0.0000
     34 H15        2.8426   12.6027   12.8498 H         1 RES1    0.0000
     35 H16        3.9025   13.7153   12.4802 H         1 RES1    0.0000
     36 C16        4.2245   12.9221   14.3970 C.3       1 RES1    0.0000
     37 H17        3.5841   12.4654   14.9652 H         1 RES1    0.0000
     38 H18        4.2950   13.8440   14.6900 H         1 RES1    0.0000
     39 C17        5.6193   12.2189   14.4776 C.3       1 RES1    0.0000
     40 H19        5.4525   11.3091   14.8000 H         1 RES1    0.0000
     41 C18        6.6135   13.4055   12.4350 C.3       1 RES1    0.0000
     42 H20        7.5359   13.4954   12.6886 H         1 RES1    0.0000
     43 H21        6.1117   14.1416   12.7908 H         1 RES1    0.0000
     44 H22        6.5441   13.4043   11.4775 H         1 RES1    0.0000
     45 C19        6.8661   12.3780    8.5521 C.3       1 RES1    0.0000
     46 H23        6.8955   12.5723    7.6124 H         1 RES1    0.0000
     47 H24        7.7604   12.3416    8.8981 H         1 RES1    0.0000
     48 H25        6.3749   13.0667    9.0043 H         1 RES1    0.0000
     49 C20        6.5665   12.8808   15.5039 C.3       1 RES1    0.0000
     50 O5         6.6146   14.2825   15.2021 O.3       1 RES1    0.0000
     51 H26        7.0776   14.6663   15.7595 H         1 RES1    0.0000
     52 C21        7.9766   12.2990   15.4685 C.3       1 RES1    0.0000
     53 H27        8.4219   12.5893   14.6703 H         1 RES1    0.0000
     54 H28        7.9272   11.3407   15.4783 H         1 RES1    0.0000
     55 H29        8.4666   12.6027   16.2372 H         1 RES1    0.0000
     56 C22        6.3561    7.8062    5.8508 C.3       1 RES1    0.0000
     57 C23        7.1493    8.4281    4.7440 C.3       1 RES1    0.0000
     58 H30        6.6182    8.4512    3.9438 H         1 RES1    0.0000
     59 H31        7.9413    7.9083    4.5867 H         1 RES1    0.0000
     60 H32        7.3961    9.3221    4.9897 H         1 RES1    0.0000
     61 C24        5.9014    6.3864    5.5264 C.3       1 RES1    0.0000
     62 H33        5.4407    6.0159    6.2814 H         1 RES1    0.0000
     63 H34        6.6663    5.8447    5.3200 H         1 RES1    0.0000
     64 H35        5.3103    6.4058    4.7695 H         1 RES1    0.0000
     65 O6         6.7756   13.5258   17.8259 O.3       1 RES1    0.0000
     66 N1         7.0800   12.7569   18.9503 N.2       1 RES1    0.0000
     67 C25        6.6135   11.5751   18.8166 C.2       1 RES1    0.0000
     68 C26        5.9460   11.3419   17.5190 C.3       1 RES1    0.0000
     69 H36        5.0388   11.0213   17.6409 H         1 RES1    0.0000
     70 H37        6.4395   10.7055   16.9764 H         1 RES1    0.0000
     71 C27        5.9625   12.7339   16.8938 C.3       1 RES1    0.0000
     72 H38        5.0494   13.0897   16.8840 H         1 RES1    0.0000
     73 C28        6.7698   10.5476   19.8763 C.3       1 RES1    0.0000
     74 H39        7.2304   11.0686   20.5663 H         1 RES1    0.0000
     75 C29        5.4630   10.2743   20.5644 C.3       1 RES1    0.0000
     76 H40        4.8250    9.9512   19.9254 H         1 RES1    0.0000
     77 H41        5.1364   11.0844   20.9615 H         1 RES1    0.0000
     78 H42        5.5935    9.6136   21.2485 H         1 RES1    0.0000
     79 C30        7.6910    9.6403   19.6010 C.3       1 RES1    0.0000
     80 H43        8.4971   10.0788   19.3179 H         1 RES1    0.0000
     81 H44        7.3749    9.0670   18.8992 H         1 RES1    0.0000
     82 H45        7.8696    9.1168   20.3855 H         1 RES1    0.0000
     83 C31        7.8356   10.2767   20.6155 Du        2 SUP2    0.0000
     84 H46        6.7921    9.7545   19.3002 Du        2 SUP2    0.0000
     85 H47        7.6111    9.6099   21.2682 Du        2 SUP2    0.0000
     86 H48        8.1282   11.0759   21.0598 Du        2 SUP2    0.0000
     87 H49        8.5406    9.9476   20.0512 Du        2 SUP2    0.0000
@<TRIPOS>BOND
     1    1    2 1
     2    3    1 1
     3    4    1 1
     4    5    4 1
     5    6    4 1
     6    7    4 1
     7    8    7 1
     8    9    7 1
     9   10    7 1
    10   11   10 1
    11   12   10 1
    12   13   10 1
    13   14   13 1
    14   15   13 1
    15   16   15 2
    16   17   15 1
    17   18   17 1
    18   19   17 2
    19   20   19 1
    20   21   20 1
    21   22    1 1
    22   23   20 1
    23   24   23 1
    24   25   23 1
    25   26   23 1
    26   27   26 1
    27   28   26 1
    28   29   26 1
    29   30   19 1
    30   31   30 1
    31   32   31 1
    32   33   30 1
    33   34   33 1
    34   35   33 1
    35   36   33 1
    36   37   36 1
    37   38   36 1
    38   39   29 1
    39   40   39 1
    40   41   29 1
    41   42   41 1
    42   43   41 1
    43   44   41 1
    44   45   22 1
    45   46   45 1
    46   47   45 1
    47   48   45 1
    48   49   39 1
    49   50   49 1
    50   51   50 1
    51   52   49 1
    52   53   52 1
    53   54   52 1
    54   55   52 1
    55   56    6 1
    56   57   56 1
    57   58   57 1
    58   59   57 1
    59   60   57 1
    60   61   56 1
    61   62   61 1
    62   63   61 1
    63   64   61 1
    64   65   66 1
    65   66   67 2
    66   67   68 1
    67   68   69 1
    68   70   68 1
    69   71   49 1
    70   72   71 1
    71   73   67 1
    72   74   73 1
    73   75   73 1
    74   76   75 1
    75   77   75 1
    76   78   75 1
    77   79   73 1
    78   80   79 1
    79   81   79 1
    80   82   79 1
    81    9   56 1
    82   13   22 1
    83   20   22 1
    84   29   30 1
    85   36   39 1
    86   65   71 1
    87   68   71 1
@<TRIPOS>SUBSTRUCTURE
     1 RES1 1
     2 SUP2 83

@<TRIPOS>CRYSIN
  11.7510   12.1460   19.6600  90.0000  90.0000  90.0000  19 1

