# MOL2 file generated by ConQuest
# Please check atom types

@<TRIPOS>MOLECULE
BAFNUT
    52    47     2
SMALL
NO_CHARGES
****
Generated from CSD

@<TRIPOS>ATOM
      1 O1         6.3056    5.1560    0.3011 O.3       1 RES1    0.0000
      2 O2         5.3047    7.0527   -0.4003 O.2       1 RES1    0.0000
      3 O3         5.0758    1.6651    1.3388 O.2       1 RES1    0.0000
      4 O4         7.9644    8.2016    6.2123 O.2       1 RES1    0.0000
      5 O5         6.5052    9.7264    5.8185 O.2       1 RES1    0.0000
      6 O6         4.0602    6.5883    6.0881 O.2       1 RES1    0.0000
      7 O7         2.7844    7.5919    4.6899 O.2       1 RES1    0.0000
      8 N1         7.1337    8.7185    5.5041 N.pl3     1 RES1    0.0000
      9 N2         3.5304    6.6796    5.0045 N.pl3     1 RES1    0.0000
     10 C1         6.3595    7.0276    1.7308 C.ar      1 RES1    0.0000
     11 C2         5.8282    8.2698    2.0690 C.ar      1 RES1    0.0000
     12 C3         6.0531    8.8155    3.3100 C.ar      1 RES1    0.0000
     13 C4         6.8595    8.1266    4.1810 C.ar      1 RES1    0.0000
     14 C5         7.4362    6.9045    3.8754 C.ar      1 RES1    0.0000
     15 C6         7.1651    6.3539    2.6382 C.ar      1 RES1    0.0000
     16 C7         5.9465    6.4634    0.4249 C.2       1 RES1    0.0000
     17 C8         5.7482    4.3813   -0.7395 C.2       1 RES1    0.0000
     18 C9         5.1252    3.2562   -0.3884 C.2       1 RES1    0.0000
     19 C10        4.6918    2.2550   -1.4309 C.3       1 RES1    0.0000
     20 C11        4.6425    2.8556   -2.8119 C.3       1 RES1    0.0000
     21 C12        5.8493    3.6742   -3.1285 C.3       1 RES1    0.0000
     22 C13        6.0335    4.8108   -2.1358 C.3       1 RES1    0.0000
     23 C14        4.9356    2.8392    1.0284 C.2       1 RES1    0.0000
     24 C15        4.5320    3.8385    2.0602 C.ar      1 RES1    0.0000
     25 C16        3.6566    4.8819    1.7575 C.ar      1 RES1    0.0000
     26 C17        3.2906    5.7880    2.7303 C.ar      1 RES1    0.0000
     27 C18        3.8298    5.6467    3.9935 C.ar      1 RES1    0.0000
     28 C19        4.6613    4.6100    4.3380 C.ar      1 RES1    0.0000
     29 C20        5.0061    3.6924    3.3647 C.ar      1 RES1    0.0000
     30 H1         5.3133    8.6954    1.4218 H         1 RES1    0.0000
     31 H2         5.6268    9.6947    3.5689 H         1 RES1    0.0000
     32 H3         8.0013    6.4471    4.5159 H         1 RES1    0.0000
     33 H4         7.5076    5.5439    2.4118 H         1 RES1    0.0000
     34 H5         3.7459    1.8928   -1.1761 H         1 RES1    0.0000
     35 H6         5.3133    1.4701   -1.3574 H         1 RES1    0.0000
     36 H7         4.6237    2.0658   -3.5164 H         1 RES1    0.0000
     37 H8         3.8165    3.5070   -2.8341 H         1 RES1    0.0000
     38 H9         5.8305    4.0451   -4.0818 H         1 RES1    0.0000
     39 H10        6.7082    3.0170   -3.0440 H         1 RES1    0.0000
     40 H11        6.9276    5.2269   -2.2425 H         1 RES1    0.0000
     41 H12        5.4230    5.5247   -2.3951 H         1 RES1    0.0000
     42 H13        3.3228    4.9309    0.8588 H         1 RES1    0.0000
     43 H14        2.6958    6.5144    2.5073 H         1 RES1    0.0000
     44 H15        5.0390    4.5255    5.2125 H         1 RES1    0.0000
     45 H16        5.6111    2.9209    3.5355 H         1 RES1    0.0000
     46 C21        5.3133    2.3348   -2.8317 Du        2 SUP2    0.0000
     47 H17        3.7107    2.3348   -1.5339 Du        2 SUP2    0.0000
     48 H18        4.8736    1.3500   -1.0711 Du        2 SUP2    0.0000
     49 H19        6.0484    1.6718   -2.9009 Du        2 SUP2    0.0000
     50 H20        4.6307    2.1013   -3.5068 Du        2 SUP2    0.0000
     51 H21        5.2757    4.0374   -3.8480 Du        2 SUP2    0.0000
     52 H22        6.7396    3.5252   -3.5331 Du        2 SUP2    0.0000
@<TRIPOS>BOND
     1    1   16 1
     2    2   16 2
     3    3   23 2
     4    4    8 2
     5    5    8 2
     6    6    9 2
     7    7    9 2
     8    8   13 1
     9    9   27 1
    10   10   11 ar
    11   11   12 ar
    12   12   13 ar
    13   13   14 ar
    14   14   15 ar
    15   15   10 ar
    16   16   10 1
    17   17    1 1
    18   18   17 2
    19   19   18 1
    20   20   19 1
    21   21   20 1
    22   22   17 1
    23   23   18 1
    24   24   23 1
    25   25   24 ar
    26   26   25 ar
    27   27   26 ar
    28   28   27 ar
    29   29   24 ar
    30   30   11 1
    31   31   12 1
    32   32   14 1
    33   33   15 1
    34   34   19 1
    35   35   19 1
    36   36   20 1
    37   37   20 1
    38   38   21 1
    39   39   21 1
    40   40   22 1
    41   41   22 1
    42   42   25 1
    43   43   26 1
    44   44   28 1
    45   45   29 1
    46   21   22 1
    47   28   29 ar
@<TRIPOS>SUBSTRUCTURE
     1 RES1 1
     2 SUP2 46

@<TRIPOS>CRYSIN
   7.8367    9.6082   23.8560  90.0000  90.0000  90.0000  19 1

