# MOL2 file generated by ConQuest
# Please check atom types

@<TRIPOS>MOLECULE
BAFXIP
    19    19     1
SMALL
USER_CHARGES
****
Generated from CSD

@<TRIPOS>ATOM
      1 O1         3.1831    1.6553    3.0912 O.3       1 RES1    0.0000
      2 C1         2.3715    0.4986    3.1511 C.3       1 RES1    0.0000
      3 C2         1.3868    0.4456    2.0318 C.3       1 RES1    0.0000
      4 N1         0.5051    1.6553    2.0865 N.4       1 RES1    1.0000
      5 C3        -0.4170    1.6553    0.9263 C.3       1 RES1    0.0000
      6 O2        -0.2290    1.6553    3.2676 O.2       1 RES1   -1.0000
      7 H1         1.8765    0.4171    4.0370 H         1 RES1    0.0000
      8 H2         2.9444   -0.2582    3.1098 H         1 RES1    0.0000
      9 H3         0.7888   -0.3642    2.0589 H         1 RES1    0.0000
     10 H4         1.8709    0.5231    1.1460 H         1 RES1    0.0000
     11 H5        -0.9802    2.5689    1.0556 H         1 RES1    0.0000
     12 H6         0.1691    1.6553    0.0475 H         1 RES1    0.0000
     13 C1C        2.3715    2.8119    3.1511 C.3       1 RES1    0.0000
     14 C2C        1.3868    2.8649    2.0318 C.3       1 RES1    0.0000
     15 H5C       -0.9802    0.7416    1.0556 H         1 RES1    0.0000
     16 H1C        1.8765    2.8934    4.0370 H         1 RES1    0.0000
     17 H2C        2.9444    3.5687    3.1098 H         1 RES1    0.0000
     18 H3C        0.7888    3.6747    2.0589 H         1 RES1    0.0000
     19 H4C        1.8709    2.7874    1.1460 H         1 RES1    0.0000
@<TRIPOS>BOND
     1    1    2 1
     2    2    3 1
     3    3    4 1
     4    4    5 1
     5    5   11 1
     6    6    4 1
     7    7    2 1
     8    8    2 1
     9    9    3 1
    10   10    3 1
    11   12    5 1
    12   13    1 1
    13   14    4 1
    14   15    5 1
    15   16   13 1
    16   17   13 1
    17   18   14 1
    18   19   14 1
    19   13   14 1
@<TRIPOS>SUBSTRUCTURE
     1 RES1 1

@<TRIPOS>CRYSIN
   9.8860    6.6210    5.1120  90.0000 111.5400  90.0000  11 1

