# MOL2 file generated by ConQuest
# Please check atom types

@<TRIPOS>MOLECULE
BAHMUS
    43    46     1
SMALL
NO_CHARGES
****
Generated from CSD

@<TRIPOS>ATOM
      1 N1         7.6159    7.5914    3.2910 N.3       1 RES1    0.0000
      2 O1         8.5486    6.4906    3.2005 O.3       1 RES1    0.0000
      3 C1         8.7172    6.0127    4.5464 C.3       1 RES1    0.0000
      4 C2         9.4490    4.6936    4.5162 C.3       1 RES1    0.0000
      5 C3         8.5981    3.5683    4.0044 C.3       1 RES1    0.0000
      6 C4         7.3252    3.4784    4.7996 C.3       1 RES1    0.0000
      7 C5         6.4935    4.7616    4.6876 C.3       1 RES1    0.0000
      8 C6         5.7566    4.8400    3.3686 C.2       1 RES1    0.0000
      9 N2         5.2327    6.0320    3.0324 N.am      1 RES1    0.0000
     10 C7         4.0689    6.0680    2.1530 C.3       1 RES1    0.0000
     11 C8         2.8031    6.0808    3.0000 C.3       1 RES1    0.0000
     12 C9         2.8435    7.2112    4.0281 C.3       1 RES1    0.0000
     13 C10        4.1113    7.2048    4.8524 C.3       1 RES1    0.0000
     14 C11        5.3266    7.2073    3.9128 C.3       1 RES1    0.0000
     15 C12        6.7438    7.3242    4.4936 C.3       1 RES1    0.0000
     16 C13        7.3010    6.0115    5.0906 C.3       1 RES1    0.0000
     17 C14        8.4133    8.8194    3.3395 C.3       1 RES1    0.0000
     18 C15        6.7650    8.4404    5.5432 C.3       1 RES1    0.0000
     19 O2         5.5557    3.8355    2.6800 O.2       1 RES1    0.0000
     20 H1         9.2057    6.6922    5.1186 H         1 RES1    0.0000
     21 H2        10.3464    4.7527    4.1595 H         1 RES1    0.0000
     22 H3         9.6701    4.5214    5.6035 H         1 RES1    0.0000
     23 H4         8.3780    3.6608    3.0712 H         1 RES1    0.0000
     24 H5         9.0745    2.6846    4.0949 H         1 RES1    0.0000
     25 H6         6.7933    2.8002    4.5690 H         1 RES1    0.0000
     26 H7         7.6412    3.4682    5.8083 H         1 RES1    0.0000
     27 H8         5.7031    4.6242    5.3126 H         1 RES1    0.0000
     28 H9         4.1284    6.8721    1.6487 H         1 RES1    0.0000
     29 H10        4.1486    5.3178    1.5625 H         1 RES1    0.0000
     30 H11        1.9481    6.2170    2.4246 H         1 RES1    0.0000
     31 H12        2.6648    5.1508    3.3621 H         1 RES1    0.0000
     32 H13        2.7052    8.0795    3.5453 H         1 RES1    0.0000
     33 H14        2.0693    7.2060    4.5906 H         1 RES1    0.0000
     34 H15        4.1284    7.9767    5.4203 H         1 RES1    0.0000
     35 H16        4.1991    6.4097    5.4419 H         1 RES1    0.0000
     36 H17        5.1782    8.0410    3.3406 H         1 RES1    0.0000
     37 H18        7.2273    6.1142    5.9915 H         1 RES1    0.0000
     38 H19        8.9231    8.8374    2.5431 H         1 RES1    0.0000
     39 H20        7.7623    9.5824    3.2867 H         1 RES1    0.0000
     40 H21        9.0543    8.8502    4.1703 H         1 RES1    0.0000
     41 H22        7.6916    8.5548    5.8621 H         1 RES1    0.0000
     42 H23        6.2381    8.2080    6.2393 H         1 RES1    0.0000
     43 H24        6.3491    9.3640    5.1402 H         1 RES1    0.0000
@<TRIPOS>BOND
     1    1    2 1
     2    2    3 1
     3    3    4 1
     4    4    5 1
     5    5    6 1
     6    6    7 1
     7    7    8 1
     8    8    9 1
     9    9   10 1
    10   10   11 1
    11   11   12 1
    12   12   13 1
    13   13   14 1
    14   14    9 1
    15   15    1 1
    16   16    3 1
    17   17    1 1
    18   18   15 1
    19   19    8 2
    20   20    3 1
    21   21    4 1
    22   22    4 1
    23   23    5 1
    24   24    5 1
    25   25    6 1
    26   26    6 1
    27   27    7 1
    28   28   10 1
    29   29   10 1
    30   30   11 1
    31   31   11 1
    32   32   12 1
    33   33   12 1
    34   34   13 1
    35   35   13 1
    36   36   14 1
    37   37   16 1
    38   38   17 1
    39   39   17 1
    40   40   17 1
    41   41   18 1
    42   42   18 1
    43   43   18 1
    44    7   16 1
    45   14   15 1
    46   15   16 1
@<TRIPOS>SUBSTRUCTURE
     1 RES1 1

@<TRIPOS>CRYSIN
  10.0940   12.8450   10.7760  90.0000  90.0000  90.0000  19 1

