# MOL2 file generated by ConQuest
# Please check atom types

@<TRIPOS>MOLECULE
BAJCIY01
    19    19     1
SMALL
NO_CHARGES
****
Generated from CSD

@<TRIPOS>ATOM
      1 C1         6.4835    0.8486    6.0600 C.ar      1 RES1    0.0000
      2 C2         6.3298   -0.5397    5.8341 C.ar      1 RES1    0.0000
      3 C3         5.8248   -0.9723    4.6236 C.ar      1 RES1    0.0000
      4 C4         5.4801   -0.0456    3.6344 C.ar      1 RES1    0.0000
      5 C5         5.6157    1.3185    3.8471 C.ar      1 RES1    0.0000
      6 C6         6.1179    1.7564    5.0529 C.ar      1 RES1    0.0000
      7 N1         6.9569    1.3176    7.2436 N.3       1 RES1    0.0000
      8 C7         6.7223   -1.5123    6.9128 C.3       1 RES1    0.0000
      9 N2         4.9652   -0.5143    2.3817 N.pl3     1 RES1    0.0000
     10 O1         4.8208   -1.7242    2.1957 O.2       1 RES1    0.0000
     11 O2         4.6715    0.3140    1.5201 O.2       1 RES1    0.0000
     12 H1         5.7135   -1.8818    4.4652 H         1 RES1    0.0000
     13 H2         5.3717    1.9272    3.1872 H         1 RES1    0.0000
     14 H3         6.2170    2.6692    5.2023 H         1 RES1    0.0000
     15 H4         7.0308    2.1644    7.3717 H         1 RES1    0.0000
     16 H5         7.1823    0.7676    7.8650 H         1 RES1    0.0000
     17 H6         6.6462   -2.4087    6.5788 H         1 RES1    0.0000
     18 H7         6.1412   -1.4026    7.6696 H         1 RES1    0.0000
     19 H8         7.6297   -1.3456    7.1796 H         1 RES1    0.0000
@<TRIPOS>BOND
     1    1    2 ar
     2    2    3 ar
     3    3    4 ar
     4    4    5 ar
     5    5    6 ar
     6    6    1 ar
     7    7    1 1
     8    8    2 1
     9    9    4 1
    10   10    9 2
    11   11    9 2
    12   12    3 1
    13   13    5 1
    14   14    6 1
    15   15    7 1
    16   16    7 1
    17   17    8 1
    18   18    8 1
    19   19    8 1
@<TRIPOS>SUBSTRUCTURE
     1 RES1 1

