# MOL2 file generated by ConQuest
# Please check atom types

@<TRIPOS>MOLECULE
BAJCIY04
    19    19     1
SMALL
NO_CHARGES
****
Generated from CSD

@<TRIPOS>ATOM
      1 O1         7.2519    1.1373    3.4943 O.2       1 RES1    0.0000
      2 O2         7.9260    3.1655    3.6798 O.2       1 RES1    0.0000
      3 N1         2.3619    4.2037    1.0961 N.3       1 RES1    0.0000
      4 N2         7.0787    2.3385    3.3437 N.pl3     1 RES1    0.0000
      5 C1         3.5112    3.7340    1.6287 C.ar      1 RES1    0.0000
      6 C2         3.7119    2.3373    1.7916 C.ar      1 RES1    0.0000
      7 C3         4.8883    1.9016    2.3536 C.ar      1 RES1    0.0000
      8 C4         5.8632    2.8086    2.7620 C.ar      1 RES1    0.0000
      9 C5         5.6720    4.1801    2.6191 C.ar      1 RES1    0.0000
     10 C6         4.5061    4.6347    2.0566 C.ar      1 RES1    0.0000
     11 C7         2.6595    1.3793    1.3397 C.3       1 RES1    0.0000
     12 H1         1.6398    3.5792    0.7477 H         1 RES1    0.0000
     13 H2         2.3246    5.1683    0.8331 H         1 RES1    0.0000
     14 H3         5.0611    0.8427    2.4883 H         1 RES1    0.0000
     15 H4         6.4343    4.8704    2.9578 H         1 RES1    0.0000
     16 H5         4.3382    5.6998    1.9348 H         1 RES1    0.0000
     17 H6         2.4142    1.5055    0.2760 H         1 RES1    0.0000
     18 H7         1.7232    1.5286    1.8774 H         1 RES1    0.0000
     19 H8         2.9886    0.3592    1.4947 H         1 RES1    0.0000
@<TRIPOS>BOND
     1    1    4 2
     2    2    4 2
     3    3    5 1
     4    4    8 1
     5    5    6 ar
     6    6    7 ar
     7    7    8 ar
     8    8    9 ar
     9    9   10 ar
    10   10    5 ar
    11   11    6 1
    12   12    3 1
    13   13    3 1
    14   14    7 1
    15   15    9 1
    16   16   10 1
    17   17   11 1
    18   18   11 1
    19   19   11 1
@<TRIPOS>SUBSTRUCTURE
     1 RES1 1

