# MOL2 file generated by ConQuest
# Please check atom types

@<TRIPOS>MOLECULE
BAJGEB
    53    54     1
SMALL
NO_CHARGES
****
Generated from CSD

@<TRIPOS>ATOM
      1 O1         6.2978   10.4759    0.5426 O.3       1 RES1    0.0000
      2 H1         6.9185   10.8322    0.9422 H         1 RES1    0.0000
      3 C1         7.5867    9.2614   -3.5296 C.3       1 RES1    0.0000
      4 H2         8.5149    9.3863   -3.7810 H         1 RES1    0.0000
      5 H3         7.5700    8.9542   -2.6102 H         1 RES1    0.0000
      6 C2         5.3518   13.2013   -2.9325 C.3       1 RES1    0.0000
      7 H4         6.1615   13.3065   -3.4569 H         1 RES1    0.0000
      8 H5         5.6031   13.1520   -1.9970 H         1 RES1    0.0000
      9 C3         4.6397   11.9091   -3.3417 C.3       1 RES1    0.0000
     10 H6         3.8131   11.8635   -2.8170 H         1 RES1    0.0000
     11 C4         4.4355   14.4093   -3.1550 C.3       1 RES1    0.0000
     12 H7         3.6440   14.3217   -2.6005 H         1 RES1    0.0000
     13 H8         4.8991   15.2205   -2.8920 H         1 RES1    0.0000
     14 N1         6.3952   10.7709   -0.8388 N.2       1 RES1    0.0000
     15 C5         5.4466   10.6181   -3.0230 C.3       1 RES1    0.0000
     16 H9         4.9689    9.8798   -3.4557 H         1 RES1    0.0000
     17 C6         6.9795    8.1835   -4.4167 C.3       1 RES1    0.0000
     18 H10        7.0734    8.4530   -5.3438 H         1 RES1    0.0000
     19 H11        6.0310    8.1192   -4.2237 H         1 RES1    0.0000
     20 C7         7.6128    6.7974   -4.2406 C.3       1 RES1    0.0000
     21 H12        8.5736    6.8770   -4.3411 H         1 RES1    0.0000
     22 H13        7.2899    6.2143   -4.9458 H         1 RES1    0.0000
     23 C8         4.0242   14.5097   -4.6167 C.3       1 RES1    0.0000
     24 H14        4.8087   14.6835   -5.1611 H         1 RES1    0.0000
     25 H15        3.4111   15.2527   -4.7281 H         1 RES1    0.0000
     26 C9         4.2254   11.9897   -4.8133 C.3       1 RES1    0.0000
     27 H16        3.7323   11.1899   -5.0511 H         1 RES1    0.0000
     28 H17        5.0201   12.0273   -5.3680 H         1 RES1    0.0000
     29 C10        6.8688   10.6155   -3.6094 C.3       1 RES1    0.0000
     30 H18        6.8214   10.8869   -4.5394 H         1 RES1    0.0000
     31 H19        7.3998   11.2767   -3.1376 H         1 RES1    0.0000
     32 C11        5.4127   10.3323   -1.5294 C.2       1 RES1    0.0000
     33 C12        4.1643    8.1124   -1.3339 C.3       1 RES1    0.0000
     34 H20        3.3094    7.7513   -1.0523 H         1 RES1    0.0000
     35 H21        4.2148    8.0278   -2.2993 H         1 RES1    0.0000
     36 C13        7.3084    6.1496   -2.8834 C.3       1 RES1    0.0000
     37 H22        7.5474    6.7729   -2.1796 H         1 RES1    0.0000
     38 H23        7.8665    5.3626   -2.7807 H         1 RES1    0.0000
     39 C14        5.8399    5.7402   -2.7032 C.3       1 RES1    0.0000
     40 H24        5.2873    6.3054   -3.2658 H         1 RES1    0.0000
     41 H25        5.7312    4.8260   -3.0081 H         1 RES1    0.0000
     42 C15        5.3384    5.8404   -1.2599 C.3       1 RES1    0.0000
     43 H26        5.9213    5.3137   -0.6907 H         1 RES1    0.0000
     44 H27        4.4511    5.4512   -1.2108 H         1 RES1    0.0000
     45 C16        4.2169    9.6065   -0.9643 C.3       1 RES1    0.0000
     46 H28        3.4095   10.0369   -1.2857 H         1 RES1    0.0000
     47 H29        4.2297    9.6886    0.0024 H         1 RES1    0.0000
     48 C17        3.3537   13.2246   -5.0906 C.3       1 RES1    0.0000
     49 H30        3.1811   13.2868   -6.0429 H         1 RES1    0.0000
     50 H31        2.5016   13.1222   -4.6386 H         1 RES1    0.0000
     51 C18        5.2781    7.2771   -0.7104 C.3       1 RES1    0.0000
     52 H32        5.1446    7.2416    0.2492 H         1 RES1    0.0000
     53 H33        6.1283    7.7124   -0.8757 H         1 RES1    0.0000
@<TRIPOS>BOND
     1    1    2 1
     2    3    4 1
     3    5    3 1
     4    6    7 1
     5    8    6 1
     6    9    6 1
     7   10    9 1
     8   11    6 1
     9   12   11 1
    10   13   11 1
    11   14    1 1
    12   15    9 1
    13   16   15 1
    14   17    3 1
    15   18   17 1
    16   19   17 1
    17   20   17 1
    18   21   20 1
    19   22   20 1
    20   23   11 1
    21   24   23 1
    22   25   23 1
    23   26    9 1
    24   27   26 1
    25   28   26 1
    26   29    3 1
    27   30   29 1
    28   31   29 1
    29   32   14 2
    30   33   34 1
    31   35   33 1
    32   36   20 1
    33   37   36 1
    34   38   36 1
    35   39   36 1
    36   40   39 1
    37   41   39 1
    38   42   39 1
    39   43   42 1
    40   44   42 1
    41   45   32 1
    42   46   45 1
    43   47   45 1
    44   48   23 1
    45   49   48 1
    46   50   48 1
    47   51   33 1
    48   52   51 1
    49   53   51 1
    50   15   29 1
    51   15   32 1
    52   26   48 1
    53   33   45 1
    54   42   51 1
@<TRIPOS>SUBSTRUCTURE
     1 RES1 1

@<TRIPOS>CRYSIN
   6.1733   11.5835   12.4643  76.1180  86.9590  83.7910   2 1

