# MOL2 file generated by ConQuest
# Please check atom types

@<TRIPOS>MOLECULE
BAJGIF
    59    47     2
SMALL
NO_CHARGES
****
Generated from CSD

@<TRIPOS>ATOM
      1 O1        -2.0081    7.9288    4.3214 O.2       1 RES1    0.0000
      2 C1        -4.0383    6.9483    6.4422 C.ar      1 RES1    0.0000
      3 C2        -4.2170    7.2307    4.9580 C.3       1 RES1    0.0000
      4 H1        -5.1268    7.6202    4.8150 H         1 RES1    0.0000
      5 O2        -4.8638   11.4359    4.9146 O.3       1 RES1    0.0000
      6 H2        -4.1397   11.8478    4.8009 H         1 RES1    0.0000
      7 C3        -5.0765    7.2735    7.3391 C.ar      1 RES1    0.0000
      8 H3        -5.8966    7.6168    7.0050 H         1 RES1    0.0000
      9 C4        -2.8740    6.3746    6.9675 C.ar      1 RES1    0.0000
     10 H4        -2.1691    6.1307    6.3789 H         1 RES1    0.0000
     11 C5        -4.0978    5.9277    4.1174 C.3       1 RES1    0.0000
     12 H5        -3.2438    5.4769    4.3355 H         1 RES1    0.0000
     13 H6        -4.8360    5.3142    4.3624 H         1 RES1    0.0000
     14 C6        -3.1724    8.2638    4.5383 C.2       1 RES1    0.0000
     15 C7        -2.6639   10.6221    3.5980 C.3       1 RES1    0.0000
     16 H7        -2.9783   11.5542    3.7141 H         1 RES1    0.0000
     17 H8        -1.7485   10.5674    3.9709 H         1 RES1    0.0000
     18 C8        -4.1516    6.2048    2.6132 C.3       1 RES1    0.0000
     19 H9        -3.4380    6.8506    2.3835 H         1 RES1    0.0000
     20 H10       -3.9637    5.3633    2.1279 H         1 RES1    0.0000
     21 N1        -4.6096   10.0600    5.0166 N.2       1 RES1    0.0000
     22 C9        -4.9113    7.0965    8.6827 C.ar      1 RES1    0.0000
     23 H11       -5.6048    7.3555    9.2782 H         1 RES1    0.0000
     24 C10       -2.7296    6.1567    8.3204 C.ar      1 RES1    0.0000
     25 H12       -1.9419    5.7426    8.6534 H         1 RES1    0.0000
     26 C11       -3.5493    9.7217    4.3812 C.2       1 RES1    0.0000
     27 C12       -5.4880    6.7595    2.1349 C.3       1 RES1    0.0000
     28 H13       -5.7419    7.5202    2.7152 H         1 RES1    0.0000
     29 H14       -6.1789    6.0584    2.2416 H         1 RES1    0.0000
     30 C13       -3.7317    6.5410    9.1938 C.ar      1 RES1    0.0000
     31 H15       -3.6211    6.4280   10.1306 H         1 RES1    0.0000
     32 C14       -5.4913    7.2376    0.6647 C.3       1 RES1    0.0000
     33 H16       -5.3327    6.4521    0.0844 H         1 RES1    0.0000
     34 H17       -6.3953    7.5830    0.4537 H         1 RES1    0.0000
     35 C15       -2.6008   10.3284    2.1759 C.3       1 RES1    0.0000
     36 H18       -2.3458    9.3747    2.1079 H         1 RES1    0.0000
     37 H19       -1.8368   10.8467    1.8242 H         1 RES1    0.0000
     38 C16       -4.4816    8.3085    0.3025 C.3       1 RES1    0.0000
     39 H20       -3.5558    7.9744    0.4291 H         1 RES1    0.0000
     40 H21       -4.5892    8.5883   -0.6413 H         1 RES1    0.0000
     41 C17       -4.7585    9.4502    1.2275 C.3       1 RES1    0.0000
     42 H22       -4.8476    9.0991    2.1501 H         1 RES1    0.0000
     43 H23       -5.6271    9.8579    0.9778 H         1 RES1    0.0000
     44 C18       -3.6936   10.5201    1.2122 C.3       1 RES1    0.0000
     45 H24       -3.3065   10.5626    0.3025 H         1 RES1    0.0000
     46 H25       -4.1240   11.3927    1.3940 H         1 RES1    0.0000
     47 H26       -1.8325   10.1342    3.3718 Du        2 SUP2    0.0000
     48 H27       -2.4137   11.3951    4.1643 Du        2 SUP2    0.0000
     49 H28       -4.2860    8.1397   -0.6542 Du        2 SUP2    0.0000
     50 H29       -3.6600    8.0371    0.7878 Du        2 SUP2    0.0000
     51 C19       -4.4834    9.8953    0.4174 Du        2 SUP2    0.0000
     52 H30       -3.7049   10.2658   -0.0668 Du        2 SUP2    0.0000
     53 H31       -5.3064   10.2547   -0.0012 Du        2 SUP2    0.0000
     54 C20       -4.4308   10.3109    1.8500 Du        2 SUP2    0.0000
     55 H32       -5.2689   10.7929    2.0587 Du        2 SUP2    0.0000
     56 H33       -4.4167    9.4914    2.4046 Du        2 SUP2    0.0000
     57 C21       -3.3089   11.1580    2.2732 Du        2 SUP2    0.0000
     58 H34       -3.6302   12.0827    2.4139 Du        2 SUP2    0.0000
     59 H35       -2.6233   11.1773    1.5581 Du        2 SUP2    0.0000
@<TRIPOS>BOND
     1    1   14 2
     2    2    3 1
     3    3    4 1
     4    5    6 1
     5    7    2 ar
     6    8    7 1
     7    9    2 ar
     8   10    9 1
     9   11    3 1
    10   12   11 1
    11   13   11 1
    12   14    3 1
    13   15   16 1
    14   17   15 1
    15   18   11 1
    16   19   18 1
    17   20   18 1
    18   21    5 1
    19   22    7 ar
    20   23   22 1
    21   24    9 ar
    22   25   24 1
    23   26   14 1
    24   27   18 1
    25   28   27 1
    26   29   27 1
    27   30   22 ar
    28   31   30 1
    29   32   27 1
    30   33   32 1
    31   34   32 1
    32   35   15 1
    33   36   35 1
    34   37   35 1
    35   38   32 1
    36   39   38 1
    37   40   38 1
    38   41   38 1
    39   42   41 1
    40   43   41 1
    41   44   35 1
    42   45   44 1
    43   46   44 1
    44   15   26 1
    45   21   26 2
    46   24   30 ar
    47   41   44 1
@<TRIPOS>SUBSTRUCTURE
     1 RES1 1
     2 SUP2 47

@<TRIPOS>CRYSIN
   5.6782   11.9730   12.1480  99.5560  99.9600  99.3500   2 1

