# MOL2 file generated by ConQuest
# Please check atom types

@<TRIPOS>MOLECULE
BAKLUX
    38    40     1
SMALL
NO_CHARGES
****
Generated from CSD

@<TRIPOS>ATOM
      1 O1         6.5702    5.6182    5.8124 O.2       1 RES1    0.0000
      2 O2         5.3046   10.1061    9.9829 O.2       1 RES1    0.0000
      3 O3         4.4141    8.1674    8.5221 O.3       1 RES1    0.0000
      4 N1         6.8516    7.2859    7.4192 N.am      1 RES1    0.0000
      5 H1         7.5120    7.9153    7.1108 H         1 RES1    0.0000
      6 N2         5.5078    7.9246    9.3848 N.am      1 RES1    0.0000
      7 C1         6.4563    6.0966    6.9212 C.2       1 RES1    0.0000
      8 C2         5.8994    5.6505    8.2719 C.3       1 RES1    0.0000
      9 H2         6.3364    4.8464    8.6511 H         1 RES1    0.0000
     10 H3         4.9130    5.5781    8.3050 H         1 RES1    0.0000
     11 C3         6.4600    6.9896    8.7959 C.3       1 RES1    0.0000
     12 H4         7.2559    6.8520    9.3850 H         1 RES1    0.0000
     13 C4         5.9128    9.0525   10.0679 C.2       1 RES1    0.0000
     14 C5         7.0787    8.9274   10.9980 C.ar      1 RES1    0.0000
     15 C6         7.9475   10.0069   11.0666 C.ar      1 RES1    0.0000
     16 H5         7.8158   10.7585   10.5004 H         1 RES1    0.0000
     17 C7         9.0084    9.9932   11.9591 C.ar      1 RES1    0.0000
     18 H6         9.6078   10.7299   11.9988 H         1 RES1    0.0000
     19 C8         9.1894    8.9075   12.7891 C.ar      1 RES1    0.0000
     20 H7         9.9145    8.8950   13.4023 H         1 RES1    0.0000
     21 C9         8.3205    7.8392   12.7310 C.ar      1 RES1    0.0000
     22 H8         8.4523    7.0951   13.3073 H         1 RES1    0.0000
     23 C10        7.2499    7.8392   11.8361 C.ar      1 RES1    0.0000
     24 H9         6.6491    7.1038   11.8025 H         1 RES1    0.0000
     25 C11        3.1589    8.0000    9.2527 C.3       1 RES1    0.0000
     26 H10        2.4353    8.4612    8.7589 H         1 RES1    0.0000
     27 H11        3.2430    8.4326   10.1398 H         1 RES1    0.0000
     28 C12        2.7792    6.5653    9.4445 C.ar      1 RES1    0.0000
     29 C13        2.9318    5.9471   10.6784 C.ar      1 RES1    0.0000
     30 H12        3.2899    6.4294   11.4146 H         1 RES1    0.0000
     31 C14        2.5581    4.6170   10.8303 C.ar      1 RES1    0.0000
     32 H13        2.6512    4.1957   11.6769 H         1 RES1    0.0000
     33 C15        2.0541    3.9015    9.7648 C.ar      1 RES1    0.0000
     34 H14        1.8062    2.9916    9.8775 H         1 RES1    0.0000
     35 C16        1.9104    4.5086    8.5410 C.ar      1 RES1    0.0000
     36 H15        1.5620    4.0200    7.8045 H         1 RES1    0.0000
     37 C17        2.2744    5.8324    8.3815 C.ar      1 RES1    0.0000
     38 H16        2.1769    6.2462    7.5325 H         1 RES1    0.0000
@<TRIPOS>BOND
     1    1    7 2
     2    2   13 2
     3    3    6 1
     4    4    5 1
     5    6   11 1
     6    7    4 1
     7    8    7 1
     8    9    8 1
     9   10    8 1
    10   11    4 1
    11   12   11 1
    12   13    6 1
    13   14   13 1
    14   15   14 ar
    15   16   15 1
    16   17   15 ar
    17   18   17 1
    18   19   17 ar
    19   20   19 1
    20   21   19 ar
    21   22   21 1
    22   23   14 ar
    23   24   23 1
    24   25    3 1
    25   26   25 1
    26   27   25 1
    27   28   25 1
    28   29   28 ar
    29   30   29 1
    30   31   29 ar
    31   32   31 1
    32   33   31 ar
    33   34   33 1
    34   35   33 ar
    35   36   35 1
    36   37   28 ar
    37   38   37 1
    38    8   11 1
    39   21   23 ar
    40   35   37 ar
@<TRIPOS>SUBSTRUCTURE
     1 RES1 1

@<TRIPOS>CRYSIN
   7.4450   12.4650   16.0950  90.0000  90.0000  90.0000  19 1

