# MOL2 file generated by ConQuest
# Please check atom types

@<TRIPOS>MOLECULE
BAKMIL
    43    47     1
SMALL
NO_CHARGES
****
Generated from CSD

@<TRIPOS>ATOM
      1 C1        11.5744    0.5928   12.4254 C.3       1 RES1    0.0000
      2 H1        12.2679    0.5886   13.0574 H         1 RES1    0.0000
      3 C2        12.1069    0.6361   11.0042 C.3       1 RES1    0.0000
      4 H2        12.5280    1.5077   10.7922 H         1 RES1    0.0000
      5 O1        13.0624   -0.4368   10.7445 O.3       1 RES1    0.0000
      6 N1        12.5616   -1.3043    9.7447 N.2       1 RES1    0.0000
      7 C3        11.3821   -0.9284    9.4100 C.2       1 RES1    0.0000
      8 C4        10.8782    0.2654   10.1573 C.3       1 RES1    0.0000
      9 H3        10.6350    0.9604    9.5513 H         1 RES1    0.0000
     10 C5         9.8079   -0.0062   11.2423 C.3       1 RES1    0.0000
     11 H4         9.0459   -0.5370   10.9364 H         1 RES1    0.0000
     12 N2         9.3786    1.2516   11.8800 N.3       1 RES1    0.0000
     13 C6        10.6049    1.7535   12.5538 C.3       1 RES1    0.0000
     14 H5        10.3701    2.0138   13.4758 H         1 RES1    0.0000
     15 H6        10.9335    2.5404   12.0474 H         1 RES1    0.0000
     16 C7        10.6336   -0.6083   12.3648 C.3       1 RES1    0.0000
     17 H7        10.1090   -0.7229   13.1872 H         1 RES1    0.0000
     18 H8        11.0944   -1.4251   12.1195 H         1 RES1    0.0000
     19 C8        10.6444   -1.6585    8.3755 C.ar      1 RES1    0.0000
     20 C9        11.1975   -2.7738    7.7334 C.ar      1 RES1    0.0000
     21 H9        12.0772   -3.0878    8.0220 H         1 RES1    0.0000
     22 C10       10.4918   -3.4379    6.7682 C.ar      1 RES1    0.0000
     23 H10       10.9361   -4.1928    6.3195 H         1 RES1    0.0000
     24 C11        9.2331   -3.0330    6.4205 C.ar      1 RES1    0.0000
     25 H11        8.7100   -3.5422    5.7135 H         1 RES1    0.0000
     26 C12        8.6692   -1.9477    7.0365 C.ar      1 RES1    0.0000
     27 H12        7.7344   -1.6833    6.8100 H         1 RES1    0.0000
     28 C13        9.3789   -1.2537    8.0075 C.ar      1 RES1    0.0000
     29 H13        8.9775   -0.4750    8.4260 H         1 RES1    0.0000
     30 C14        8.6945    2.2213   11.0504 C.3       1 RES1    0.0000
     31 H14        9.3127    2.5611   10.3160 H         1 RES1    0.0000
     32 H15        8.4784    2.9742   11.6867 H         1 RES1    0.0000
     33 C15        7.4353    1.6585   10.4560 C.ar      1 RES1    0.0000
     34 C16        7.2178    1.6616    9.0911 C.ar      1 RES1    0.0000
     35 H16        7.8795    2.0138    8.5414 H         1 RES1    0.0000
     36 C17        6.0446    1.1298    8.5573 C.ar      1 RES1    0.0000
     37 H17        5.9189    1.1360    7.6036 H         1 RES1    0.0000
     38 C18        5.0978    0.6072    9.3854 C.ar      1 RES1    0.0000
     39 H18        4.2193    0.2169    9.0175 H         1 RES1    0.0000
     40 C19        5.2978    0.6145   10.7258 C.ar      1 RES1    0.0000
     41 H19        4.5592    0.2375   11.3116 H         1 RES1    0.0000
     42 C20        6.4458    1.1174   11.2611 C.ar      1 RES1    0.0000
     43 H20        6.5865    1.1153   12.2205 H         1 RES1    0.0000
@<TRIPOS>BOND
     1    1    2 1
     2    3    1 1
     3    4    3 1
     4    5    3 1
     5    6    5 1
     6    7    6 2
     7    8    3 1
     8    9    8 1
     9   10    8 1
    10   11   10 1
    11   12   10 1
    12   13    1 1
    13   14   13 1
    14   15   13 1
    15   16    1 1
    16   17   16 1
    17   18   16 1
    18   19    7 1
    19   20   19 ar
    20   21   20 1
    21   22   20 ar
    22   23   22 1
    23   24   22 ar
    24   25   24 1
    25   26   24 ar
    26   27   26 1
    27   28   19 ar
    28   29   28 1
    29   30   12 1
    30   31   30 1
    31   32   30 1
    32   33   30 1
    33   34   33 ar
    34   35   34 1
    35   36   34 ar
    36   37   36 1
    37   38   36 ar
    38   39   38 1
    39   40   38 ar
    40   41   40 1
    41   42   33 ar
    42   43   42 1
    43    7    8 1
    44   10   16 1
    45   12   13 1
    46   26   28 ar
    47   40   42 ar
@<TRIPOS>SUBSTRUCTURE
     1 RES1 1

@<TRIPOS>CRYSIN
  10.9310   10.3270   14.4410  90.0000  92.4300  90.0000   4 1

