# MOL2 file generated by ConQuest
# Please check atom types

@<TRIPOS>MOLECULE
BAKXOB
    31    33     1
SMALL
NO_CHARGES
****
Generated from CSD

@<TRIPOS>ATOM
      1 C1         7.2040    2.1164   12.5965 C.ar      1 RES1    0.0000
      2 C2         6.8564    1.7157   11.2052 C.ar      1 RES1    0.0000
      3 O1         4.9259    4.4577   13.9485 O.2       1 RES1    0.0000
      4 C3         7.8503    0.8323   10.7745 C.ar      1 RES1    0.0000
      5 C4         8.8312    0.5392   11.8553 C.3       1 RES1    0.0000
      6 H1         9.7329    0.7769   11.5882 H         1 RES1    0.0000
      7 H2         8.8099   -0.3975   12.1058 H         1 RES1    0.0000
      8 C5         5.8207    1.9971   10.2963 C.ar      1 RES1    0.0000
      9 C6         8.3383    2.4265   15.1017 C.ar      1 RES1    0.0000
     10 N1         8.9182    2.6194   16.4289 N.pl3     1 RES1    0.0000
     11 C7         8.3439    1.4163   12.9713 C.ar      1 RES1    0.0000
     12 C8         6.8143    0.6788    8.6627 C.ar      1 RES1    0.0000
     13 C9         8.9159    1.5708   14.2073 C.ar      1 RES1    0.0000
     14 H3         9.6860    1.1008   14.4309 H         1 RES1    0.0000
     15 C10        5.8177    1.4866    9.0478 C.ar      1 RES1    0.0000
     16 H4         5.1293    1.6933    8.4577 H         1 RES1    0.0000
     17 O2         8.4430    3.4410   17.1722 O.2       1 RES1    0.0000
     18 C11        7.8418    0.3229    9.4681 C.ar      1 RES1    0.0000
     19 H5         8.5185   -0.2398    9.1679 H         1 RES1    0.0000
     20 C12        7.2161    3.1842   14.7539 C.ar      1 RES1    0.0000
     21 H6         6.8371    3.7767   15.3626 H         1 RES1    0.0000
     22 O3         4.1832    2.4489   11.9423 O.2       1 RES1    0.0000
     23 O4         5.8866    4.6058   11.9526 O.2       1 RES1    0.0000
     24 N2         4.6300    2.7302   10.6793 N.pl3     1 RES1    0.0000
     25 N3         5.7517    4.1444   13.1224 N.pl3     1 RES1    0.0000
     26 C13        6.6983    3.0414   13.5324 C.ar      1 RES1    0.0000
     27 O5         3.9246    3.2812    9.9733 O.2       1 RES1    0.0000
     28 N4         6.8502    0.1449    7.2879 N.pl3     1 RES1    0.0000
     29 O6         7.8417   -0.3250    6.8407 O.2       1 RES1    0.0000
     30 O7         9.8368    1.9289   16.7374 O.2       1 RES1    0.0000
     31 O8         5.7846    0.1854    6.6958 O.2       1 RES1    0.0000
@<TRIPOS>BOND
     1    1    2 1
     2    2    4 ar
     3    3   25 2
     4    4    5 1
     5    5    6 1
     6    7    5 1
     7    8    2 ar
     8    9   10 1
     9   10   17 2
    10   11    1 ar
    11   12   15 ar
    12   13    9 ar
    13   14   13 1
    14   15    8 ar
    15   16   15 1
    16   18    4 ar
    17   19   18 1
    18   20    9 ar
    19   21   20 1
    20   22   24 2
    21   23   25 2
    22   24    8 1
    23   25   26 1
    24   26    1 ar
    25   27   24 2
    26   28   12 1
    27   29   28 2
    28   30   10 2
    29   31   28 2
    30    5   11 1
    31   11   13 ar
    32   12   18 ar
    33   20   26 ar
@<TRIPOS>SUBSTRUCTURE
     1 RES1 1

@<TRIPOS>CRYSIN
  12.2952   10.6567   20.7630  90.0000  94.3080  90.0000  15 1

