# MOL2 file generated by ConQuest
# Please check atom types

@<TRIPOS>MOLECULE
BALGEA
    61    63     1
SMALL
NO_CHARGES
****
Generated from CSD

@<TRIPOS>ATOM
      1 O1         2.0964   -0.3083   11.8941 O.2       1 RES1    0.0000
      2 O2         2.6150    0.7655   13.6740 O.2       1 RES1    0.0000
      3 O3         5.7184    4.3411   13.3339 O.2       1 RES1    0.0000
      4 O4         7.2069    4.4162   11.7807 O.2       1 RES1    0.0000
      5 O5         9.8522    2.9955    6.0161 O.3       1 RES1    0.0000
      6 O6        10.1576    2.3039    3.4113 O.2       1 RES1    0.0000
      7 O7        11.4617    0.5268    3.1820 O.3       1 RES1    0.0000
      8 N1         2.7958    0.4672   12.5000 N.pl3     1 RES1    0.0000
      9 N2         6.2173    3.8985   12.3084 N.pl3     1 RES1    0.0000
     10 N3         7.3874    2.4885   10.0216 N.3       1 RES1    0.0000
     11 N4         7.9530    1.6942    9.0430 N.2       1 RES1    0.0000
     12 C1         3.9301    1.0776   11.8120 C.ar      1 RES1    0.0000
     13 C2         4.5229    2.1756   12.3384 C.ar      1 RES1    0.0000
     14 C3         5.6503    2.7053   11.7103 C.ar      1 RES1    0.0000
     15 C4         6.2180    2.0900   10.5845 C.ar      1 RES1    0.0000
     16 C5         5.5270    0.9855   10.0477 C.ar      1 RES1    0.0000
     17 C6         4.4048    0.4817   10.6432 C.ar      1 RES1    0.0000
     18 C7         9.0915    2.0591    8.5740 C.2       1 RES1    0.0000
     19 C8         9.8418    3.2864    9.0053 C.3       1 RES1    0.0000
     20 C9         9.6321    1.1499    7.5133 C.3       1 RES1    0.0000
     21 C10        9.3784    1.6302    6.0630 C.3       1 RES1    0.0000
     22 C11       10.3462    0.7282    5.2395 C.3       1 RES1    0.0000
     23 C12       11.6194    0.7576    6.1243 C.3       1 RES1    0.0000
     24 C13       11.1327    0.8299    7.5615 C.3       1 RES1    0.0000
     25 C14        7.8980    1.6480    5.6669 C.3       1 RES1    0.0000
     26 C15        7.1643    0.3225    5.5939 C.3       1 RES1    0.0000
     27 C16        7.4871   -0.4601    4.3534 C.2       1 RES1    0.0000
     28 C17        8.7103   -0.9191    4.1319 C.2       1 RES1    0.0000
     29 C18        9.8540   -0.7267    5.0779 C.3       1 RES1    0.0000
     30 C19        6.3724   -0.6426    3.3410 C.3       1 RES1    0.0000
     31 C20       10.6326    1.2896    3.8531 C.2       1 RES1    0.0000
     32 C21       11.7748    0.9209    1.8099 C.3       1 RES1    0.0000
     33 C22       11.0377    0.1328    0.8808 C.3       1 RES1    0.0000
     34 H1         4.1752    2.5803   13.1241 H         1 RES1    0.0000
     35 H2         5.8496    0.5805    9.2502 H         1 RES1    0.0000
     36 H3         3.9540   -0.2652   10.2653 H         1 RES1    0.0000
     37 H4         7.7667    3.2196   10.2692 H         1 RES1    0.0000
     38 H5        10.0118    3.2429    9.9382 H         1 RES1    0.0000
     39 H6        10.6666    3.3342    8.5349 H         1 RES1    0.0000
     40 H7         9.3237    4.0580    8.8124 H         1 RES1    0.0000
     41 H8         9.1757    0.3224    7.6084 H         1 RES1    0.0000
     42 H9        12.1326   -0.0306    5.9887 H         1 RES1    0.0000
     43 H10       12.1482    1.5189    5.9158 H         1 RES1    0.0000
     44 H11       11.5970    1.5140    8.0293 H         1 RES1    0.0000
     45 H12       11.2750   -0.0031    7.9967 H         1 RES1    0.0000
     46 H13        7.4424    2.1886    6.3015 H         1 RES1    0.0000
     47 H14        7.8403    2.0504    4.8082 H         1 RES1    0.0000
     48 H15        7.4034   -0.1983    6.3523 H         1 RES1    0.0000
     49 H16        6.2304    0.4936    5.6096 H         1 RES1    0.0000
     50 H17        8.8699   -1.3965    3.3266 H         1 RES1    0.0000
     51 H18       10.5832   -1.2492    4.7652 H         1 RES1    0.0000
     52 H19        9.5830   -1.0407    5.9327 H         1 RES1    0.0000
     53 H20       11.5510    1.8358    1.6900 H         1 RES1    0.0000
     54 H21       12.7041    0.7985    1.6549 H         1 RES1    0.0000
     55 H22        5.5782   -0.2347    3.6667 H         1 RES1    0.0000
     56 H23        6.6220   -0.2359    2.5188 H         1 RES1    0.0000
     57 H24        6.2186   -1.5694    3.2015 H         1 RES1    0.0000
     58 H25       10.1080    0.2713    1.0151 H         1 RES1    0.0000
     59 H26       11.2711    0.3870   -0.0052 H         1 RES1    0.0000
     60 H27       11.2445   -0.7853    1.0098 H         1 RES1    0.0000
     61 H28       10.8204    3.1286    5.8636 H         1 RES1    0.0000
@<TRIPOS>BOND
     1    1    8 2
     2    2    8 2
     3    3    9 2
     4    4    9 2
     5    5   21 1
     6    6   31 2
     7    7   31 1
     8    8   12 1
     9    9   14 1
    10   10   11 1
    11   11   18 2
    12   12   13 ar
    13   13   14 ar
    14   14   15 ar
    15   15   10 1
    16   16   15 ar
    17   17   12 ar
    18   18   19 1
    19   19   38 1
    20   20   18 1
    21   21   20 1
    22   22   21 1
    23   23   22 1
    24   24   20 1
    25   25   21 1
    26   26   25 1
    27   27   26 1
    28   28   27 2
    29   29   22 1
    30   30   27 1
    31   31   22 1
    32   32    7 1
    33   33   32 1
    34   34   13 1
    35   35   16 1
    36   36   17 1
    37   37   10 1
    38   39   19 1
    39   40   19 1
    40   41   20 1
    41   42   23 1
    42   43   23 1
    43   44   24 1
    44   45   24 1
    45   46   25 1
    46   47   25 1
    47   48   26 1
    48   49   26 1
    49   50   28 1
    50   51   29 1
    51   52   29 1
    52   53   32 1
    53   54   32 1
    54   55   30 1
    55   56   30 1
    56   57   30 1
    57   58   33 1
    58   59   33 1
    59   60   33 1
    60   61    5 1
    61   16   17 ar
    62   23   24 1
    63   28   29 1
@<TRIPOS>SUBSTRUCTURE
     1 RES1 1

@<TRIPOS>CRYSIN
   8.7460   10.0820   13.5470 102.5900  98.4000  94.8900   2 1

