# MOL2 file generated by ConQuest
# Please check atom types

@<TRIPOS>MOLECULE
BALGIE
    61    63     1
SMALL
NO_CHARGES
****
Generated from CSD

@<TRIPOS>ATOM
      1 O1        -1.3939   20.3724    8.3678 O.2       1 RES1    0.0000
      2 O2         0.6557   20.9415    8.7253 O.2       1 RES1    0.0000
      3 O3         4.1673   18.4049    6.9586 O.2       1 RES1    0.0000
      4 O4         3.8649   16.6491    5.7270 O.2       1 RES1    0.0000
      5 O5         0.0569   11.8910    4.9928 O.3       1 RES1    0.0000
      6 O6        -3.0019   12.6724    2.1097 O.2       1 RES1    0.0000
      7 O7        -3.0699   10.4773    1.7435 O.3       1 RES1    0.0000
      8 N1        -0.1954   20.2544    8.1694 N.pl3     1 RES1    0.0000
      9 N2         3.4330   17.6311    6.3532 N.pl3     1 RES1    0.0000
     10 N3         1.4529   16.0557    4.8849 N.3       1 RES1    0.0000
     11 N4         0.4731   15.3166    4.2227 N.2       1 RES1    0.0000
     12 C1         0.2608   19.2203    7.2329 C.ar      1 RES1    0.0000
     13 C2         1.5886   18.9254    7.1786 C.ar      1 RES1    0.0000
     14 C3         2.0068   17.9017    6.3580 C.ar      1 RES1    0.0000
     15 C4         1.0808   17.1279    5.6158 C.ar      1 RES1    0.0000
     16 C5        -0.2656   17.5131    5.6830 C.ar      1 RES1    0.0000
     17 C6        -0.6699   18.5298    6.4852 C.ar      1 RES1    0.0000
     18 C7         0.8434   14.1854    3.7540 C.2       1 RES1    0.0000
     19 C8         2.2463   13.6336    3.8716 C.3       1 RES1    0.0000
     20 C9        -0.2501   13.3838    3.0974 C.3       1 RES1    0.0000
     21 C10       -0.9515   12.4330    4.1179 C.3       1 RES1    0.0000
     22 C11       -1.3919   11.2150    3.2430 C.3       1 RES1    0.0000
     23 C12       -0.1597   11.0485    2.3313 C.3       1 RES1    0.0000
     24 C13        0.1808   12.4851    1.9162 C.3       1 RES1    0.0000
     25 C14       -2.0478   13.0958    4.9273 C.3       1 RES1    0.0000
     26 C15       -2.6612   12.2283    6.0413 C.3       1 RES1    0.0000
     27 C16       -3.4296   10.9930    5.6566 C.2       1 RES1    0.0000
     28 C17       -3.0010   10.0422    4.8273 C.2       1 RES1    0.0000
     29 C18       -1.7141    9.9728    4.0723 C.3       1 RES1    0.0000
     30 C19       -4.7593   10.8438    6.3556 C.3       1 RES1    0.0000
     31 C20       -2.5741   11.5759    2.3313 C.2       1 RES1    0.0000
     32 C21       -4.1933   10.7119    0.8397 C.3       1 RES1    0.0000
     33 C22       -4.6481    9.5043    0.2639 C.3       1 RES1    0.0000
     34 H1         2.2164   19.4147    7.6976 H         1 RES1    0.0000
     35 H2        -0.9109   17.0516    5.1552 H         1 RES1    0.0000
     36 H3        -1.5926   18.7658    6.5284 H         1 RES1    0.0000
     37 H4         2.2419   15.8440    4.8297 H         1 RES1    0.0000
     38 H5         2.2880   12.7800    3.4485 H         1 RES1    0.0000
     39 H6         2.8566   14.2235    3.4525 H         1 RES1    0.0000
     40 H7         2.4724   13.5365    4.7905 H         1 RES1    0.0000
     41 H8        -0.9032   13.9980    2.7743 H         1 RES1    0.0000
     42 H9         0.5644   10.6564    2.8071 H         1 RES1    0.0000
     43 H10       -0.3657   10.5210    1.5731 H         1 RES1    0.0000
     44 H11       -0.2946   12.7245    1.1292 H         1 RES1    0.0000
     45 H12        1.1145   12.5753    1.7602 H         1 RES1    0.0000
     46 H13       -1.6830   13.8765    5.3287 H         1 RES1    0.0000
     47 H14       -2.7437   13.3456    4.3306 H         1 RES1    0.0000
     48 H15       -1.9478   11.9542    6.6027 H         1 RES1    0.0000
     49 H16       -3.2524   12.7870    6.5332 H         1 RES1    0.0000
     50 H17       -1.7567    9.2267    3.4853 H         1 RES1    0.0000
     51 H18       -1.0124    9.8444    4.6985 H         1 RES1    0.0000
     52 H19       -4.9091   11.1005    1.3260 H         1 RES1    0.0000
     53 H20       -3.9197   11.2983    0.1480 H         1 RES1    0.0000
     54 H21       -3.5977    9.3135    4.6977 H         1 RES1    0.0000
     55 H22       -4.9233   11.6002    6.9042 H         1 RES1    0.0000
     56 H23       -5.4553   10.7744    5.7046 H         1 RES1    0.0000
     57 H24       -4.7541   10.0595    6.8890 H         1 RES1    0.0000
     58 H25       -5.3730    9.6778   -0.3215 H         1 RES1    0.0000
     59 H26       -3.9341    9.1053   -0.2359 H         1 RES1    0.0000
     60 H27       -4.9215    8.9040    0.9445 H         1 RES1    0.0000
     61 H28        0.1402   12.5545    5.8190 H         1 RES1    0.0000
@<TRIPOS>BOND
     1    1    8 2
     2    2    8 2
     3    3    9 2
     4    4    9 2
     5    5   21 1
     6    6   31 2
     7    7   31 1
     8    8   12 1
     9    9   14 1
    10   10   11 1
    11   11   18 2
    12   12   13 ar
    13   13   14 ar
    14   14   15 ar
    15   15   10 1
    16   16   15 ar
    17   17   12 ar
    18   18   19 1
    19   19   38 1
    20   20   18 1
    21   21   20 1
    22   22   21 1
    23   23   22 1
    24   24   20 1
    25   25   21 1
    26   26   25 1
    27   27   26 1
    28   28   27 2
    29   29   22 1
    30   30   27 1
    31   31   22 1
    32   32    7 1
    33   33   32 1
    34   34   13 1
    35   35   16 1
    36   36   17 1
    37   37   10 1
    38   39   19 1
    39   40   19 1
    40   41   20 1
    41   42   23 1
    42   43   23 1
    43   44   24 1
    44   45   24 1
    45   46   25 1
    46   47   25 1
    47   48   26 1
    48   49   26 1
    49   50   29 1
    50   51   29 1
    51   52   32 1
    52   53   32 1
    53   54   28 1
    54   55   30 1
    55   56   30 1
    56   57   30 1
    57   58   33 1
    58   59   33 1
    59   60   33 1
    60   61    5 1
    61   16   17 ar
    62   23   24 1
    63   28   29 1
@<TRIPOS>SUBSTRUCTURE
     1 RES1 1

@<TRIPOS>CRYSIN
   8.0000   34.7000    8.7770  90.0000 114.3300  90.0000  14 1

