# MOL2 file generated by ConQuest
# Please check atom types

@<TRIPOS>MOLECULE
BALVAO
    23    23     1
SMALL
USER_CHARGES
****
Generated from CSD

@<TRIPOS>ATOM
      1 C1         6.4083    0.8217    2.6116 C.2       1 RES1    0.0000
      2 C2         5.4346    0.5262    1.6146 C.2       1 RES1    0.0000
      3 C3         6.4175    1.9168    3.5681 C.2       1 RES1    0.0000
      4 H1         7.1372    2.0333    4.1771 H         1 RES1    0.0000
      5 C4         4.3957    4.5969    4.4706 C.2       1 RES1    0.0000
      6 C5         4.1905    1.2053    1.1812 C.3       1 RES1    0.0000
      7 H2         3.8222    0.7445    0.3978 H         1 RES1    0.0000
      8 H3         4.3907    2.1362    0.9467 H         1 RES1    0.0000
      9 H4         3.5356    1.1855    1.9093 H         1 RES1    0.0000
     10 N1         7.3798   -0.0699    2.6199 N.2       1 RES1    0.0000
     11 N2         5.8363   -0.5819    1.0300 N.pl3     1 RES1    1.0000
     12 N3         5.4179    2.7198    3.5573 N.2       1 RES1    0.0000
     13 N4         5.4416    3.7524    4.4535 N.3       1 RES1    0.0000
     14 H5         6.1203    3.8604    5.0022 H         1 RES1    0.0000
     15 N5         4.5550    5.5704    5.3912 N.2       1 RES1    0.0000
     16 N6         3.3975    4.3815    3.6354 N.3       1 RES1    0.0000
     17 H6         3.4265    3.6967    3.0831 H         1 RES1    0.0000
     18 H7         2.7033    4.9220    3.6307 H         1 RES1    0.0000
     19 N7         3.6745    6.6030    5.4055 N.pl3     1 RES1    0.0000
     20 O1         7.0819   -0.9900    1.6386 O.3       1 RES1    0.0000
     21 O2         3.8164    7.3900    6.3617 O.2       1 RES1    0.0000
     22 O3         2.8330    6.7956    4.5179 O.2       1 RES1    0.0000
     23 O4         5.3935   -1.3025    0.1187 O.2       1 RES1   -1.0000
@<TRIPOS>BOND
     1    1    2 1
     2    2    6 1
     3    3    1 1
     4    4    3 1
     5    5   13 1
     6    6    7 1
     7    8    6 1
     8    9    6 1
     9   10    1 2
    10   11    2 2
    11   12    3 2
    12   13   12 1
    13   14   13 1
    14   15    5 2
    15   16    5 1
    16   17   16 1
    17   18   16 1
    18   19   15 1
    19   20   10 1
    20   21   19 2
    21   22   19 2
    22   23   11 1
    23   11   20 1
@<TRIPOS>SUBSTRUCTURE
     1 RES1 1

@<TRIPOS>CRYSIN
   6.5979    5.6829   12.3656  90.0000  96.8060  90.0000   4 1

