# MOL2 file generated by ConQuest
# Please check atom types

@<TRIPOS>MOLECULE
BALYAR
    35    36     1
SMALL
NO_CHARGES
****
Generated from CSD

@<TRIPOS>ATOM
      1 O1         1.8619    8.8194    8.1948 O.3       1 RES1    0.0000
      2 H1         1.7268    8.5394    7.3516 H         1 RES1    0.0000
      3 O2         3.3042    5.6392   10.2368 O.3       1 RES1    0.0000
      4 O3         3.4918    4.3857    8.4567 O.2       1 RES1    0.0000
      5 O4        -0.1007   13.1080    2.5474 O.2       1 RES1    0.0000
      6 O5        -0.0691   11.9534    0.7291 O.2       1 RES1    0.0000
      7 N1         0.0659   12.0589    1.9479 N.pl3     1 RES1    0.0000
      8 N2         1.7422    7.5074    4.7323 N.pl3     1 RES1    0.0000
      9 H2         1.4670    6.7746    4.3896 H         1 RES1    0.0000
     10 N3         1.9389    7.5029    6.0991 N.2       1 RES1    0.0000
     11 C1         0.4603   10.8801    2.7100 C.ar      1 RES1    0.0000
     12 C2         0.8123   11.0063    4.0309 C.ar      1 RES1    0.0000
     13 H3         0.7606   11.8356    4.4489 H         1 RES1    0.0000
     14 C3         1.2444    9.9027    4.7397 C.ar      1 RES1    0.0000
     15 H4         1.5067    9.9915    5.6274 H         1 RES1    0.0000
     16 C4         1.2848    8.6519    4.1184 C.ar      1 RES1    0.0000
     17 C5         0.8867    8.5466    2.7767 C.ar      1 RES1    0.0000
     18 H5         0.8925    7.7157    2.3590 H         1 RES1    0.0000
     19 C6         0.4919    9.6496    2.0796 C.ar      1 RES1    0.0000
     20 H6         0.2456    9.5749    1.1860 H         1 RES1    0.0000
     21 C7         3.2131    5.4201    5.8549 C.3       1 RES1    0.0000
     22 H7         2.6356    4.6533    5.8491 H         1 RES1    0.0000
     23 H8         4.0563    5.1826    6.2479 H         1 RES1    0.0000
     24 H9         3.3537    5.7217    4.9543 H         1 RES1    0.0000
     25 C8         2.5797    6.5170    6.6561 C.2       1 RES1    0.0000
     26 C9         3.1793    5.4891    8.8606 C.2       1 RES1    0.0000
     27 C10        2.7040    6.6012    8.1078 C.2       1 RES1    0.0000
     28 C11        2.3439    7.7707    8.8049 C.2       1 RES1    0.0000
     29 C12        2.5304    7.8415   10.2159 C.2       1 RES1    0.0000
     30 H10        2.3183    8.6235   10.6722 H         1 RES1    0.0000
     31 C13        3.0047    6.7991   10.8804 C.2       1 RES1    0.0000
     32 C14        3.2755    6.7018   12.3445 C.3       1 RES1    0.0000
     33 H11        2.7772    5.9692   12.7141 H         1 RES1    0.0000
     34 H12        3.0097    7.5183   12.7740 H         1 RES1    0.0000
     35 H13        4.2133    6.5555   12.4876 H         1 RES1    0.0000
@<TRIPOS>BOND
     1    1    2 1
     2    3   26 1
     3    4   26 2
     4    5    7 2
     5    6    7 2
     6    7   11 1
     7    8    9 1
     8   10    8 1
     9   11   12 ar
    10   12   13 1
    11   14   12 ar
    12   15   14 1
    13   16    8 1
    14   17   16 ar
    15   18   17 1
    16   19   11 ar
    17   20   19 1
    18   21   22 1
    19   23   21 1
    20   24   21 1
    21   25   10 2
    22   26   27 1
    23   27   25 1
    24   28    1 1
    25   29   28 1
    26   30   29 1
    27   31    3 1
    28   32   31 1
    29   33   32 1
    30   34   32 1
    31   35   32 1
    32   14   16 ar
    33   17   19 ar
    34   21   25 1
    35   27   28 2
    36   29   31 2
@<TRIPOS>SUBSTRUCTURE
     1 RES1 1

@<TRIPOS>CRYSIN
   6.9633   19.5008   10.2031  90.0000  95.1960  90.0000 231 1

