# MOL2 file generated by ConQuest
# Please check atom types

@<TRIPOS>MOLECULE
BAMCUP
    43    44     1
SMALL
NO_CHARGES
****
Generated from CSD

@<TRIPOS>ATOM
      1 C1         3.0438    5.2089    0.3767 C.3       1 RES1    0.0000
      2 H1         3.5555    5.2936   -0.4541 H         1 RES1    0.0000
      3 C2         2.8879    6.5810    1.0110 C.3       1 RES1    0.0000
      4 H2         1.9741    6.7317    1.2984 H         1 RES1    0.0000
      5 H3         3.1468    7.2830    0.3928 H         1 RES1    0.0000
      6 C3         3.8374    6.5213    2.2014 C.3       1 RES1    0.0000
      7 H4         4.7114    6.8714    1.9701 H         1 RES1    0.0000
      8 H5         3.4847    7.0201    2.9548 H         1 RES1    0.0000
      9 C4         3.9062    5.0814    2.5075 C.3       1 RES1    0.0000
     10 H6         4.7544    4.8674    2.9259 H         1 RES1    0.0000
     11 H7         3.1912    4.8312    3.1129 H         1 RES1    0.0000
     12 C5         1.7102    4.5631    0.0774 C.3       1 RES1    0.0000
     13 H8         1.1465    4.6244    0.8639 H         1 RES1    0.0000
     14 H9         1.2765    5.0524   -0.6386 H         1 RES1    0.0000
     15 C6         2.1693    2.7714   -1.5526 C.2       1 RES1    0.0000
     16 C7         2.0329    0.4592   -0.7857 C.3       1 RES1    0.0000
     17 H10        1.0941    0.2140   -0.7814 H         1 RES1    0.0000
     18 H11        2.5492   -0.3355   -0.9931 H         1 RES1    0.0000
     19 C8         1.6707    2.1631    0.7780 C.3       1 RES1    0.0000
     20 H12        1.9743    2.5552    1.6122 H         1 RES1    0.0000
     21 H13        0.7301    1.9495    0.8758 H         1 RES1    0.0000
     22 C9         3.8581    1.1362    0.6199 C.3       1 RES1    0.0000
     23 H14        4.1028    1.9314    0.1199 H         1 RES1    0.0000
     24 H15        4.2995    0.3790    0.2032 H         1 RES1    0.0000
     25 C10        4.3596    1.2747    2.0195 C.2       1 RES1    0.0000
     26 C11        6.3691    1.4949    3.2719 C.3       1 RES1    0.0000
     27 H16        6.0809    0.8179    3.9046 H         1 RES1    0.0000
     28 H17        6.1603    2.3684    3.6384 H         1 RES1    0.0000
     29 C12        7.8255    1.3783    3.0262 C.3       1 RES1    0.0000
     30 H18        8.0113    0.5368    2.6045 H         1 RES1    0.0000
     31 H19        8.2955    1.4290    3.8620 H         1 RES1    0.0000
     32 H20        8.1112    2.0928    2.4540 H         1 RES1    0.0000
     33 N1         1.8331    3.1549   -0.3138 N.3       1 RES1    0.0000
     34 N2         2.2648    1.4693   -1.8128 N.3       1 RES1    0.0000
     35 H21        2.4685    1.2169   -2.6087 H         1 RES1    0.0000
     36 N3         2.4090    0.9474    0.5297 N.3       1 RES1    0.0000
     37 N4         2.3860    3.8035   -2.4157 N.2       1 RES1    0.0000
     38 N5         2.7107    3.5191   -3.6903 N.pl3     1 RES1    0.0000
     39 O1         3.7791    4.4032    1.3052 O.3       1 RES1    0.0000
     40 O2         2.8342    4.4795   -4.4360 O.2       1 RES1    0.0000
     41 O3         2.8768    2.3735   -4.1248 O.2       1 RES1    0.0000
     42 O4         3.7011    1.3458    3.0083 O.2       1 RES1    0.0000
     43 O5         5.6929    1.3101    1.9965 O.3       1 RES1    0.0000
@<TRIPOS>BOND
     1    1    2 1
     2    3    1 1
     3    4    3 1
     4    5    3 1
     5    6    3 1
     6    7    6 1
     7    8    6 1
     8    9    6 1
     9   10    9 1
    10   11    9 1
    11   12    1 1
    12   13   12 1
    13   14   12 1
    14   15   33 1
    15   16   17 1
    16   18   16 1
    17   19   20 1
    18   21   19 1
    19   22   23 1
    20   24   22 1
    21   25   22 1
    22   26   27 1
    23   28   26 1
    24   29   26 1
    25   30   29 1
    26   31   29 1
    27   32   29 1
    28   33   12 1
    29   34   15 1
    30   35   34 1
    31   36   16 1
    32   37   15 2
    33   38   37 1
    34   39    1 1
    35   40   38 2
    36   41   38 2
    37   42   25 2
    38   43   25 1
    39    9   39 1
    40   16   34 1
    41   19   33 1
    42   19   36 1
    43   22   36 1
    44   26   43 1
@<TRIPOS>SUBSTRUCTURE
     1 RES1 1

@<TRIPOS>CRYSIN
  20.1550   18.1350    8.8200  90.0000 105.4090  90.0000  15 1

