# MOL2 file generated by ConQuest
# Please check atom types

@<TRIPOS>MOLECULE
BAMHOP
    45    47     1
SMALL
NO_CHARGES
****
Generated from CSD

@<TRIPOS>ATOM
      1 O1         6.9210    4.8628    3.0606 O.2       1 RES1    0.0000
      2 O2         9.1132    1.4264    5.1637 O.2       1 RES1    0.0000
      3 O3         9.3159    3.3536    3.0621 O.3       1 RES1    0.0000
      4 N1         8.3248    3.2857    4.0278 N.am      1 RES1    0.0000
      5 C1         8.2464    2.2421    4.9585 C.2       1 RES1    0.0000
      6 C2         6.9138    2.4211    5.5954 C.ar      1 RES1    0.0000
      7 C3         6.2494    3.4557    4.9451 C.ar      1 RES1    0.0000
      8 C4         7.1327    4.0053    3.8838 C.2       1 RES1    0.0000
      9 C5         4.9720    3.8247    5.3084 C.ar      1 RES1    0.0000
     10 H1         4.5289    4.5195    4.8781 H         1 RES1    0.0000
     11 C6         4.3711    3.1179    6.3443 C.ar      1 RES1    0.0000
     12 H2         3.5065    3.3366    6.6061 H         1 RES1    0.0000
     13 C7         5.0415    2.0887    6.9948 C.ar      1 RES1    0.0000
     14 H3         4.6171    1.6331    7.6857 H         1 RES1    0.0000
     15 C8         6.3372    1.7246    6.6323 C.ar      1 RES1    0.0000
     16 H4         6.7910    1.0420    7.0714 H         1 RES1    0.0000
     17 C9        10.5972    3.7897    3.6358 C.3       1 RES1    0.0000
     18 H5        10.8944    3.1280    4.2951 H         1 RES1    0.0000
     19 C10       10.5012    5.1368    4.3017 C.ar      1 RES1    0.0000
     20 C11       11.0932    5.3219    5.5456 C.ar      1 RES1    0.0000
     21 H6        11.4907    4.6000    5.9760 H         1 RES1    0.0000
     22 C12       11.0981    6.5707    6.1542 C.ar      1 RES1    0.0000
     23 H7        11.5018    6.6823    6.9851 H         1 RES1    0.0000
     24 C13       10.5029    7.6457    5.5248 C.ar      1 RES1    0.0000
     25 H8        10.5065    8.4837    5.9277 H         1 RES1    0.0000
     26 C14        9.9023    7.4701    4.2958 C.ar      1 RES1    0.0000
     27 H9         9.4941    8.1918    3.8755 H         1 RES1    0.0000
     28 C15        9.9016    6.2279    3.6793 C.ar      1 RES1    0.0000
     29 H10        9.4990    6.1233    2.8469 H         1 RES1    0.0000
     30 C16       11.5599    3.7764    2.4448 C.3       1 RES1    0.0000
     31 H11       12.1661    4.5277    2.5384 H         1 RES1    0.0000
     32 H12       11.0434    3.9212    1.6365 H         1 RES1    0.0000
     33 C17       12.3986    2.5040    2.2550 C.3       1 RES1    0.0000
     34 C18       13.2304    2.6888    0.9812 C.3       1 RES1    0.0000
     35 H13       12.6440    2.7849    0.2274 H         1 RES1    0.0000
     36 H14       13.7947    1.9231    0.8522 H         1 RES1    0.0000
     37 H15       13.7748    3.4756    1.0653 H         1 RES1    0.0000
     38 C19       13.3501    2.3265    3.4367 C.3       1 RES1    0.0000
     39 H16       13.8788    3.1197    3.5435 H         1 RES1    0.0000
     40 H17       13.9272    1.5763    3.2730 H         1 RES1    0.0000
     41 H18       12.8423    2.1701    4.2363 H         1 RES1    0.0000
     42 C20       11.4975    1.2845    2.1036 C.3       1 RES1    0.0000
     43 H19       10.9781    1.1683    2.9031 H         1 RES1    0.0000
     44 H20       12.0374    0.5041    1.9567 H         1 RES1    0.0000
     45 H21       10.9095    1.4117    1.3555 H         1 RES1    0.0000
@<TRIPOS>BOND
     1    1    8 2
     2    2    5 2
     3    3    4 1
     4    4    5 1
     5    5    6 1
     6    6    7 ar
     7    7    8 1
     8    8    4 1
     9    9    7 ar
    10   10    9 1
    11   11    9 ar
    12   12   11 1
    13   13   11 ar
    14   14   13 1
    15   15    6 ar
    16   16   15 1
    17   17    3 1
    18   18   17 1
    19   19   17 1
    20   20   19 ar
    21   21   20 1
    22   22   20 ar
    23   23   22 1
    24   24   22 ar
    25   25   24 1
    26   26   24 ar
    27   27   26 1
    28   28   19 ar
    29   29   28 1
    30   30   17 1
    31   31   30 1
    32   32   30 1
    33   33   30 1
    34   34   33 1
    35   35   34 1
    36   36   34 1
    37   37   34 1
    38   38   33 1
    39   39   38 1
    40   40   38 1
    41   41   38 1
    42   42   33 1
    43   43   42 1
    44   44   42 1
    45   45   42 1
    46   13   15 ar
    47   26   28 ar
@<TRIPOS>SUBSTRUCTURE
     1 RES1 1

@<TRIPOS>CRYSIN
  14.6490    9.1488   13.3750  90.0000 102.2400  90.0000  14 1

