# MOL2 file generated by ConQuest
# Please check atom types

@<TRIPOS>MOLECULE
BAMKOP
    67    66     1
SMALL
NO_CHARGES
****
Generated from CSD

@<TRIPOS>ATOM
      1 C1        -0.9989    9.3059    2.6412 C.3       1 RES1    0.0000
      2 C2         0.2997    8.5356    2.5803 C.2       1 RES1    0.0000
      3 C3         0.3325    7.1580    2.7917 C.2       1 RES1    0.0000
      4 C4        -0.9518    6.3895    3.0824 C.3       1 RES1    0.0000
      5 C5        -0.7848    5.3755    4.2411 C.3       1 RES1    0.0000
      6 C6        -0.4395    6.0427    5.5596 C.3       1 RES1    0.0000
      7 C7        -0.2840    4.9725    6.7143 C.3       1 RES1    0.0000
      8 C8        -0.1042    5.6079    8.0781 C.3       1 RES1    0.0000
      9 C9         0.2940    4.5733    9.1348 C.3       1 RES1    0.0000
     10 C10        1.5640    6.4401    2.5319 C.2       1 RES1    0.0000
     11 C11        2.6457    4.2959    2.0639 C.3       1 RES1    0.0000
     12 C12       -1.3970    5.6698    1.7690 C.3       1 RES1    0.0000
     13 C13       -2.1733    3.3719    4.1628 C.2       1 RES1    0.0000
     14 C14       -3.4890    2.8077    4.5597 C.3       1 RES1    0.0000
     15 C15       -1.1716    8.2544    6.2040 C.2       1 RES1    0.0000
     16 C16       -2.3503    9.0341    6.6524 C.3       1 RES1    0.0000
     17 C17        0.7863    2.8789    6.2328 C.2       1 RES1    0.0000
     18 C18        2.0492    2.2660    5.5803 C.3       1 RES1    0.0000
     19 C19        0.7306    7.6921    8.8678 C.2       1 RES1    0.0000
     20 C20        1.8794    8.6855    8.7441 C.3       1 RES1    0.0000
     21 C21       -0.6935    2.6315   10.0740 C.2       1 RES1    0.0000
     22 C22       -1.9564    1.7900   10.1121 C.3       1 RES1    0.0000
     23 O1         1.4299    5.0962    2.3896 O.3       1 RES1    0.0000
     24 O2         2.6899    6.9855    2.3731 O.2       1 RES1    0.0000
     25 O3        -3.6017    6.5432    1.9381 O.2       1 RES1    0.0000
     26 O4        -3.4177    4.4402    1.5020 O.2       1 RES1    0.0000
     27 O5        -2.0848    4.7139    4.4215 O.3       1 RES1    0.0000
     28 O6        -1.2443    2.7665    3.6741 O.2       1 RES1    0.0000
     29 O7        -1.5212    6.9443    5.9617 O.3       1 RES1    0.0000
     30 O8        -0.0771    8.6649    6.0431 O.2       1 RES1    0.0000
     31 O9         0.8890    4.2359    6.2998 O.3       1 RES1    0.0000
     32 O10       -0.1541    2.3391    6.6565 O.2       1 RES1    0.0000
     33 O11        0.9276    6.6294    8.0513 O.3       1 RES1    0.0000
     34 O12       -0.2668    7.8027    9.5523 O.2       1 RES1    0.0000
     35 O13       -0.8633    3.7486    9.3111 O.3       1 RES1    0.0000
     36 O14        0.3311    2.3822   10.6090 O.2       1 RES1    0.0000
     37 N1         1.4227    9.2515    2.3298 N.3       1 RES1    0.0000
     38 N2        -2.9425    5.5367    1.7350 N.pl3     1 RES1    0.0000
     39 H1        -1.6410    7.1786    3.3504 H         1 RES1    0.0000
     40 H2         0.0571    4.6295    3.9896 H         1 RES1    0.0000
     41 H3         0.4424    6.6538    5.4741 H         1 RES1    0.0000
     42 H4        -1.1131    4.2921    6.7215 H         1 RES1    0.0000
     43 H5        -0.9846    6.1477    8.3812 H         1 RES1    0.0000
     44 H6         0.6279    5.0231   10.0616 H         1 RES1    0.0000
     45 H7         1.1701    4.0110    8.8657 H         1 RES1    0.0000
     46 H8         2.5115    8.8654    2.2577 H         1 RES1    0.0000
     47 H9         1.3985   10.3087    2.1649 H         1 RES1    0.0000
     48 H10        3.3677    4.4608    2.8556 H         1 RES1    0.0000
     49 H11        3.0395    4.6858    1.1340 H         1 RES1    0.0000
     50 H12        2.5401    3.2238    1.9484 H         1 RES1    0.0000
     51 H13       -0.9133    4.7045    1.6597 H         1 RES1    0.0000
     52 H14       -1.0274    6.1664    0.8866 H         1 RES1    0.0000
     53 H15       -3.2536    2.0242    5.2679 H         1 RES1    0.0000
     54 H16       -3.8814    2.3616    3.6597 H         1 RES1    0.0000
     55 H17       -4.3238    3.3550    4.9999 H         1 RES1    0.0000
     56 H18       -2.4544    9.8213    5.9277 H         1 RES1    0.0000
     57 H19       -2.0691    9.4465    7.6080 H         1 RES1    0.0000
     58 H20       -3.3534    8.6593    6.8039 H         1 RES1    0.0000
     59 H21        1.6696    1.6869    4.7421 H         1 RES1    0.0000
     60 H22        2.4402    1.5932    6.3297 H         1 RES1    0.0000
     61 H23        2.9254    2.7740    5.1854 H         1 RES1    0.0000
     62 H24        2.2547    8.8092    9.7523 H         1 RES1    0.0000
     63 H25        1.4127    9.5964    8.4121 H         1 RES1    0.0000
     64 H26        2.7684    8.5843    8.1338 H         1 RES1    0.0000
     65 H27       -2.1976    1.7056   11.1646 H         1 RES1    0.0000
     66 H28       -1.6696    0.8247    9.7214 H         1 RES1    0.0000
     67 H29       -2.8968    2.0242    9.6286 H         1 RES1    0.0000
@<TRIPOS>BOND
     1    1    2 1
     2    2    3 2
     3    3    4 1
     4    4    5 1
     5    5    6 1
     6    6    7 1
     7    7    8 1
     8    8    9 1
     9    9   35 1
    10   10    3 1
    11   11   23 1
    12   12    4 1
    13   13   14 1
    14   14   53 1
    15   15   16 1
    16   16   56 1
    17   17   18 1
    18   18   59 1
    19   19   20 1
    20   20   62 1
    21   21   22 1
    22   22   65 1
    23   23   10 1
    24   24   10 2
    25   25   38 2
    26   26   38 2
    27   27    5 1
    28   28   13 2
    29   29    6 1
    30   30   15 2
    31   31    7 1
    32   32   17 2
    33   33    8 1
    34   34   19 2
    35   35   21 1
    36   36   21 2
    37   37    2 1
    38   38   12 1
    39   39    4 1
    40   40    5 1
    41   41    6 1
    42   42    7 1
    43   43    8 1
    44   44    9 1
    45   45    9 1
    46   46   37 1
    47   47   37 1
    48   48   11 1
    49   49   11 1
    50   50   11 1
    51   51   12 1
    52   52   12 1
    53   54   14 1
    54   55   14 1
    55   57   16 1
    56   58   16 1
    57   60   18 1
    58   61   18 1
    59   63   20 1
    60   64   20 1
    61   66   22 1
    62   67   22 1
    63   13   27 1
    64   15   29 1
    65   17   31 1
    66   19   33 1
@<TRIPOS>SUBSTRUCTURE
     1 RES1 1

@<TRIPOS>CRYSIN
  14.2700   18.7430   10.3090  90.0000  90.0000  90.0000  19 1

