# MOL2 file generated by ConQuest
# Please check atom types

@<TRIPOS>MOLECULE
BANBUP
    49    50     1
SMALL
NO_CHARGES
****
Generated from CSD

@<TRIPOS>ATOM
      1 C1         2.4452    6.0244    2.0794 C.2       1 RES1    0.0000
      2 O1         1.9997    5.4816    3.0879 O.2       1 RES1    0.0000
      3 C2         3.7286    5.6164    1.3667 C.3       1 RES1    0.0000
      4 H1         4.4982    5.9638    1.9026 H         1 RES1    0.0000
      5 C3         3.6794    6.4048    0.0550 C.3       1 RES1    0.0000
      6 H2         3.3700    5.8111   -0.6875 H         1 RES1    0.0000
      7 N1         5.0457    6.9720   -0.2721 N.pl3     1 RES1    0.0000
      8 O2         5.5792    7.7085    0.5570 O.2       1 RES1    0.0000
      9 O3         5.5551    6.6681   -1.3386 O.2       1 RES1    0.0000
     10 C4         2.6555    7.5599    0.2740 C.3       1 RES1    0.0000
     11 H3         3.1516    8.3988    0.4948 H         1 RES1    0.0000
     12 N2         1.9211    7.1093    1.4611 N.am      1 RES1    0.0000
     13 C5         0.7929    7.8658    2.0100 C.3       1 RES1    0.0000
     14 H4         0.4237    7.3765    2.7882 H         1 RES1    0.0000
     15 H5         0.0808    7.9273    1.3246 H         1 RES1    0.0000
     16 C6         1.1887    9.2809    2.4494 C.3       1 RES1    0.0000
     17 H6         1.5256    9.7738    1.6596 H         1 RES1    0.0000
     18 H7         0.3776    9.7493    2.7685 H         1 RES1    0.0000
     19 C7         2.2497    9.3413    3.5488 C.3       1 RES1    0.0000
     20 H8         3.0432    8.8251    3.2579 H         1 RES1    0.0000
     21 H9         2.5310   10.2830    3.6728 H         1 RES1    0.0000
     22 C8         1.7648    8.7913    4.8844 C.3       1 RES1    0.0000
     23 H10        0.9429    9.2551    5.1495 H         1 RES1    0.0000
     24 H11        2.4544    8.9345    5.5655 H         1 RES1    0.0000
     25 H12        1.5857    7.8311    4.7970 H         1 RES1    0.0000
     26 C9         3.9145    4.1004    1.2122 C.3       1 RES1    0.0000
     27 H13        3.7905    3.6647    2.0920 H         1 RES1    0.0000
     28 H14        3.2252    3.7477    0.5955 H         1 RES1    0.0000
     29 C10        5.2905    3.7601    0.6730 C.ar      1 RES1    0.0000
     30 C11        6.4392    4.1185    1.3881 C.ar      1 RES1    0.0000
     31 H15        6.3517    4.5304    2.2398 H         1 RES1    0.0000
     32 C12        7.7093    3.8793    0.8687 C.ar      1 RES1    0.0000
     33 H16        8.4789    4.1381    1.3629 H         1 RES1    0.0000
     34 C13        7.8554    3.2650   -0.3684 C.ar      1 RES1    0.0000
     35 H17        8.7207    3.1215   -0.7335 H         1 RES1    0.0000
     36 C14        6.7233    2.8616   -1.0676 C.ar      1 RES1    0.0000
     37 H18        6.8166    2.4123   -1.8993 H         1 RES1    0.0000
     38 C15        5.4475    3.1140   -0.5516 C.ar      1 RES1    0.0000
     39 H19        4.6806    2.8424   -1.0411 H         1 RES1    0.0000
     40 C16        1.7269    7.8247   -0.9242 C.3       1 RES1    0.0000
     41 H20        1.1475    8.6044   -0.6875 H         1 RES1    0.0000
     42 C17        0.8021    6.6410   -1.2209 C.3       1 RES1    0.0000
     43 H21        0.1955    6.8767   -1.9541 H         1 RES1    0.0000
     44 H22        0.2792    6.4259   -0.4204 H         1 RES1    0.0000
     45 H23        1.3396    5.8639   -1.4779 H         1 RES1    0.0000
     46 C18        2.5591    8.2251   -2.1462 C.3       1 RES1    0.0000
     47 H24        3.0846    7.4558   -2.4500 H         1 RES1    0.0000
     48 H25        3.1633    8.9590   -1.9037 H         1 RES1    0.0000
     49 H26        1.9620    8.5176   -2.8660 H         1 RES1    0.0000
@<TRIPOS>BOND
     1    1    2 2
     2    3    1 1
     3    4    3 1
     4    5    3 1
     5    6    5 1
     6    7    5 1
     7    8    7 2
     8    9    7 2
     9   10    5 1
    10   11   10 1
    11   12    1 1
    12   13   12 1
    13   14   13 1
    14   15   13 1
    15   16   13 1
    16   17   16 1
    17   18   16 1
    18   19   16 1
    19   20   19 1
    20   21   19 1
    21   22   19 1
    22   23   22 1
    23   24   22 1
    24   25   22 1
    25   26    3 1
    26   27   26 1
    27   28   26 1
    28   29   26 1
    29   30   29 ar
    30   31   30 1
    31   32   30 ar
    32   33   32 1
    33   34   32 ar
    34   35   34 1
    35   36   34 ar
    36   37   36 1
    37   38   29 ar
    38   39   38 1
    39   40   10 1
    40   41   40 1
    41   42   40 1
    42   43   42 1
    43   44   42 1
    44   45   42 1
    45   46   40 1
    46   47   46 1
    47   48   46 1
    48   49   46 1
    49   10   12 1
    50   36   38 ar
@<TRIPOS>SUBSTRUCTURE
     1 RES1 1

@<TRIPOS>CRYSIN
   8.3457   18.8610   11.0182  90.0000  96.5110  90.0000  14 1

