# MOL2 file generated by ConQuest
# Please check atom types

@<TRIPOS>MOLECULE
BANCEA
    50    52     1
SMALL
NO_CHARGES
****
Generated from CSD

@<TRIPOS>ATOM
      1 O1        10.6822    5.1622    8.0145 O.2       1 RES1    0.0000
      2 C1         9.8450    4.3260    8.3182 C.2       1 RES1    0.0000
      3 N1         9.1319    3.5580    7.4542 N.am      1 RES1    0.0000
      4 C2         9.3581    3.5652    6.0168 C.3       1 RES1    0.0000
      5 C3         8.1396    3.9579    5.2091 C.ar      1 RES1    0.0000
      6 C4         7.2412    4.9127    5.6606 C.ar      1 RES1    0.0000
      7 C5         6.1455    5.2734    4.8969 C.ar      1 RES1    0.0000
      8 C6         5.9369    4.6843    3.6675 C.ar      1 RES1    0.0000
      9 C7         6.8284    3.7410    3.1884 C.ar      1 RES1    0.0000
     10 C8         7.9268    3.3737    3.9623 C.ar      1 RES1    0.0000
     11 C9         8.0979    2.7345    8.0830 C.3       1 RES1    0.0000
     12 C10        8.0952    3.2456    9.5424 C.3       1 RES1    0.0000
     13 C11        9.4670    3.8988    9.7294 C.3       1 RES1    0.0000
     14 C12        9.6387    4.9546   10.8126 C.3       1 RES1    0.0000
     15 C13        9.5243    4.3934   12.2138 C.ar      1 RES1    0.0000
     16 C14        8.5542    4.8445   13.1010 C.ar      1 RES1    0.0000
     17 C15        8.4955    4.3655   14.4021 C.ar      1 RES1    0.0000
     18 C16        9.4009    3.4222   14.8427 C.ar      1 RES1    0.0000
     19 C17       10.3619    2.9407   13.9659 C.ar      1 RES1    0.0000
     20 C18       10.4174    3.4214   12.6647 C.ar      1 RES1    0.0000
     21 N2         6.9958    4.2636    9.7009 N.pl3     1 RES1    0.0000
     22 O2         7.0965    5.3143    9.0819 O.2       1 RES1    0.0000
     23 O3         6.0644    3.9908   10.4262 O.2       1 RES1    0.0000
     24 C19        8.3378    1.2259    7.9572 C.3       1 RES1    0.0000
     25 C20        9.5656    0.7263    8.7182 C.3       1 RES1    0.0000
     26 C21        7.0719    0.4782    8.3766 C.3       1 RES1    0.0000
     27 H1        10.0730    4.2094    5.8355 H         1 RES1    0.0000
     28 H2         9.6746    2.6671    5.7264 H         1 RES1    0.0000
     29 H3         7.3867    5.2981    6.5207 H         1 RES1    0.0000
     30 H4         5.5220    5.9283    5.2201 H         1 RES1    0.0000
     31 H5         5.1544    4.9209    3.1450 H         1 RES1    0.0000
     32 H6         6.7059    3.3392    2.3292 H         1 RES1    0.0000
     33 H7         8.5524    2.7312    3.6333 H         1 RES1    0.0000
     34 H8         7.2201    2.9530    7.6710 H         1 RES1    0.0000
     35 H9         7.9227    2.5307   10.1880 H         1 RES1    0.0000
     36 H10       10.0999    3.1634    9.9430 H         1 RES1    0.0000
     37 H11       10.5444    5.3170   10.6818 H         1 RES1    0.0000
     38 H12        8.9608    5.6711   10.6854 H         1 RES1    0.0000
     39 H13        7.9291    5.4821   12.7945 H         1 RES1    0.0000
     40 H14        7.8155    4.6909   14.9985 H         1 RES1    0.0000
     41 H15        9.3483    3.1001   15.7463 H         1 RES1    0.0000
     42 H16       10.9885    2.2793   14.2454 H         1 RES1    0.0000
     43 H17       11.1021    3.0853   12.0736 H         1 RES1    0.0000
     44 H18        8.5042    1.0419    7.0019 H         1 RES1    0.0000
     45 H19        9.6823   -0.2194    8.5261 H         1 RES1    0.0000
     46 H20        9.4259    0.8291    9.7050 H         1 RES1    0.0000
     47 H21       10.3664    1.2284    8.4313 H         1 RES1    0.0000
     48 H22        7.2118   -0.4725    8.2452 H         1 RES1    0.0000
     49 H23        6.8557    0.6409    9.3347 H         1 RES1    0.0000
     50 H24        6.2815    0.7567    7.8570 H         1 RES1    0.0000
@<TRIPOS>BOND
     1    1    2 2
     2    2    3 1
     3    3    4 1
     4    4    5 1
     5    5    6 ar
     6    6    7 ar
     7    7    8 ar
     8    8    9 ar
     9    9   10 ar
    10   10    5 ar
    11   11    3 1
    12   12   11 1
    13   13    2 1
    14   14   13 1
    15   15   14 1
    16   16   15 ar
    17   17   16 ar
    18   18   17 ar
    19   19   18 ar
    20   20   15 ar
    21   21   12 1
    22   22   21 2
    23   23   21 2
    24   24   11 1
    25   25   24 1
    26   26   24 1
    27   27    4 1
    28   28    4 1
    29   29    6 1
    30   30    7 1
    31   31    8 1
    32   32    9 1
    33   33   10 1
    34   34   11 1
    35   35   12 1
    36   36   13 1
    37   37   14 1
    38   38   14 1
    39   39   16 1
    40   40   17 1
    41   41   18 1
    42   42   19 1
    43   43   20 1
    44   44   24 1
    45   45   25 1
    46   46   25 1
    47   47   25 1
    48   48   26 1
    49   49   26 1
    50   50   26 1
    51   12   13 1
    52   19   20 ar
@<TRIPOS>SUBSTRUCTURE
     1 RES1 1

@<TRIPOS>CRYSIN
  12.6960    8.2166   18.0143  90.0000  96.7494  90.0000 231 1

