# MOL2 file generated by ConQuest
# Please check atom types

@<TRIPOS>MOLECULE
BANHOO
    33    34     1
SMALL
NO_CHARGES
****
Generated from CSD

@<TRIPOS>ATOM
      1 O1         1.2500    4.6008    8.1791 O.2       1 RES1    0.0000
      2 O2         0.5261    5.9603    6.6658 O.2       1 RES1    0.0000
      3 O3         4.1182   16.7540   11.7599 O.3       1 RES1    0.0000
      4 N1         1.1089    5.7327    7.7277 N.pl3     1 RES1    0.0000
      5 N2         4.4072    9.6519   12.8111 N.1       1 RES1    0.0000
      6 C1         4.7210   17.0794   13.0187 C.3       1 RES1    0.0000
      7 C2         1.6543    6.8671    8.4716 C.ar      1 RES1    0.0000
      8 C3         2.1268    6.6742    9.7545 C.ar      1 RES1    0.0000
      9 C4         2.6217    7.7715   10.4430 C.ar      1 RES1    0.0000
     10 C5         2.6494    9.0432    9.8676 C.ar      1 RES1    0.0000
     11 C6         2.1819    9.1793    8.5534 C.ar      1 RES1    0.0000
     12 C7         1.6695    8.1067    7.8608 C.ar      1 RES1    0.0000
     13 C8         3.1506   10.2259   10.6221 C.2       1 RES1    0.0000
     14 C9         3.8468    9.9314   11.8553 C.1       1 RES1    0.0000
     15 C10        2.9370   11.4914   10.2000 C.2       1 RES1    0.0000
     16 C11        3.2979   12.7966   10.7222 C.ar      1 RES1    0.0000
     17 C12        3.9306   13.0761   11.9461 C.ar      1 RES1    0.0000
     18 C13        4.2188   14.3788   12.3302 C.ar      1 RES1    0.0000
     19 C14        3.8831   15.4279   11.4885 C.ar      1 RES1    0.0000
     20 C15        3.2479   15.1842   10.2723 C.ar      1 RES1    0.0000
     21 C16        2.9602   13.8939    9.9129 C.ar      1 RES1    0.0000
     22 H1         2.1129    5.8131   10.1550 H         1 RES1    0.0000
     23 H2         2.9502    7.6552   11.3277 H         1 RES1    0.0000
     24 H3         2.2196   10.0304    8.1330 H         1 RES1    0.0000
     25 H4         1.3325    8.2168    6.9800 H         1 RES1    0.0000
     26 H5         2.4461   11.5372    9.3872 H         1 RES1    0.0000
     27 H6         4.1657   12.3574   12.5229 H         1 RES1    0.0000
     28 H7         4.6425   14.5508   13.1641 H         1 RES1    0.0000
     29 H8         3.0165   15.9054    9.6994 H         1 RES1    0.0000
     30 H9         2.5169   13.7355    9.0863 H         1 RES1    0.0000
     31 H10        4.1587   16.7837   13.7237 H         1 RES1    0.0000
     32 H11        5.5656   16.6501   13.0853 H         1 RES1    0.0000
     33 H12        4.8381   18.0196   13.0797 H         1 RES1    0.0000
@<TRIPOS>BOND
     1    1    4 2
     2    2    4 2
     3    3    6 1
     4    4    7 1
     5    5   14 3
     6    6   31 1
     7    7    8 ar
     8    8    9 ar
     9    9   10 ar
    10   10   11 ar
    11   11   12 ar
    12   12    7 ar
    13   13   10 1
    14   14   13 1
    15   15   13 2
    16   16   15 1
    17   17   16 ar
    18   18   17 ar
    19   19    3 1
    20   20   19 ar
    21   21   16 ar
    22   22    8 1
    23   23    9 1
    24   24   11 1
    25   25   12 1
    26   26   15 1
    27   27   17 1
    28   28   18 1
    29   29   20 1
    30   30   21 1
    31   32    6 1
    32   33    6 1
    33   18   19 ar
    34   20   21 ar
@<TRIPOS>SUBSTRUCTURE
     1 RES1 1

@<TRIPOS>CRYSIN
   3.8140   12.3710   28.1320  90.0000  91.5000  90.0000 231 1

