# MOL2 file generated by ConQuest
# Please check atom types

@<TRIPOS>MOLECULE
BANHOO02
    33    34     1
SMALL
NO_CHARGES
****
Generated from CSD

@<TRIPOS>ATOM
      1 O1        -3.6864  -30.6710   -1.4952 O.2       1 RES1    0.0000
      2 O2        -3.3629  -32.2630   -0.1187 O.2       1 RES1    0.0000
      3 O3         4.8000  -26.4349    7.3641 O.3       1 RES1    0.0000
      4 N1        -3.1489  -31.1288   -0.5149 N.pl3     1 RES1    0.0000
      5 N2         0.7318  -25.4726    1.6510 N.1       1 RES1    0.0000
      6 C1        -2.2336  -30.2877    0.2565 C.ar      1 RES1    0.0000
      7 C2        -2.0015  -28.9868   -0.1320 C.ar      1 RES1    0.0000
      8 C3        -1.1294  -28.2181    0.6004 C.ar      1 RES1    0.0000
      9 C4        -0.4725  -28.7204    1.7156 C.ar      1 RES1    0.0000
     10 C5        -0.7372  -30.0465    2.0852 C.ar      1 RES1    0.0000
     11 C6        -1.5980  -30.8196    1.3575 C.ar      1 RES1    0.0000
     12 C7         0.4655  -27.8910    2.5031 C.2       1 RES1    0.0000
     13 C8         0.6249  -26.5352    2.0491 C.1       1 RES1    0.0000
     14 C9         1.1624  -28.3539    3.5633 C.2       1 RES1    0.0000
     15 C10        2.1175  -27.7441    4.4705 C.ar      1 RES1    0.0000
     16 C11        2.4508  -26.3984    4.5484 C.ar      1 RES1    0.0000
     17 C12        3.3354  -25.9205    5.4964 C.ar      1 RES1    0.0000
     18 C13        3.9316  -26.7895    6.3866 C.ar      1 RES1    0.0000
     19 C14        3.6353  -28.1527    6.3125 C.ar      1 RES1    0.0000
     20 C15        2.7453  -28.5961    5.3910 C.ar      1 RES1    0.0000
     21 C16        5.0574  -25.0369    7.5560 C.3       1 RES1    0.0000
     22 H1        -2.4150  -28.6501   -0.8455 H         1 RES1    0.0000
     23 H2        -0.9828  -27.3850    0.3420 H         1 RES1    0.0000
     24 H3        -0.2788  -30.3848    2.8689 H         1 RES1    0.0000
     25 H4        -1.8743  -31.6914    1.6339 H         1 RES1    0.0000
     26 H5         0.9861  -29.2091    3.7143 H         1 RES1    0.0000
     27 H6         2.0625  -25.7557    3.9043 H         1 RES1    0.0000
     28 H7         3.5758  -24.9826    5.5002 H         1 RES1    0.0000
     29 H8         4.1518  -28.7491    6.8872 H         1 RES1    0.0000
     30 H9         2.5312  -29.4232    5.3198 H         1 RES1    0.0000
     31 H10        4.1240  -24.5992    7.8276 H         1 RES1    0.0000
     32 H11        5.4961  -24.6311    6.6782 H         1 RES1    0.0000
     33 H12        5.6119  -25.0177    8.1601 H         1 RES1    0.0000
@<TRIPOS>BOND
     1    1    4 2
     2    2    4 2
     3    3   18 1
     4    4    6 1
     5    5   13 3
     6    6    7 ar
     7    7    8 ar
     8    8    9 ar
     9    9   10 ar
    10   10   11 ar
    11   11    6 ar
    12   12    9 1
    13   13   12 1
    14   14   12 2
    15   15   14 1
    16   16   15 ar
    17   17   16 ar
    18   18   17 ar
    19   19   18 ar
    20   20   15 ar
    21   21    3 1
    22   22    7 1
    23   23    8 1
    24   24   10 1
    25   25   11 1
    26   26   14 1
    27   27   16 1
    28   28   17 1
    29   29   19 1
    30   30   20 1
    31   31   21 1
    32   32   21 1
    33   33   21 1
    34   19   20 ar
@<TRIPOS>SUBSTRUCTURE
     1 RES1 1

@<TRIPOS>CRYSIN
   4.6002   31.9470    9.5110  90.0000  92.8100  90.0000   9 1

