# MOL2 file generated by ConQuest
# Please check atom types

@<TRIPOS>MOLECULE
BANJEG
    33    34     1
SMALL
NO_CHARGES
****
Generated from CSD

@<TRIPOS>ATOM
      1 O1         0.7460   -8.1591    7.6191 O.2       1 RES1    0.0000
      2 O2         2.3757   -8.2975    6.1914 O.2       1 RES1    0.0000
      3 O3         2.8274    0.7809    8.9003 O.3       1 RES1    0.0000
      4 N1         1.3930   -7.7464    6.6620 N.pl3     1 RES1    0.0000
      5 N2        -1.5224   -3.1387    1.9993 N.1       1 RES1    0.0000
      6 C1         0.9507   -6.4793    6.0239 C.ar      1 RES1    0.0000
      7 C2         0.1531   -5.6273    6.7519 C.ar      1 RES1    0.0000
      8 C3        -0.2161   -4.4211    6.1655 C.ar      1 RES1    0.0000
      9 C4         0.1894   -4.1138    4.8758 C.ar      1 RES1    0.0000
     10 C5         0.9468   -5.0242    4.1526 C.ar      1 RES1    0.0000
     11 C6         1.3571   -6.2126    4.7427 C.ar      1 RES1    0.0000
     12 C7        -0.2502   -2.8302    4.2327 C.2       1 RES1    0.0000
     13 C8        -0.9706   -2.9965    2.9935 C.1       1 RES1    0.0000
     14 C9        -0.0617   -1.5605    4.6663 C.2       1 RES1    0.0000
     15 C10        0.6805   -1.0196    5.8071 C.ar      1 RES1    0.0000
     16 C11        0.4751    0.3327    6.1064 C.ar      1 RES1    0.0000
     17 C12        1.1551    0.9713    7.1338 C.ar      1 RES1    0.0000
     18 C13        2.0862    0.2514    7.8803 C.ar      1 RES1    0.0000
     19 C14        2.3203   -1.0932    7.5822 C.ar      1 RES1    0.0000
     20 C15        1.6336   -1.7116    6.5757 C.ar      1 RES1    0.0000
     21 C16        2.6885    2.1940    9.1331 C.3       1 RES1    0.0000
     22 H1        -0.1254   -5.8241    7.6401 H         1 RES1    0.0000
     23 H2        -0.7587   -3.8802    6.6312 H         1 RES1    0.0000
     24 H3         1.1708   -4.8299    3.2632 H         1 RES1    0.0000
     25 H4         1.8980   -6.8094    4.2475 H         1 RES1    0.0000
     26 H5        -0.4578   -0.8393    4.1071 H         1 RES1    0.0000
     27 H6        -0.1475    0.8202    5.5188 H         1 RES1    0.0000
     28 H7         0.9824    1.8665    7.3062 H         1 RES1    0.0000
     29 H8         2.9873   -1.4995    8.0318 H         1 RES1    0.0000
     30 H9         1.8553   -2.6016    6.3725 H         1 RES1    0.0000
     31 H10        2.9113    2.6714    8.3127 H         1 RES1    0.0000
     32 H11        1.7240    2.3959    9.4226 H         1 RES1    0.0000
     33 H12        3.3678    2.3908    9.9080 H         1 RES1    0.0000
@<TRIPOS>BOND
     1    1    4 2
     2    2    4 2
     3    3   18 1
     4    4    6 1
     5    5   13 3
     6    6    7 ar
     7    7    8 ar
     8    8    9 ar
     9    9   10 ar
    10   10   11 ar
    11   11    6 ar
    12   12    9 1
    13   13   12 1
    14   14   12 2
    15   15   14 1
    16   16   15 ar
    17   17   16 ar
    18   18   17 ar
    19   19   18 ar
    20   20   15 ar
    21   21    3 1
    22   22    7 1
    23   23    8 1
    24   24   10 1
    25   25   11 1
    26   26   14 1
    27   27   16 1
    28   28   17 1
    29   29   19 1
    30   30   20 1
    31   31   21 1
    32   32   21 1
    33   33   21 1
    34   19   20 ar
@<TRIPOS>SUBSTRUCTURE
     1 RES1 1

@<TRIPOS>CRYSIN
   8.5430   12.6970   12.5720  90.0000 101.5200  90.0000  14 1

