# MOL2 file generated by ConQuest
# Please check atom types

@<TRIPOS>MOLECULE
BANYIZ
    36    37     1
SMALL
NO_CHARGES
****
Generated from CSD

@<TRIPOS>ATOM
      1 O1         1.4236    2.0181    0.0630 O.2       1 RES1    0.0000
      2 O2         1.4607    3.1713    1.8908 O.2       1 RES1    0.0000
      3 O3         9.7824    1.3288   -0.2423 O.3       1 RES1    0.0000
      4 H1         8.9312    1.4895   -0.0546 H         1 RES1    0.0000
      5 N1         7.6447    2.2650    0.9425 N.2       1 RES1    0.0000
      6 N2         2.0267    2.5987    0.9602 N.pl3     1 RES1    0.0000
      7 N3        14.0409    2.4164    1.6197 N.3       1 RES1    0.0000
      8 C1         6.2461    2.4230    0.9994 C.ar      1 RES1    0.0000
      9 C2         5.5235    1.8373   -0.0389 C.ar      1 RES1    0.0000
     10 H2         6.0124    1.3883   -0.7749 H         1 RES1    0.0000
     11 C3         4.1415    1.9096   -0.0810 C.ar      1 RES1    0.0000
     12 H3         3.6902    1.4967   -0.7869 H         1 RES1    0.0000
     13 C4         3.4878    2.5741    0.9462 C.ar      1 RES1    0.0000
     14 C5         4.1713    3.1894    1.9814 C.ar      1 RES1    0.0000
     15 H4         3.6805    3.6225    2.7215 H         1 RES1    0.0000
     16 C6         5.5548    3.1099    2.0143 C.ar      1 RES1    0.0000
     17 H5         5.9907    3.5285    2.7433 H         1 RES1    0.0000
     18 C7         8.4268    2.8221    1.8176 C.2       1 RES1    0.0000
     19 H6         8.1030    3.3767    2.5881 H         1 RES1    0.0000
     20 C8         9.8496    2.6724    1.7585 C.ar      1 RES1    0.0000
     21 C9        10.4999    1.9349    0.7312 C.ar      1 RES1    0.0000
     22 C10       11.8817    1.8185    0.7087 C.ar      1 RES1    0.0000
     23 H7        12.2558    1.3449   -0.0732 H         1 RES1    0.0000
     24 C11       12.6767    2.4584    1.6807 C.ar      1 RES1    0.0000
     25 C12       12.0263    3.1750    2.7206 C.ar      1 RES1    0.0000
     26 H8        12.5186    3.6081    3.3882 H         1 RES1    0.0000
     27 C13       10.6559    3.2682    2.7360 C.ar      1 RES1    0.0000
     28 H9        10.2188    3.7527    3.4647 H         1 RES1    0.0000
     29 C14       14.7160    1.5972    0.6316 C.3       1 RES1    0.0000
     30 H10       15.6724    1.7426    0.6011 H         1 RES1    0.0000
     31 H11       14.5885    0.6363    0.8088 H         1 RES1    0.0000
     32 H12       14.3863    1.7643   -0.2514 H         1 RES1    0.0000
     33 C15       14.8486    3.0325    2.6635 C.3       1 RES1    0.0000
     34 H13       15.7669    3.0079    2.3717 H         1 RES1    0.0000
     35 H14       14.6289    4.0058    2.7980 H         1 RES1    0.0000
     36 H15       14.6896    2.6102    3.5412 H         1 RES1    0.0000
@<TRIPOS>BOND
     1    1    6 2
     2    2    6 2
     3    3    4 1
     4    5    8 1
     5    6   13 1
     6    7   24 1
     7    8    9 ar
     8    9   10 1
     9   11    9 ar
    10   12   11 1
    11   13   11 ar
    12   14   13 ar
    13   15   14 1
    14   16    8 ar
    15   17   16 1
    16   18    5 2
    17   19   18 1
    18   20   18 1
    19   21    3 1
    20   22   21 ar
    21   23   22 1
    22   24   22 ar
    23   25   24 ar
    24   26   25 1
    25   27   20 ar
    26   28   27 1
    27   29    7 1
    28   30   29 1
    29   31   29 1
    30   32   29 1
    31   33    7 1
    32   34   33 1
    33   35   33 1
    34   36   33 1
    35   14   16 ar
    36   20   21 ar
    37   25   27 ar
@<TRIPOS>SUBSTRUCTURE
     1 RES1 1

@<TRIPOS>CRYSIN
  16.8338    7.2306   11.5995  90.0000 109.5680  90.0000  14 1

