# MOL2 file generated by ConQuest
# Please check atom types

@<TRIPOS>MOLECULE
BAPHAD
    33    35     1
SMALL
NO_CHARGES
****
Generated from CSD

@<TRIPOS>ATOM
      1 O1        -3.3268    1.4721    1.6888 O.3       1 RES1    0.0000
      2 H1        -4.0545    1.6446    1.3178 H         1 RES1    0.0000
      3 O2        -0.6363    4.1283   -0.4199 O.2       1 RES1    0.0000
      4 N1        -2.3225    1.9607    0.7798 N.3       1 RES1    0.0000
      5 N2         0.8268    3.1312    1.0649 N.am      1 RES1    0.0000
      6 H2         1.5643    3.3517    0.6814 H         1 RES1    0.0000
      7 C1        -0.9312    0.9353   -0.9511 C.ar      1 RES1    0.0000
      8 H3        -0.9971    1.7288   -1.4303 H         1 RES1    0.0000
      9 C2        -0.1754   -0.1233   -1.4571 C.ar      1 RES1    0.0000
     10 H4         0.2886   -0.0242   -2.2574 H         1 RES1    0.0000
     11 C3        -0.1172   -1.3223   -0.7661 C.ar      1 RES1    0.0000
     12 H5         0.3618   -2.0386   -1.1153 H         1 RES1    0.0000
     13 C4        -0.7706   -1.4493    0.4371 C.ar      1 RES1    0.0000
     14 H6        -0.7125   -2.2515    0.9043 H         1 RES1    0.0000
     15 C5        -1.5202   -0.3952    0.9739 C.ar      1 RES1    0.0000
     16 H7        -1.9661   -0.4947    1.7839 H         1 RES1    0.0000
     17 C6        -1.5877    0.8060    0.2705 C.ar      1 RES1    0.0000
     18 C7        -1.4549    2.8996    1.5665 C.3       1 RES1    0.0000
     19 C8        -2.3088    4.0382    2.1289 C.3       1 RES1    0.0000
     20 H8        -2.8289    4.4277    1.4228 H         1 RES1    0.0000
     21 H9        -1.7366    4.7082    2.5114 H         1 RES1    0.0000
     22 H10       -2.8951    3.6934    2.8060 H         1 RES1    0.0000
     23 C9        -0.4094    3.4727    0.6016 C.2       1 RES1    0.0000
     24 C10        0.7437    2.3672    2.2582 C.ar      1 RES1    0.0000
     25 C11        1.7731    1.8336    2.9946 C.ar      1 RES1    0.0000
     26 H11        2.6576    1.9251    2.7235 H         1 RES1    0.0000
     27 C12        1.4410    1.1463    4.1688 C.ar      1 RES1    0.0000
     28 C13        0.1052    1.0116    4.5642 C.ar      1 RES1    0.0000
     29 C14       -0.9259    1.5540    3.7960 C.ar      1 RES1    0.0000
     30 C15       -0.5948    2.2209    2.6208 C.ar      1 RES1    0.0000
     31 H12       -1.8839    1.4534    4.0499 H         1 RES1    0.0000
     32 H13        2.0944    0.5865    4.7570 H         1 RES1    0.0000
     33 H14       -0.1203    0.5584    5.3999 H         1 RES1    0.0000
@<TRIPOS>BOND
     1    1    2 1
     2    3   23 2
     3    4    1 1
     4    5    6 1
     5    7    8 1
     6    9    7 ar
     7   10    9 1
     8   11    9 ar
     9   12   11 1
    10   13   11 ar
    11   14   13 1
    12   15   13 ar
    13   16   15 1
    14   17    4 1
    15   18    4 1
    16   19   18 1
    17   20   19 1
    18   21   19 1
    19   22   19 1
    20   23    5 1
    21   24    5 1
    22   25   24 ar
    23   26   25 1
    24   27   25 ar
    25   28   27 ar
    26   29   28 ar
    27   30   18 1
    28   31   29 1
    29   32   27 1
    30   33   28 1
    31    7   17 ar
    32   15   17 ar
    33   18   23 1
    34   24   30 ar
    35   29   30 ar
@<TRIPOS>SUBSTRUCTURE
     1 RES1 1

@<TRIPOS>CRYSIN
  10.0210   12.7490   10.7140  90.0000  90.0000  90.0000  19 1

