# MOL2 file generated by ConQuest
# Please check atom types

@<TRIPOS>MOLECULE
BAPHEH
    33    35     1
SMALL
NO_CHARGES
****
Generated from CSD

@<TRIPOS>ATOM
      1 O1         5.5536    2.6015    8.3862 O.2       1 RES1    0.0000
      2 O2         2.9979    2.2032    4.9192 O.3       1 RES1    0.0000
      3 H1         3.7412    1.9173    4.5523 H         1 RES1    0.0000
      4 N1         3.6306    3.5959    9.1840 N.am      1 RES1    0.0000
      5 H2         3.8257    3.6050   10.0222 H         1 RES1    0.0000
      6 N2         3.6322    1.9736    6.2100 N.3       1 RES1    0.0000
      7 C1         2.4216    4.1135    8.6373 C.ar      1 RES1    0.0000
      8 C2         1.3557    4.6979    9.3267 C.ar      1 RES1    0.0000
      9 H3         1.3522    4.7688   10.2544 H         1 RES1    0.0000
     10 C3         0.3055    5.1642    8.5566 C.ar      1 RES1    0.0000
     11 H4        -0.4250    5.5607    8.9725 H         1 RES1    0.0000
     12 C4         0.3236    5.0509    7.1929 C.ar      1 RES1    0.0000
     13 H5        -0.4040    5.3654    6.7064 H         1 RES1    0.0000
     14 C5         1.3901    4.4847    6.5136 C.ar      1 RES1    0.0000
     15 H6         1.3980    4.4448    5.5839 H         1 RES1    0.0000
     16 C6         2.4468    3.9787    7.2585 C.ar      1 RES1    0.0000
     17 C7         3.7409    3.3264    6.8447 C.3       1 RES1    0.0000
     18 C8         4.4286    3.0948    8.2285 C.2       1 RES1    0.0000
     19 C9         4.6322    4.2259    5.9968 C.3       1 RES1    0.0000
     20 H7         5.4347    3.7531    5.7646 H         1 RES1    0.0000
     21 H8         4.8575    5.0142    6.4954 H         1 RES1    0.0000
     22 H9         4.1644    4.4753    5.1963 H         1 RES1    0.0000
     23 C10        2.8063    1.0322    6.9527 C.ar      1 RES1    0.0000
     24 C11        3.4447    0.1547    7.8197 C.ar      1 RES1    0.0000
     25 H10        4.3678    0.1921    7.9267 H         1 RES1    0.0000
     26 C12        2.6994   -0.7785    8.5253 C.ar      1 RES1    0.0000
     27 H11        3.1204   -1.3691    9.1067 H         1 RES1    0.0000
     28 C13        1.3264   -0.8290    8.3587 C.ar      1 RES1    0.0000
     29 H12        0.8254   -1.4432    8.8453 H         1 RES1    0.0000
     30 C14        0.7026    0.0149    7.4907 C.ar      1 RES1    0.0000
     31 H13       -0.2179   -0.0434    7.3706 H         1 RES1    0.0000
     32 C15        1.4308    0.9580    6.7851 C.ar      1 RES1    0.0000
     33 H14        0.9993    1.5393    6.2007 H         1 RES1    0.0000
@<TRIPOS>BOND
     1    1   18 2
     2    2    3 1
     3    4    5 1
     4    6    2 1
     5    7    4 1
     6    8    7 ar
     7    9    8 1
     8   10    8 ar
     9   11   10 1
    10   12   10 ar
    11   13   12 1
    12   14   12 ar
    13   15   14 1
    14   16    7 ar
    15   17    6 1
    16   18    4 1
    17   19   17 1
    18   20   19 1
    19   21   19 1
    20   22   19 1
    21   23    6 1
    22   24   23 ar
    23   25   24 1
    24   26   24 ar
    25   27   26 1
    26   28   26 ar
    27   29   28 1
    28   30   28 ar
    29   31   30 1
    30   32   23 ar
    31   33   32 1
    32   14   16 ar
    33   16   17 1
    34   17   18 1
    35   30   32 ar
@<TRIPOS>SUBSTRUCTURE
     1 RES1 1

@<TRIPOS>CRYSIN
   7.8910    8.6260   10.6660  71.2500  83.3500  74.8300   2 1

