# MOL2 file generated by ConQuest
# Please check atom types

@<TRIPOS>MOLECULE
BAPWOG
    58    61     1
SMALL
NO_CHARGES
****
Generated from CSD

@<TRIPOS>ATOM
      1 C1         2.1122    9.2641    2.4083 C.3       1 RES1    0.0000
      2 H1         1.4282    9.9486    2.4827 H         1 RES1    0.0000
      3 H2         1.6911    8.4401    2.1184 H         1 RES1    0.0000
      4 C2         3.1741    9.6932    1.4043 C.3       1 RES1    0.0000
      5 C3         2.4674    9.7512    0.0253 C.3       1 RES1    0.0000
      6 H3         2.0640    8.8890   -0.1609 H         1 RES1    0.0000
      7 H4         1.7574   10.4106    0.0598 H         1 RES1    0.0000
      8 C4         3.4153   10.1052   -1.0958 C.3       1 RES1    0.0000
      9 H5         3.8690    9.2970   -1.3830 H         1 RES1    0.0000
     10 H6         2.8976   10.4343   -1.8471 H         1 RES1    0.0000
     11 C5         4.4478   11.1333   -0.7380 C.ar      1 RES1    0.0000
     12 C6         5.3220   11.6111   -1.7261 C.ar      1 RES1    0.0000
     13 H7         5.2251   11.3149   -2.6024 H         1 RES1    0.0000
     14 C7         6.3013   12.4930   -1.4295 C.ar      1 RES1    0.0000
     15 H8         6.8790   12.7839   -2.0971 H         1 RES1    0.0000
     16 C8         6.4496   12.9629   -0.1476 C.ar      1 RES1    0.0000
     17 H9         7.1199   13.5737    0.0585 H         1 RES1    0.0000
     18 C9         5.5840   12.5127    0.8338 C.ar      1 RES1    0.0000
     19 H10        5.6768   12.8313    1.7022 H         1 RES1    0.0000
     20 C10        4.5942   11.6098    0.5559 C.ar      1 RES1    0.0000
     21 C11        3.6649   11.1083    1.6423 C.3       1 RES1    0.0000
     22 C12        4.3146    8.6784    1.4043 C.3       1 RES1    0.0000
     23 H11        3.9628    7.8004    1.2394 H         1 RES1    0.0000
     24 H12        4.7551    8.6915    2.2567 H         1 RES1    0.0000
     25 H13        4.9441    8.9048    0.7154 H         1 RES1    0.0000
     26 C13        2.0141    8.7758    4.7501 C.2       1 RES1    0.0000
     27 C14        2.8469    8.6889    5.9881 C.ar      1 RES1    0.0000
     28 C15        2.2160    8.6560    7.2169 C.ar      1 RES1    0.0000
     29 H14        1.2864    8.6613    7.2541 H         1 RES1    0.0000
     30 C16        2.9399    8.6152    8.3884 C.ar      1 RES1    0.0000
     31 H15        2.5142    8.5968    9.2156 H         1 RES1    0.0000
     32 C17        4.3004    8.6020    8.2967 C.ar      1 RES1    0.0000
     33 C18        4.9480    8.6231    7.0945 C.ar      1 RES1    0.0000
     34 H16        5.8772    8.6086    7.0639 H         1 RES1    0.0000
     35 C19        4.2207    8.6665    5.9309 C.ar      1 RES1    0.0000
     36 H17        4.6544    8.6823    5.1091 H         1 RES1    0.0000
     37 C20        3.8022   11.7651    3.9522 C.2       1 RES1    0.0000
     38 C21        4.7261   11.8559    5.1158 C.ar      1 RES1    0.0000
     39 C22        4.1963   12.1745    6.3631 C.ar      1 RES1    0.0000
     40 H18        3.2892   12.3627    6.4416 H         1 RES1    0.0000
     41 C23        4.9909   12.2126    7.4695 C.ar      1 RES1    0.0000
     42 H19        4.6305   12.4088    8.3046 H         1 RES1    0.0000
     43 C24        6.3362   11.9573    7.3299 C.ar      1 RES1    0.0000
     44 C25        6.8945   11.6677    6.1158 C.ar      1 RES1    0.0000
     45 H20        7.8087   11.5124    6.0440 H         1 RES1    0.0000
     46 C26        6.0867   11.6124    5.0027 C.ar      1 RES1    0.0000
     47 H21        6.4544   11.4110    4.1729 H         1 RES1    0.0000
     48 N1         5.0944    8.5665    9.5427 N.pl3     1 RES1    0.0000
     49 N2         7.2118   12.0441    8.5014 N.pl3     1 RES1    0.0000
     50 O1         2.7660    9.0667    3.6955 O.3       1 RES1    0.0000
     51 O2         0.8192    8.6178    4.7049 O.2       1 RES1    0.0000
     52 O3         6.3022    8.5494    9.4483 O.2       1 RES1    0.0000
     53 O4         4.5057    8.5125   10.6025 O.2       1 RES1    0.0000
     54 O5         4.4023   11.2172    2.8930 O.3       1 RES1    0.0000
     55 O6         2.6528   12.1310    3.9814 O.2       1 RES1    0.0000
     56 O7         8.3970   11.8915    8.3631 O.2       1 RES1    0.0000
     57 O8         6.7101   12.2890    9.5666 O.2       1 RES1    0.0000
     58 H22        2.8858   11.6887    1.7287 H         1 RES1    0.0000
@<TRIPOS>BOND
     1    1    2 1
     2    3    1 1
     3    4    1 1
     4    5    4 1
     5    6    5 1
     6    7    5 1
     7    8    5 1
     8    9    8 1
     9   10    8 1
    10   11    8 1
    11   12   11 ar
    12   13   12 1
    13   14   12 ar
    14   15   14 1
    15   16   14 ar
    16   17   16 1
    17   18   16 ar
    18   19   18 1
    19   20   11 ar
    20   21    4 1
    21   22    4 1
    22   23   22 1
    23   24   22 1
    24   25   22 1
    25   26   27 1
    26   27   28 ar
    27   28   29 1
    28   30   28 ar
    29   31   30 1
    30   32   30 ar
    31   33   32 ar
    32   34   33 1
    33   35   27 ar
    34   36   35 1
    35   37   38 1
    36   38   39 ar
    37   39   40 1
    38   41   39 ar
    39   42   41 1
    40   43   41 ar
    41   44   43 ar
    42   45   44 1
    43   46   38 ar
    44   47   46 1
    45   48   32 1
    46   49   43 1
    47   50    1 1
    48   51   26 2
    49   52   48 2
    50   53   48 2
    51   54   21 1
    52   55   37 2
    53   56   49 2
    54   57   49 2
    55   58   21 1
    56   18   20 ar
    57   20   21 1
    58   26   50 1
    59   33   35 ar
    60   37   54 1
    61   44   46 ar
@<TRIPOS>SUBSTRUCTURE
     1 RES1 1

@<TRIPOS>CRYSIN
   6.8050   13.1630   13.4780  90.0000  99.3730  90.0000   4 1

