# MOL2 file generated by ConQuest
# Please check atom types

@<TRIPOS>MOLECULE
BAPXIB
    39    40     1
SMALL
NO_CHARGES
****
Generated from CSD

@<TRIPOS>ATOM
      1 O1        -1.1306    3.5997    8.2001 O.3       1 RES1    0.0000
      2 H1        -1.3451    3.7771    8.9707 H         1 RES1    0.0000
      3 O2         1.3326    1.3301    9.3869 O.2       1 RES1    0.0000
      4 O3         0.1238    0.2948    7.8208 O.3       1 RES1    0.0000
      5 O4         3.5766    4.9894    8.3634 O.2       1 RES1    0.0000
      6 O5         3.3021    6.3954    6.6417 O.3       1 RES1    0.0000
      7 O6        -0.0131   10.9571    8.6439 O.2       1 RES1    0.0000
      8 O7         0.4629   10.1583   10.5591 O.2       1 RES1    0.0000
      9 N1         0.2997    3.7020    8.0643 N.3       1 RES1    0.0000
     10 N2         0.2400   10.0231    9.3831 N.pl3     1 RES1    0.0000
     11 C1         0.7649    2.4996    7.3721 C.3       1 RES1    0.0000
     12 H2         0.1949    2.3040    6.5993 H         1 RES1    0.0000
     13 C2         2.1457    2.9411    6.9201 C.3       1 RES1    0.0000
     14 H3         2.4179    2.4567    6.1257 H         1 RES1    0.0000
     15 H4         2.8005    2.7894    7.6192 H         1 RES1    0.0000
     16 C3         2.0054    4.4413    6.6218 C.3       1 RES1    0.0000
     17 H5         2.0621    4.5912    5.6549 H         1 RES1    0.0000
     18 C4         0.5743    4.7900    7.1214 C.3       1 RES1    0.0000
     19 H6        -0.0469    4.7146    6.3675 H         1 RES1    0.0000
     20 C5         0.7861    1.3313    8.3228 C.2       1 RES1    0.0000
     21 C6         3.0503    5.2570    7.3191 C.2       1 RES1    0.0000
     22 C7         0.0747   -0.8787    8.6634 C.3       1 RES1    0.0000
     23 H7        -0.4197   -1.5715    8.2195 H         1 RES1    0.0000
     24 H8        -0.3569   -0.6592    9.4928 H         1 RES1    0.0000
     25 H9         0.9677   -1.1844    8.8386 H         1 RES1    0.0000
     26 C8         4.1636    7.3484    7.3218 C.3       1 RES1    0.0000
     27 H10        4.2814    8.1235    6.7691 H         1 RES1    0.0000
     28 H11        5.0179    6.9432    7.4916 H         1 RES1    0.0000
     29 H12        3.7609    7.6066    8.1548 H         1 RES1    0.0000
     30 C9         0.4030    6.1439    7.7513 C.ar      1 RES1    0.0000
     31 C10        0.6938    6.3552    9.0902 C.ar      1 RES1    0.0000
     32 H13        0.9343    5.6333    9.6258 H         1 RES1    0.0000
     33 C11        0.6314    7.6183    9.6410 C.ar      1 RES1    0.0000
     34 H14        0.8352    7.7594   10.5378 H         1 RES1    0.0000
     35 C12        0.2596    8.6621    8.8278 C.ar      1 RES1    0.0000
     36 C13       -0.0899    8.4844    7.5114 C.ar      1 RES1    0.0000
     37 H15       -0.3679    9.2033    6.9911 H         1 RES1    0.0000
     38 C14       -0.0179    7.2151    6.9785 C.ar      1 RES1    0.0000
     39 H16       -0.2550    7.0751    6.0907 H         1 RES1    0.0000
@<TRIPOS>BOND
     1    1    2 1
     2    3   20 2
     3    4   20 1
     4    5   21 2
     5    6   21 1
     6    7   10 2
     7    8   10 2
     8    9    1 1
     9   10   35 1
    10   11    9 1
    11   12   11 1
    12   13   11 1
    13   14   13 1
    14   15   13 1
    15   16   13 1
    16   17   16 1
    17   18    9 1
    18   19   18 1
    19   20   11 1
    20   21   16 1
    21   22    4 1
    22   23   22 1
    23   24   22 1
    24   25   22 1
    25   26    6 1
    26   27   26 1
    27   28   26 1
    28   29   26 1
    29   30   18 1
    30   31   30 ar
    31   32   31 1
    32   33   31 ar
    33   34   33 1
    34   35   33 ar
    35   36   35 ar
    36   37   36 1
    37   38   30 ar
    38   39   38 1
    39   16   18 1
    40   36   38 ar
@<TRIPOS>SUBSTRUCTURE
     1 RES1 1

@<TRIPOS>CRYSIN
   7.7660   20.9260    9.1000  90.0000  99.0800  90.0000 231 1

