# MOL2 file generated by ConQuest
# Please check atom types

@<TRIPOS>MOLECULE
BAPXEX
    40    41     1
SMALL
NO_CHARGES
****
Generated from CSD

@<TRIPOS>ATOM
      1 O1        -4.7547   17.2886    8.2824 O.3       1 RES1    0.0000
      2 H1        -4.9423   17.0554    9.0459 H         1 RES1    0.0000
      3 O2        -2.4506   19.6975    9.3353 O.2       1 RES1    0.0000
      4 O3        -3.5623   20.6567    7.6458 O.3       1 RES1    0.0000
      5 O4         0.0089   16.1188    8.3421 O.2       1 RES1    0.0000
      6 O5        -0.2667   14.6118    6.7153 O.3       1 RES1    0.0000
      7 N1        -3.3247   17.2249    8.0980 N.3       1 RES1    0.0000
      8 C1        -2.9422   18.4221    7.3498 C.3       1 RES1    0.0000
      9 H2        -3.5494   18.5582    6.5925 H         1 RES1    0.0000
     10 C2        -1.5603   18.0321    6.8522 C.3       1 RES1    0.0000
     11 H3        -0.8833   18.2488    7.5118 H         1 RES1    0.0000
     12 H4        -1.3496   18.4934    6.0244 H         1 RES1    0.0000
     13 C3        -1.6363   16.5107    6.6268 C.3       1 RES1    0.0000
     14 H5        -1.5880   16.3176    5.6669 H         1 RES1    0.0000
     15 C4        -3.0466   16.1211    7.1666 C.3       1 RES1    0.0000
     16 H6        -3.6860   16.1733    6.4260 H         1 RES1    0.0000
     17 C5        -3.1814   14.7765    7.8148 C.ar      1 RES1    0.0000
     18 C6        -2.8329   14.5656    9.1419 C.ar      1 RES1    0.0000
     19 H7        -2.5544   15.2830    9.6641 H         1 RES1    0.0000
     20 C7        -2.8966   13.3005    9.6941 C.ar      1 RES1    0.0000
     21 H8        -2.6629   13.1803   10.5861 H         1 RES1    0.0000
     22 C8        -3.3016   12.2080    8.9473 C.ar      1 RES1    0.0000
     23 C9        -3.6920   12.4297    7.6395 C.ar      1 RES1    0.0000
     24 H9        -4.0017   11.7172    7.1270 H         1 RES1    0.0000
     25 C10       -3.6282   13.6951    7.0803 C.ar      1 RES1    0.0000
     26 H10       -3.8906   13.8178    6.1970 H         1 RES1    0.0000
     27 C11       -3.3102   10.8189    9.5399 C.3       1 RES1    0.0000
     28 H11       -3.6077   10.1914    8.8777 H         1 RES1    0.0000
     29 H12       -3.9042   10.7955   10.2929 H         1 RES1    0.0000
     30 H13       -2.4225   10.5865    9.8244 H         1 RES1    0.0000
     31 C12       -2.9442   19.6365    8.2463 C.2       1 RES1    0.0000
     32 C13       -3.6169   21.8865    8.4004 C.3       1 RES1    0.0000
     33 H14       -4.0829   22.5545    7.8914 H         1 RES1    0.0000
     34 H15       -2.7244   22.1887    8.5845 H         1 RES1    0.0000
     35 H16       -4.0794   21.7331    9.2282 H         1 RES1    0.0000
     36 C14       -0.5434   15.7760    7.3410 C.2       1 RES1    0.0000
     37 C15        0.6911   13.7582    7.3850 C.3       1 RES1    0.0000
     38 H17        0.8230   12.9587    6.8699 H         1 RES1    0.0000
     39 H18        0.3583   13.5252    8.2551 H         1 RES1    0.0000
     40 H19        1.5253   14.2233    7.4757 H         1 RES1    0.0000
@<TRIPOS>BOND
     1    1    2 1
     2    3   31 2
     3    4   31 1
     4    5   36 2
     5    6   36 1
     6    7    1 1
     7    8    7 1
     8    9    8 1
     9   10    8 1
    10   11   10 1
    11   12   10 1
    12   13   10 1
    13   14   13 1
    14   15    7 1
    15   16   15 1
    16   17   15 1
    17   18   17 ar
    18   19   18 1
    19   20   18 ar
    20   21   20 1
    21   22   20 ar
    22   23   22 ar
    23   24   23 1
    24   25   17 ar
    25   26   25 1
    26   27   22 1
    27   28   27 1
    28   29   27 1
    29   30   27 1
    30   31    8 1
    31   32    4 1
    32   33   32 1
    33   34   32 1
    34   35   32 1
    35   36   13 1
    36   37    6 1
    37   38   37 1
    38   39   37 1
    39   40   37 1
    40   13   15 1
    41   23   25 ar
@<TRIPOS>SUBSTRUCTURE
     1 RES1 1

@<TRIPOS>CRYSIN
   7.8659   20.9012    8.8850  90.0000  97.6280  90.0000 231 1

