# MOL2 file generated by ConQuest
# Please check atom types

@<TRIPOS>MOLECULE
BAPYIC
    32    32     1
SMALL
NO_CHARGES
****
Generated from CSD

@<TRIPOS>ATOM
      1 O1         3.5507    1.6857    0.1168 O.3       1 RES1    0.0000
      2 O2         2.7840   -0.9116    0.7091 O.3       1 RES1    0.0000
      3 O3         0.6814   -1.6875    0.7409 O.2       1 RES1    0.0000
      4 O4         1.9983    2.4462    1.6957 O.3       1 RES1    0.0000
      5 N1         5.9962    0.7720    2.6820 N.pl3     1 RES1    0.0000
      6 O5         6.9607    1.4907    2.3928 O.2       1 RES1    0.0000
      7 O6         6.0448   -0.0439    3.6175 O.2       1 RES1    0.0000
      8 C1         5.8543    1.9651   -0.0834 C.3       1 RES1    0.0000
      9 H1         6.0693    2.8956    0.1403 H         1 RES1    0.0000
     10 H2         5.6011    1.9056   -1.0274 H         1 RES1    0.0000
     11 H3         6.6387    1.4011    0.0805 H         1 RES1    0.0000
     12 C2         4.7225    1.5004    0.7644 C.2       1 RES1    0.0000
     13 C3         2.3091    1.4240    0.8164 C.3       1 RES1    0.0000
     14 H4         1.5698    1.3237    0.1511 H         1 RES1    0.0000
     15 C4         1.6277    3.6830    1.0460 C.3       1 RES1    0.0000
     16 H5         0.9698    3.5053    0.3287 H         1 RES1    0.0000
     17 H6         2.4269    4.1061    0.6418 H         1 RES1    0.0000
     18 C5         1.0304    4.5916    2.0793 C.3       1 RES1    0.0000
     19 H7         0.2600    4.1517    2.4944 H         1 RES1    0.0000
     20 H8         0.7418    5.4248    1.6535 H         1 RES1    0.0000
     21 H9         1.7019    4.7912    2.7662 H         1 RES1    0.0000
     22 C6         2.4305    0.1529    1.6250 C.3       1 RES1    0.0000
     23 H10        1.5688   -0.0536    2.0882 H         1 RES1    0.0000
     24 C7         1.8073   -1.7636    0.3415 C.2       1 RES1    0.0000
     25 C8         2.3402   -2.8171   -0.5839 C.3       1 RES1    0.0000
     26 H11        2.8888   -3.4507   -0.0756 H         1 RES1    0.0000
     27 H12        2.8870   -2.3951   -1.2786 H         1 RES1    0.0000
     28 H13        1.5920   -3.2938   -1.0009 H         1 RES1    0.0000
     29 C9         3.5612    0.2731    2.6328 C.3       1 RES1    0.0000
     30 H14        3.2694    0.8301    3.3972 H         1 RES1    0.0000
     31 H15        3.7994   -0.6246    2.9772 H         1 RES1    0.0000
     32 C10        4.7589    0.8987    1.9812 C.2       1 RES1    0.0000
@<TRIPOS>BOND
     1    1   12 1
     2    2   22 1
     3    3   24 2
     4    4   13 1
     5    5    6 2
     6    7    5 2
     7    8    9 1
     8   10    8 1
     9   11    8 1
    10   12    8 1
    11   13    1 1
    12   14   13 1
    13   15    4 1
    14   16   15 1
    15   17   15 1
    16   18   15 1
    17   19   18 1
    18   20   18 1
    19   21   18 1
    20   22   13 1
    21   23   22 1
    22   24    2 1
    23   25   24 1
    24   26   25 1
    25   27   25 1
    26   28   25 1
    27   29   22 1
    28   30   29 1
    29   31   29 1
    30   32    5 1
    31   12   32 2
    32   29   32 1
@<TRIPOS>SUBSTRUCTURE
     1 RES1 1

@<TRIPOS>CRYSIN
  11.9510    9.9300   10.0250  90.0000 101.8100  90.0000  14 1

