# MOL2 file generated by ConQuest
# Please check atom types

@<TRIPOS>MOLECULE
BAPZOK
    27    28     1
SMALL
NO_CHARGES
****
Generated from CSD

@<TRIPOS>ATOM
      1 O1         7.5625    5.3438    3.9350 O.3       1 RES1    0.0000
      2 O2         8.3678    3.4425    4.8023 O.2       1 RES1    0.0000
      3 O3         2.7052    6.5442    7.5804 O.2       1 RES1    0.0000
      4 O4         3.5671    7.2877    5.7843 O.2       1 RES1    0.0000
      5 C1         7.5943    4.3483    4.8401 C.2       1 RES1    0.0000
      6 C2         8.4965    5.2906    2.8738 C.ar      1 RES1    0.0000
      7 N1         3.5564    6.5362    6.7285 N.pl3     1 RES1    0.0000
      8 C3         6.5483    4.5089    5.8822 C.ar      1 RES1    0.0000
      9 C4         5.5654    5.4804    5.8054 C.ar      1 RES1    0.0000
     10 H1         5.5363    6.0793    5.0948 H         1 RES1    0.0000
     11 C5         4.6283    5.5319    6.8230 C.ar      1 RES1    0.0000
     12 C6         6.5655    3.6518    6.9609 C.ar      1 RES1    0.0000
     13 H2         7.2274    2.9997    7.0132 H         1 RES1    0.0000
     14 C7         5.6274    3.7406    7.9585 C.ar      1 RES1    0.0000
     15 H3         5.6603    3.1559    8.6814 H         1 RES1    0.0000
     16 C8         9.5388    6.1574    2.8905 C.ar      1 RES1    0.0000
     17 H4         9.6743    6.7350    3.6067 H         1 RES1    0.0000
     18 C9         8.2622    4.4477    1.8317 C.ar      1 RES1    0.0000
     19 H5         7.5279    3.8772    1.8462 H         1 RES1    0.0000
     20 C10        4.6433    4.6881    7.8918 C.ar      1 RES1    0.0000
     21 H6         3.9990    4.7547    8.5591 H         1 RES1    0.0000
     22 C11       10.1736    5.2808    0.7551 C.ar      1 RES1    0.0000
     23 H7        10.7579    5.2639    0.0323 H         1 RES1    0.0000
     24 C12       10.3969    6.1503    1.7983 C.ar      1 RES1    0.0000
     25 H8        11.1227    6.7323    1.7717 H         1 RES1    0.0000
     26 C13        9.1011    4.4459    0.7796 C.ar      1 RES1    0.0000
     27 H9         8.9464    3.8710    0.0645 H         1 RES1    0.0000
@<TRIPOS>BOND
     1    1    5 1
     2    2    5 2
     3    3    7 2
     4    4    7 2
     5    5    8 1
     6    6    1 1
     7    7   11 1
     8    8    9 ar
     9    9   10 1
    10   11    9 ar
    11   12    8 ar
    12   13   12 1
    13   14   12 ar
    14   15   14 1
    15   16    6 ar
    16   17   16 1
    17   18    6 ar
    18   19   18 1
    19   20   11 ar
    20   21   20 1
    21   22   23 1
    22   24   16 ar
    23   25   24 1
    24   26   18 ar
    25   27   26 1
    26   14   20 ar
    27   22   24 ar
    28   22   26 ar
@<TRIPOS>SUBSTRUCTURE
     1 RES1 1

@<TRIPOS>CRYSIN
  11.7790    8.8723   11.8270  90.0000 109.8900  90.0000  14 1

