# MOL2 file generated by ConQuest
# Please check atom types

@<TRIPOS>MOLECULE
BAQCED
    65    70     1
SMALL
NO_CHARGES
****
Generated from CSD

@<TRIPOS>ATOM
      1 C1         3.8475    2.3962    5.8895 C.ar      1 RES1    0.0000
      2 H1         4.2386    2.7395    6.6613 H         1 RES1    0.0000
      3 C2         2.6226    1.7483    5.9245 C.ar      1 RES1    0.0000
      4 H2         2.1688    1.6786    6.7339 H         1 RES1    0.0000
      5 C3         2.0553    1.1983    4.7814 C.ar      1 RES1    0.0000
      6 H3         1.2425    0.7505    4.8464 H         1 RES1    0.0000
      7 C4         2.6765    1.3038    3.5416 C.ar      1 RES1    0.0000
      8 H4         2.3056    0.9180    2.7804 H         1 RES1    0.0000
      9 C5         3.8729    2.0059    3.4849 C.ar      1 RES1    0.0000
     10 C6         4.4638    2.5097    4.6549 C.ar      1 RES1    0.0000
     11 C7         5.8489    3.0123    2.9530 C.2       1 RES1    0.0000
     12 C8         6.7187    3.3772    1.9455 C.2       1 RES1    0.0000
     13 C9         6.0567    2.9299    0.7460 C.2       1 RES1    0.0000
     14 C10        4.8337    2.3311    1.0369 C.2       1 RES1    0.0000
     15 C11        3.7769    1.8618    0.1401 C.ar      1 RES1    0.0000
     16 C12        2.4308    2.1003    0.4188 C.ar      1 RES1    0.0000
     17 H5         2.2006    2.5812    1.1807 H         1 RES1    0.0000
     18 C13        1.4316    1.6330   -0.4201 C.ar      1 RES1    0.0000
     19 H6         0.5336    1.7630   -0.2127 H         1 RES1    0.0000
     20 C14        1.8051    0.9662   -1.5783 C.ar      1 RES1    0.0000
     21 C15        3.1238    0.7797   -1.9261 C.ar      1 RES1    0.0000
     22 H7         3.3474    0.3681   -2.7295 H         1 RES1    0.0000
     23 C16        4.1108    1.2157   -1.0588 C.ar      1 RES1    0.0000
     24 H8         5.0053    1.0789   -1.2737 H         1 RES1    0.0000
     25 C17        6.5782    3.0881   -0.5747 C.1       1 RES1    0.0000
     26 C18        7.9918    4.1172    2.0415 C.ar      1 RES1    0.0000
     27 C19        8.2733    5.1824    1.1737 C.ar      1 RES1    0.0000
     28 H9         7.6567    5.4150    0.5171 H         1 RES1    0.0000
     29 C20        9.4586    5.8948    1.2811 C.ar      1 RES1    0.0000
     30 H10        9.6264    6.5872    0.6827 H         1 RES1    0.0000
     31 C21       10.4057    5.6015    2.2624 C.ar      1 RES1    0.0000
     32 C22       10.1153    4.5432    3.1289 C.ar      1 RES1    0.0000
     33 H11       10.7237    4.3264    3.7981 H         1 RES1    0.0000
     34 C23        8.9435    3.8057    3.0168 C.ar      1 RES1    0.0000
     35 H12        8.7909    3.0951    3.5981 H         1 RES1    0.0000
     36 C24       11.6701    6.4328    2.3818 C.3       1 RES1    0.0000
     37 H13       11.7712    6.9304    1.5437 H         1 RES1    0.0000
     38 C25       11.5653    7.4576    3.5052 C.3       1 RES1    0.0000
     39 H14       10.7899    8.0061    3.3663 H         1 RES1    0.0000
     40 H15       12.3504    8.0087    3.5090 H         1 RES1    0.0000
     41 H16       11.4884    7.0024    4.3471 H         1 RES1    0.0000
     42 C26       12.9160    5.5688    2.5474 C.3       1 RES1    0.0000
     43 H17       12.8658    5.0920    3.3791 H         1 RES1    0.0000
     44 H18       13.6961    6.1280    2.5461 H         1 RES1    0.0000
     45 H19       12.9696    4.9419    1.8226 H         1 RES1    0.0000
     46 C27        6.4074    4.0238    5.2058 C.3       1 RES1    0.0000
     47 H20        5.7709    4.6217    5.6284 H         1 RES1    0.0000
     48 H21        7.0091    4.5641    4.6706 H         1 RES1    0.0000
     49 C28        7.2096    3.3257    6.2865 C.ar      1 RES1    0.0000
     50 C29        7.7636    4.1021    7.3060 C.ar      1 RES1    0.0000
     51 H22        7.6169    5.0198    7.3186 H         1 RES1    0.0000
     52 C30        8.5313    3.5119    8.2997 C.ar      1 RES1    0.0000
     53 H23        8.9054    4.0376    8.9705 H         1 RES1    0.0000
     54 C31        8.7422    2.1484    8.2952 C.ar      1 RES1    0.0000
     55 H24        9.2631    1.7541    8.9565 H         1 RES1    0.0000
     56 C32        8.1745    1.3704    7.3020 C.ar      1 RES1    0.0000
     57 H25        8.3025    0.4491    7.3071 H         1 RES1    0.0000
     58 C33        7.4125    1.9597    6.2947 C.ar      1 RES1    0.0000
     59 H26        7.0400    1.4317    5.6258 H         1 RES1    0.0000
     60 N1         5.6814    3.1149    4.3216 N.3       1 RES1    0.0000
     61 N2         4.7327    2.3697    2.4276 N.pl3     1 RES1    0.0000
     62 N3         7.0069    3.2106   -1.6329 N.1       1 RES1    0.0000
     63 N4         0.7572    0.4400   -2.4588 N.pl3     1 RES1    0.0000
     64 O1        -0.3976    0.4411   -2.0457 O.2       1 RES1    0.0000
     65 O2         1.0862    0.0373   -3.5724 O.2       1 RES1    0.0000
@<TRIPOS>BOND
     1    1    2 1
     2    3    1 ar
     3    4    3 1
     4    5    3 ar
     5    6    5 1
     6    7    5 ar
     7    8    7 1
     8    9    7 ar
     9   10    1 ar
    10   11   12 2
    11   12   13 1
    12   13   14 2
    13   14   15 1
    14   15   16 ar
    15   16   17 1
    16   18   16 ar
    17   19   18 1
    18   20   18 ar
    19   21   20 ar
    20   22   21 1
    21   23   15 ar
    22   24   23 1
    23   25   13 1
    24   26   12 1
    25   27   26 ar
    26   28   27 1
    27   29   27 ar
    28   30   29 1
    29   31   29 ar
    30   32   31 ar
    31   33   32 1
    32   34   26 ar
    33   35   34 1
    34   36   31 1
    35   37   36 1
    36   38   36 1
    37   39   38 1
    38   40   38 1
    39   41   38 1
    40   42   36 1
    41   43   42 1
    42   44   42 1
    43   45   42 1
    44   46   47 1
    45   48   46 1
    46   49   46 1
    47   50   49 ar
    48   51   50 1
    49   52   50 ar
    50   53   52 1
    51   54   52 ar
    52   55   54 1
    53   56   54 ar
    54   57   56 1
    55   58   49 ar
    56   59   58 1
    57   60   10 1
    58   61    9 1
    59   62   25 3
    60   63   20 1
    61   64   63 2
    62   65   63 2
    63    9   10 ar
    64   11   60 1
    65   11   61 1
    66   14   61 1
    67   21   23 ar
    68   32   34 ar
    69   46   60 1
    70   56   58 ar
@<TRIPOS>SUBSTRUCTURE
     1 RES1 1

@<TRIPOS>CRYSIN
   8.9789   12.0820   13.2240  85.8480  74.4190  71.5150   2 1

