# MOL2 file generated by ConQuest
# Please check atom types

@<TRIPOS>MOLECULE
BAQCON
    67    72     1
SMALL
NO_CHARGES
****
Generated from CSD

@<TRIPOS>ATOM
      1 N1         2.3393   15.5909    6.3845 N.pl3     1 RES1    0.0000
      2 N2         1.3562   16.8365    4.8039 N.3       1 RES1    0.0000
      3 C1         1.2133   15.7034    5.5864 C.2       1 RES1    0.0000
      4 O1         1.4565   11.7743    7.7350 O.3       1 RES1    0.0000
      5 C2         3.1792   16.7071    6.1700 C.ar      1 RES1    0.0000
      6 C3         2.2448   14.4371    7.1590 C.2       1 RES1    0.0000
      7 C4         3.3265   14.0367    8.0686 C.ar      1 RES1    0.0000
      8 C5         1.0207   13.8601    6.8161 C.2       1 RES1    0.0000
      9 C6         0.3500   14.6575    5.8248 C.2       1 RES1    0.0000
     10 C7         0.9424   16.7261    2.3522 C.ar      1 RES1    0.0000
     11 C8         2.5673   17.4341    5.1298 C.ar      1 RES1    0.0000
     12 C9         4.3440   17.1436    6.7675 C.ar      1 RES1    0.0000
     13 H1         4.7219   16.6851    7.4832 H         1 RES1    0.0000
     14 C10       -0.9118   14.3752    5.1103 C.ar      1 RES1    0.0000
     15 C11        0.5028   17.2596    3.6927 C.3       1 RES1    0.0000
     16 H2         0.4939   18.2292    3.6556 H         1 RES1    0.0000
     17 H3        -0.4046   16.9636    3.8647 H         1 RES1    0.0000
     18 C12        3.0558   13.6393    9.3786 C.ar      1 RES1    0.0000
     19 H4         2.1753   13.5985    9.6734 H         1 RES1    0.0000
     20 O2        -0.6699   12.2792    7.3408 O.2       1 RES1    0.0000
     21 C13        0.8738   17.5300    1.2344 C.ar      1 RES1    0.0000
     22 H5         0.5862   18.4108    1.3149 H         1 RES1    0.0000
     23 C14        0.4844   12.5916    7.3294 C.2       1 RES1    0.0000
     24 C15        4.9294   18.2943    6.2564 C.ar      1 RES1    0.0000
     25 H6         5.7148   18.6152    6.6372 H         1 RES1    0.0000
     26 C16        3.1807   18.5689    4.6124 C.ar      1 RES1    0.0000
     27 H7         2.8059   19.0391    3.9038 H         1 RES1    0.0000
     28 C17       -1.9417   15.3039    5.0761 C.ar      1 RES1    0.0000
     29 H8        -1.8666   16.0887    5.5684 H         1 RES1    0.0000
     30 C18       -3.2504   13.9103    3.6040 C.ar      1 RES1    0.0000
     31 C19       -1.0959   13.1899    4.4080 C.ar      1 RES1    0.0000
     32 H9        -0.4326   12.5388    4.4293 H         1 RES1    0.0000
     33 C20        5.3723   13.3838    9.7905 C.ar      1 RES1    0.0000
     34 C21        4.6480   14.0450    7.6358 C.ar      1 RES1    0.0000
     35 H10        4.8380   14.2600    6.7505 H         1 RES1    0.0000
     36 C22        4.3632   18.9694    5.1909 C.ar      1 RES1    0.0000
     37 H11        4.7969   19.7203    4.8533 H         1 RES1    0.0000
     38 C23       -3.0807   15.0790    4.3184 C.ar      1 RES1    0.0000
     39 H12       -3.7445   15.7299    4.2906 H         1 RES1    0.0000
     40 C24        5.6853   13.7405    8.4984 C.ar      1 RES1    0.0000
     41 H13        6.5691   13.7756    8.2139 H         1 RES1    0.0000
     42 C25        1.3729   15.4234    2.1940 C.ar      1 RES1    0.0000
     43 H14        1.4192   14.8640    2.9366 H         1 RES1    0.0000
     44 C26        4.0760   13.3092   10.2350 C.ar      1 RES1    0.0000
     45 H15        3.8917   13.0384   11.1056 H         1 RES1    0.0000
     46 C27       -2.2536   12.9616    3.6744 C.ar      1 RES1    0.0000
     47 H16       -2.3577   12.1543    3.2238 H         1 RES1    0.0000
     48 N3         6.4760   13.0839   10.7228 N.pl3     1 RES1    0.0000
     49 C28        1.0655   10.5011    8.3011 C.3       1 RES1    0.0000
     50 H17        0.5356    9.9986    7.6629 H         1 RES1    0.0000
     51 H18        0.5350   10.6390    9.1010 H         1 RES1    0.0000
     52 O3         6.1712   12.6433   11.8381 O.2       1 RES1    0.0000
     53 C29        1.6642   15.7511   -0.1499 C.ar      1 RES1    0.0000
     54 H19        1.9094   15.4286   -0.9867 H         1 RES1    0.0000
     55 C30        1.2328   17.0363   -0.0096 C.ar      1 RES1    0.0000
     56 H20        1.1782   17.5873   -0.7561 H         1 RES1    0.0000
     57 C31        1.7335   14.9371    0.9556 C.ar      1 RES1    0.0000
     58 H21        2.0237   14.0587    0.8675 H         1 RES1    0.0000
     59 C32       -4.4791   13.6832    2.7432 C.3       1 RES1    0.0000
     60 H22       -4.3875   14.1692    1.9206 H         1 RES1    0.0000
     61 H23       -5.2588   13.9905    3.2121 H         1 RES1    0.0000
     62 H24       -4.5674   12.7462    2.5537 H         1 RES1    0.0000
     63 C33        2.2922    9.7716    8.6266 C.3       1 RES1    0.0000
     64 H25        2.8122    9.6459    7.8290 H         1 RES1    0.0000
     65 H26        2.0665    8.9148    8.9974 H         1 RES1    0.0000
     66 H27        2.8037   10.2726    9.2651 H         1 RES1    0.0000
     67 O4         7.6183   13.2957   10.3479 O.2       1 RES1    0.0000
@<TRIPOS>BOND
     1    1    3 1
     2    2    3 1
     3    3    9 2
     4    4   23 1
     5    5    1 1
     6    6    1 1
     7    7    6 1
     8    8    6 2
     9    9    8 1
    10   10   15 1
    11   11    2 1
    12   12    5 ar
    13   13   12 1
    14   14    9 1
    15   15    2 1
    16   16   15 1
    17   17   15 1
    18   18    7 ar
    19   19   18 1
    20   20   23 2
    21   21   10 ar
    22   22   21 1
    23   23    8 1
    24   24   12 ar
    25   25   24 1
    26   26   11 ar
    27   27   26 1
    28   28   14 ar
    29   29   28 1
    30   30   38 ar
    31   31   14 ar
    32   32   31 1
    33   33   40 ar
    34   34    7 ar
    35   35   34 1
    36   36   24 ar
    37   37   36 1
    38   38   28 ar
    39   39   38 1
    40   40   34 ar
    41   41   40 1
    42   42   10 ar
    43   43   42 1
    44   44   18 ar
    45   45   44 1
    46   46   30 ar
    47   47   46 1
    48   48   33 1
    49   49    4 1
    50   50   49 1
    51   51   49 1
    52   52   48 2
    53   53   54 1
    54   55   21 ar
    55   56   55 1
    56   57   42 ar
    57   58   57 1
    58   59   30 1
    59   60   59 1
    60   61   59 1
    61   62   59 1
    62   63   49 1
    63   64   63 1
    64   65   63 1
    65   66   63 1
    66   67   48 2
    67    5   11 ar
    68   26   36 ar
    69   31   46 ar
    70   33   44 ar
    71   53   55 ar
    72   53   57 ar
@<TRIPOS>SUBSTRUCTURE
     1 RES1 1

@<TRIPOS>CRYSIN
   9.1854   15.1380   19.9540  90.0000 101.7150  90.0000  14 1

