# MOL2 file generated by ConQuest
# Please check atom types

@<TRIPOS>MOLECULE
BAQFIK
    56    59     1
SMALL
NO_CHARGES
****
Generated from CSD

@<TRIPOS>ATOM
      1 C1         2.5407   -2.3989    2.3170 C.ar      1 RES1    0.0000
      2 H1         2.9702   -1.6116    2.0711 H         1 RES1    0.0000
      3 C2         2.7731   -3.5750    1.6086 C.ar      1 RES1    0.0000
      4 H2         3.3704   -3.5698    0.8951 H         1 RES1    0.0000
      5 C3         2.1256   -4.7565    1.9522 C.ar      1 RES1    0.0000
      6 C4         2.3492   -6.0344    1.1700 C.3       1 RES1    0.0000
      7 H3         1.5155   -6.3334    0.7999 H         1 RES1    0.0000
      8 H4         2.7008   -6.7097    1.7544 H         1 RES1    0.0000
      9 H5         2.9732   -5.8695    0.4594 H         1 RES1    0.0000
     10 C5         1.2484   -4.7411    3.0322 C.ar      1 RES1    0.0000
     11 H6         0.8053   -5.5238    3.2695 H         1 RES1    0.0000
     12 C6         1.0192   -3.5797    3.7675 C.ar      1 RES1    0.0000
     13 H7         0.4432   -3.5876    4.4976 H         1 RES1    0.0000
     14 C7         1.6659   -2.4092    3.3902 C.ar      1 RES1    0.0000
     15 C8         2.4192   -0.9083    5.1641 C.2       1 RES1    0.0000
     16 C9         3.5884   -1.7998    5.4818 C.3       1 RES1    0.0000
     17 H8         4.1754   -1.8958    4.7161 H         1 RES1    0.0000
     18 H9         3.2927   -2.6785    5.7673 H         1 RES1    0.0000
     19 C10        4.2866   -1.0476    6.6273 C.3       1 RES1    0.0000
     20 H10        4.3733   -1.6186    7.4072 H         1 RES1    0.0000
     21 H11        5.1704   -0.7561    6.3546 H         1 RES1    0.0000
     22 C11        3.3973    0.1549    6.9393 C.2       1 RES1    0.0000
     23 C12        2.3226    0.1765    5.9600 C.2       1 RES1    0.0000
     24 C13        1.2720    1.2422    5.7975 C.3       1 RES1    0.0000
     25 H12        0.9023    1.4675    6.6772 H         1 RES1    0.0000
     26 C14        1.8725    2.5000    5.1663 C.ar      1 RES1    0.0000
     27 C15        2.0776    3.6562    5.9167 C.ar      1 RES1    0.0000
     28 H13        1.8282    3.6720    6.8125 H         1 RES1    0.0000
     29 C16        2.6522    4.7915    5.3410 C.ar      1 RES1    0.0000
     30 H14        2.7929    5.5510    5.8595 H         1 RES1    0.0000
     31 C17        3.0134    4.7934    4.0014 C.ar      1 RES1    0.0000
     32 H15        3.3707    5.5524    3.6010 H         1 RES1    0.0000
     33 C18        2.8241    3.6265    3.2821 C.ar      1 RES1    0.0000
     34 C19        2.2716    2.4759    3.8315 C.ar      1 RES1    0.0000
     35 H16        2.1704    1.7068    3.3185 H         1 RES1    0.0000
     36 C20        0.1630    0.6717    4.9173 C.2       1 RES1    0.0000
     37 C21       -1.1384    1.3846    4.8574 C.2       1 RES1    0.0000
     38 C22       -2.4777    3.0230    5.9487 C.3       1 RES1    0.0000
     39 H17       -2.9490    2.9785    5.1131 H         1 RES1    0.0000
     40 H18       -2.3022    3.9406    6.1687 H         1 RES1    0.0000
     41 H19       -3.0128    2.6252    6.6400 H         1 RES1    0.0000
     42 C23        0.3332   -0.4300    4.1504 C.2       1 RES1    0.0000
     43 C24       -0.7511   -0.9444    3.2198 C.2       1 RES1    0.0000
     44 C25       -1.5648   -0.9145    1.0222 C.3       1 RES1    0.0000
     45 H20       -1.6589   -1.8694    1.0556 H         1 RES1    0.0000
     46 H21       -1.2910   -0.6499    0.1412 H         1 RES1    0.0000
     47 H22       -2.4055   -0.5021    1.2326 H         1 RES1    0.0000
     48 N1         1.4986   -1.2040    4.1831 N.pl3     1 RES1    0.0000
     49 N2         3.2476    3.5922    1.8692 N.pl3     1 RES1    0.0000
     50 O1         3.5756    0.9550    7.8519 O.2       1 RES1    0.0000
     51 O2         3.6290    4.6424    1.3598 O.2       1 RES1    0.0000
     52 O3         3.1989    2.5198    1.2699 O.2       1 RES1    0.0000
     53 O4        -2.0210    1.1732    4.0640 O.2       1 RES1    0.0000
     54 O5        -1.2203    2.3026    5.8342 O.3       1 RES1    0.0000
     55 O6        -1.6179   -1.6981    3.5752 O.2       1 RES1    0.0000
     56 O7        -0.5613   -0.4917    1.9896 O.3       1 RES1    0.0000
@<TRIPOS>BOND
     1    1    2 1
     2    3    1 ar
     3    4    3 1
     4    5    3 ar
     5    6    5 1
     6    7    6 1
     7    8    6 1
     8    9    6 1
     9   10    5 ar
    10   11   10 1
    11   12   10 ar
    12   13   12 1
    13   14    1 ar
    14   15   16 1
    15   16   17 1
    16   18   16 1
    17   19   16 1
    18   20   19 1
    19   21   19 1
    20   22   19 1
    21   23   15 2
    22   24   23 1
    23   25   24 1
    24   26   24 1
    25   27   26 ar
    26   28   27 1
    27   29   27 ar
    28   30   29 1
    29   31   29 ar
    30   32   31 1
    31   33   31 ar
    32   34   26 ar
    33   35   34 1
    34   36   24 1
    35   37   36 1
    36   38   39 1
    37   40   38 1
    38   41   38 1
    39   42   36 2
    40   43   42 1
    41   44   45 1
    42   46   44 1
    43   47   44 1
    44   48   14 1
    45   49   33 1
    46   50   22 2
    47   51   49 2
    48   52   49 2
    49   53   37 2
    50   54   37 1
    51   55   43 2
    52   56   43 1
    53   12   14 ar
    54   15   48 1
    55   22   23 1
    56   33   34 ar
    57   38   54 1
    58   42   48 1
    59   44   56 1
@<TRIPOS>SUBSTRUCTURE
     1 RES1 1

@<TRIPOS>CRYSIN
   8.0267    9.9400   15.5570  93.9730 104.9210 105.3530   2 1

