# MOL2 file generated by ConQuest
# Please check atom types

@<TRIPOS>MOLECULE
BAQJAE
    44    46     1
SMALL
NO_CHARGES
****
Generated from CSD

@<TRIPOS>ATOM
      1 O1         0.1875    7.8033   11.4773 O.3       1 RES1    0.0000
      2 O2        -0.6474    7.2328    9.3688 O.3       1 RES1    0.0000
      3 O3        -0.9065   11.5652   10.0571 O.2       1 RES1    0.0000
      4 O4         0.7906   12.3183   11.0612 O.2       1 RES1    0.0000
      5 O5         1.7153   11.2768    7.7463 O.3       1 RES1    0.0000
      6 O6        -3.2010    9.0769   11.8647 O.2       1 RES1    0.0000
      7 O7        -3.7330   10.9753   12.7004 O.2       1 RES1    0.0000
      8 N1         0.1613   11.4131   10.5970 N.pl3     1 RES1    0.0000
      9 N2        -2.9621   10.0460   12.5687 N.pl3     1 RES1    0.0000
     10 C1         0.4837    7.2063   10.1928 C.3       1 RES1    0.0000
     11 C2         1.5070    8.0480    9.4678 C.3       1 RES1    0.0000
     12 H1         1.6798    7.6582    8.5972 H         1 RES1    0.0000
     13 H2         2.3378    8.0376    9.9678 H         1 RES1    0.0000
     14 C3         1.0524    9.4875    9.2862 C.3       1 RES1    0.0000
     15 H3         0.2377    9.4947    8.7419 H         1 RES1    0.0000
     16 C4         0.7169   10.0223   10.6888 C.3       1 RES1    0.0000
     17 H4         1.5390   10.0470   11.2212 H         1 RES1    0.0000
     18 C5        -0.3081    9.1353   11.4043 C.3       1 RES1    0.0000
     19 H5        -1.1581    9.1489   10.9159 H         1 RES1    0.0000
     20 C6         0.9684    5.8162   10.5309 C.3       1 RES1    0.0000
     21 H6         0.2733    5.3366   10.9853 H         1 RES1    0.0000
     22 H7         1.7409    5.8755   11.0982 H         1 RES1    0.0000
     23 H8         1.2001    5.3534    9.7218 H         1 RES1    0.0000
     24 C7        -1.7632    6.4445    9.7580 C.3       1 RES1    0.0000
     25 H9        -2.4681    6.5486    9.1139 H         1 RES1    0.0000
     26 H10       -2.0727    6.7316   10.6206 H         1 RES1    0.0000
     27 H11       -1.5038    5.5212    9.8014 H         1 RES1    0.0000
     28 C8         2.0890   10.3190    8.6110 C.2       1 RES1    0.0000
     29 C9         3.3725   10.3274    8.7289 C.2       1 RES1    0.0000
     30 H12        3.8703    9.7616    9.2746 H         1 RES1    0.0000
     31 C10        3.8923   11.3329    7.8967 C.2       1 RES1    0.0000
     32 H13        4.7900   11.5461    7.7809 H         1 RES1    0.0000
     33 C11        2.8972   11.8953    7.3308 C.2       1 RES1    0.0000
     34 H14        2.9505   12.6070    6.7345 H         1 RES1    0.0000
     35 C12       -0.5282    9.5886   12.8320 C.ar      1 RES1    0.0000
     36 C13       -1.7161   10.0668   13.3530 C.ar      1 RES1    0.0000
     37 C14       -1.8194   10.5631   14.6442 C.ar      1 RES1    0.0000
     38 H15       -2.6298   10.8931   14.9568 H         1 RES1    0.0000
     39 C15       -0.7202   10.5607   15.4475 C.ar      1 RES1    0.0000
     40 H16       -0.7792   10.8948   16.3144 H         1 RES1    0.0000
     41 C16        0.4759   10.0655   14.9858 C.ar      1 RES1    0.0000
     42 H17        1.2212   10.0470   15.5416 H         1 RES1    0.0000
     43 C17        0.5614    9.5973   13.6958 C.ar      1 RES1    0.0000
     44 H18        1.3776    9.2748   13.3894 H         1 RES1    0.0000
@<TRIPOS>BOND
     1    1   10 1
     2    2   10 1
     3    3    8 2
     4    4    8 2
     5    5   28 1
     6    6    9 2
     7    7    9 2
     8    8   16 1
     9    9   36 1
    10   10   11 1
    11   11   12 1
    12   13   11 1
    13   14   11 1
    14   15   14 1
    15   16   14 1
    16   17   16 1
    17   18    1 1
    18   19   18 1
    19   20   10 1
    20   21   20 1
    21   22   20 1
    22   23   20 1
    23   24    2 1
    24   25   24 1
    25   26   24 1
    26   27   24 1
    27   28   14 1
    28   29   28 2
    29   30   29 1
    30   31   29 1
    31   32   31 1
    32   33    5 1
    33   34   33 1
    34   35   18 1
    35   36   35 ar
    36   37   36 ar
    37   38   37 1
    38   39   37 ar
    39   40   39 1
    40   41   39 ar
    41   42   41 1
    42   43   35 ar
    43   44   43 1
    44   16   18 1
    45   31   33 2
    46   41   43 ar
@<TRIPOS>SUBSTRUCTURE
     1 RES1 1

@<TRIPOS>CRYSIN
   7.3650   16.7870   14.6000  90.0000  97.5500  90.0000  14 1

