# MOL2 file generated by ConQuest
# Please check atom types

@<TRIPOS>MOLECULE
BAQJOS
    40    40     2
SMALL
NO_CHARGES
****
Generated from CSD

@<TRIPOS>ATOM
      1 O1        -0.4166    0.7362    1.9517 O.3       1 RES1    0.0000
      2 O2         0.3531    2.3387    6.0867 O.2       1 RES1    0.0000
      3 O3         1.7195    3.1502    4.6594 O.2       1 RES1    0.0000
      4 O4         3.3121    0.9895    2.1651 O.2       1 RES1    0.0000
      5 O5         4.4670    0.7851    3.9812 O.2       1 RES1    0.0000
      6 O6         4.6290    0.4580    3.6769 Du        2 SUP2    0.0000
      7 O7         3.3595    1.4050    2.4223 Du        2 SUP2    0.0000
      8 O8        -1.2291    4.9071    4.8545 O.3       1 RES1    0.0000
      9 N1         0.6798    2.6073    4.9476 N.pl3     1 RES1    0.0000
     10 N2         3.4786    0.5869    3.3042 N.pl3     1 RES1    0.0000
     11 C1         0.5154    1.2323    2.9116 C.3       1 RES1    0.0000
     12 H1         1.2452    1.7010    2.4570 H         1 RES1    0.0000
     13 C2         1.0588    0.0286    3.6605 C.ar      1 RES1    0.0000
     14 C3         2.4091   -0.2278    3.9005 C.ar      1 RES1    0.0000
     15 C4         2.8292   -1.2851    4.6781 C.ar      1 RES1    0.0000
     16 H2         3.7372   -1.4197    4.8259 H         1 RES1    0.0000
     17 C5         1.9152   -2.1348    5.2321 C.ar      1 RES1    0.0000
     18 H3         2.1951   -2.8476    5.7600 H         1 RES1    0.0000
     19 C6         0.5755   -1.9262    4.9998 C.ar      1 RES1    0.0000
     20 H4        -0.0529   -2.5106    5.3575 H         1 RES1    0.0000
     21 C7         0.1595   -0.8567    4.2408 C.ar      1 RES1    0.0000
     22 H5        -0.7519   -0.7229    4.1129 H         1 RES1    0.0000
     23 C8        -0.2396    2.2033    3.8314 C.3       1 RES1    0.0000
     24 H6        -1.0291    1.7566    4.2023 H         1 RES1    0.0000
     25 C9        -0.6765    3.4354    3.0309 C.3       1 RES1    0.0000
     26 H7         0.1104    3.9958    2.8657 H         1 RES1    0.0000
     27 C10       -1.6883    4.2408    3.7700 C.2       1 RES1    0.0000
     28 C11       -3.0024    4.4096    3.6880 C.2       1 RES1    0.0000
     29 H8        -3.5662    4.0252    3.0570 H         1 RES1    0.0000
     30 C12       -3.3893    5.2748    4.7327 C.2       1 RES1    0.0000
     31 H9        -4.2442    5.6003    4.8979 H         1 RES1    0.0000
     32 C13       -2.3173    5.5300    5.4159 C.2       1 RES1    0.0000
     33 H10       -2.2893    6.0599    6.1799 H         1 RES1    0.0000
     34 C14       -1.2137    2.9591    1.7117 C.2       1 RES1    0.0000
     35 H11       -1.6461    3.5803    1.1701 H         1 RES1    0.0000
     36 C15       -1.1138    1.7225    1.2673 C.2       1 RES1    0.0000
     37 C16       -1.7378    1.1695    0.0472 C.3       1 RES1    0.0000
     38 H12       -2.2147    1.8646   -0.4124 H         1 RES1    0.0000
     39 H13       -2.3484    0.4694    0.2882 H         1 RES1    0.0000
     40 H14       -1.0565    0.8162   -0.5292 H         1 RES1    0.0000
@<TRIPOS>BOND
     1    1   11 1
     2    2    9 2
     3    3    9 2
     4    4   10 2
     5    5   10 2
     6    8   27 1
     7    9   23 1
     8   10   14 1
     9   11   12 1
    10   13   11 1
    11   14   13 ar
    12   15   14 ar
    13   16   15 1
    14   17   15 ar
    15   18   17 1
    16   19   17 ar
    17   20   19 1
    18   21   13 ar
    19   22   21 1
    20   23   11 1
    21   24   23 1
    22   25   23 1
    23   26   25 1
    24   27   25 1
    25   28   27 2
    26   29   28 1
    27   30   28 1
    28   31   30 1
    29   32    8 1
    30   33   32 1
    31   34   25 1
    32   35   34 1
    33   36    1 1
    34   37   36 1
    35   38   37 1
    36   39   37 1
    37   40   37 1
    38   19   21 ar
    39   30   32 2
    40   34   36 2
@<TRIPOS>SUBSTRUCTURE
     1 RES1 1
     2 SUP2 6

@<TRIPOS>CRYSIN
   7.9030   16.3560   12.5920  90.0000  99.4300  90.0000 231 1

