# MOL2 file generated by ConQuest
# Please check atom types

@<TRIPOS>MOLECULE
BAQJEI
    41    42     1
SMALL
NO_CHARGES
****
Generated from CSD

@<TRIPOS>ATOM
      1 O1         0.4679    4.6863    5.8230 O.2       1 RES1    0.0000
      2 O2         0.1139    8.2349    9.6078 O.2       1 RES1    0.0000
      3 O3        -0.2193    8.8825    7.5967 O.2       1 RES1    0.0000
      4 O4         2.7681    2.7559    8.6396 O.2       1 RES1    0.0000
      5 O5         2.2560    4.8103    8.6540 O.2       1 RES1    0.0000
      6 N1        -0.2262    8.0219    8.4614 N.pl3     1 RES1    0.0000
      7 N2         1.9400    3.6486    8.6322 N.pl3     1 RES1    0.0000
      8 C1         1.7621    6.3234    4.7639 C.3       1 RES1    0.0000
      9 H1         2.4271    5.6311    4.7568 H         1 RES1    0.0000
     10 H2         2.0973    7.0840    5.2424 H         1 RES1    0.0000
     11 H3         1.5564    6.5780    3.8614 H         1 RES1    0.0000
     12 C2         0.5376    5.8228    5.4268 C.2       1 RES1    0.0000
     13 C3        -0.6204    6.7743    5.5354 C.3       1 RES1    0.0000
     14 H4        -1.1922    6.6610    4.7598 H         1 RES1    0.0000
     15 H5        -0.2808    7.6833    5.5211 H         1 RES1    0.0000
     16 C4        -1.4643    6.5793    6.8068 C.3       1 RES1    0.0000
     17 H6        -1.8050    5.6614    6.7617 H         1 RES1    0.0000
     18 C5        -2.7003    7.4775    6.9041 C.ar      1 RES1    0.0000
     19 C6        -3.1099    8.3107    5.8735 C.ar      1 RES1    0.0000
     20 H7        -2.6294    8.3282    5.0774 H         1 RES1    0.0000
     21 C7        -4.2247    9.1136    6.0190 C.ar      1 RES1    0.0000
     22 H8        -4.4927    9.6593    5.3151 H         1 RES1    0.0000
     23 C8        -4.9418    9.1154    7.1910 C.ar      1 RES1    0.0000
     24 H9        -5.6816    9.6714    7.2863 H         1 RES1    0.0000
     25 C9        -4.5606    8.2945    8.2165 C.ar      1 RES1    0.0000
     26 H10       -5.0442    8.2840    9.0115 H         1 RES1    0.0000
     27 C10       -3.4530    7.4829    8.0649 C.ar      1 RES1    0.0000
     28 H11       -3.2066    6.9224    8.7657 H         1 RES1    0.0000
     29 C11       -0.6507    6.6523    8.0680 C.2       1 RES1    0.0000
     30 C12       -0.2079    5.6831    8.8558 C.2       1 RES1    0.0000
     31 H12        0.3227    5.9350    9.5771 H         1 RES1    0.0000
     32 C13       -0.4804    4.2367    8.6941 C.ar      1 RES1    0.0000
     33 C14       -1.7895    3.7647    8.6642 C.ar      1 RES1    0.0000
     34 H13       -2.4908    4.3734    8.7052 H         1 RES1    0.0000
     35 C15       -2.0751    2.4191    8.5730 C.ar      1 RES1    0.0000
     36 H14       -2.9601    2.1344    8.5587 H         1 RES1    0.0000
     37 C16       -1.0625    1.4964    8.5054 C.ar      1 RES1    0.0000
     38 H15       -1.2616    0.5904    8.4419 H         1 RES1    0.0000
     39 C17        0.2466    1.9152    8.5310 C.ar      1 RES1    0.0000
     40 H16        0.9396    1.2960    8.4819 H         1 RES1    0.0000
     41 C18        0.5216    3.2655    8.6304 C.ar      1 RES1    0.0000
@<TRIPOS>BOND
     1    1   12 2
     2    2    6 2
     3    3    6 2
     4    4    7 2
     5    5    7 2
     6    6   29 1
     7    7   41 1
     8    8    9 1
     9   10    8 1
    10   11    8 1
    11   12    8 1
    12   13   12 1
    13   14   13 1
    14   15   13 1
    15   16   13 1
    16   17   16 1
    17   18   16 1
    18   19   18 ar
    19   20   19 1
    20   21   19 ar
    21   22   21 1
    22   23   21 ar
    23   24   23 1
    24   25   23 ar
    25   26   25 1
    26   27   18 ar
    27   28   27 1
    28   29   16 1
    29   30   29 2
    30   31   30 1
    31   32   30 1
    32   33   32 ar
    33   34   33 1
    34   35   33 ar
    35   36   35 1
    36   37   35 ar
    37   38   37 1
    38   39   37 ar
    39   40   39 1
    40   41   32 ar
    41   25   27 ar
    42   39   41 ar
@<TRIPOS>SUBSTRUCTURE
     1 RES1 1

@<TRIPOS>CRYSIN
   8.1600   10.0430   10.3530  92.0800  97.7300  96.3700   2 1

