# MOL2 file generated by ConQuest
# Please check atom types

@<TRIPOS>MOLECULE
BAQLUD
    19    19     1
SMALL
NO_CHARGES
****
Generated from CSD

@<TRIPOS>ATOM
      1 O1         2.1644    8.7077   10.3338 O.3       1 RES1    0.0000
      2 H1         2.5310    8.0115   10.1045 H         1 RES1    0.0000
      3 O2         0.6089    8.0587    8.8816 O.2       1 RES1    0.0000
      4 C1         0.3360   10.1182   10.0030 C.ar      1 RES1    0.0000
      5 C2         0.7782   11.4103    9.7642 C.ar      1 RES1    0.0000
      6 C3        -1.0715   12.3073   10.8856 C.ar      1 RES1    0.0000
      7 C4         0.0980   12.5192   10.1957 C.ar      1 RES1    0.0000
      8 H2         0.4141   13.3780   10.0284 H         1 RES1    0.0000
      9 N1         1.9817   11.6356    8.9559 N.pl3     1 RES1    0.0000
     10 C5         1.0787    8.8617    9.6627 C.2       1 RES1    0.0000
     11 C6        -0.8576    9.9639   10.6873 C.ar      1 RES1    0.0000
     12 H3        -1.1872    9.1092   10.8433 H         1 RES1    0.0000
     13 C7        -1.5659   11.0583   11.1403 C.ar      1 RES1    0.0000
     14 H4        -2.3617   10.9483   11.6084 H         1 RES1    0.0000
     15 N2        -1.8264   13.4808   11.3396 N.pl3     1 RES1    0.0000
     16 O3        -1.4077   14.5698   11.0304 O.2       1 RES1    0.0000
     17 O4         2.3559   10.7130    8.2612 O.2       1 RES1    0.0000
     18 O5         2.5252   12.7005    9.0095 O.2       1 RES1    0.0000
     19 O6        -2.8205   13.2989   12.0004 O.2       1 RES1    0.0000
@<TRIPOS>BOND
     1    1    2 1
     2    3   10 2
     3    4    5 ar
     4    5    7 ar
     5    6    7 ar
     6    7    8 1
     7    9    5 1
     8   10    1 1
     9   11    4 ar
    10   12   11 1
    11   13    6 ar
    12   14   13 1
    13   15    6 1
    14   16   15 2
    15   17    9 2
    16   18    9 2
    17   19   15 2
    18    4   10 1
    19   11   13 ar
@<TRIPOS>SUBSTRUCTURE
     1 RES1 1

@<TRIPOS>CRYSIN
   6.2030   14.3679    9.4720  90.0000  97.0920  90.0000  14 1

