# MOL2 file generated by ConQuest
# Please check atom types

@<TRIPOS>MOLECULE
BAQLOU
    69    70     1
SMALL
NO_CHARGES
****
Generated from CSD

@<TRIPOS>ATOM
      1 O1        -1.7600   -1.5133  -10.4423 O.3       1 RES1    0.0000
      2 O2         1.7200   -0.3822  -11.9738 O.2       1 RES1    0.0000
      3 O3        -2.3829   -3.1271   -7.2471 O.3       1 RES1    0.0000
      4 O4        -3.6467   -1.7736   -5.9716 O.2       1 RES1    0.0000
      5 O5        -4.9742   -3.2582   -8.5108 O.3       1 RES1    0.0000
      6 O6        -5.4159   -5.2244   -9.3969 O.2       1 RES1    0.0000
      7 O7        -4.6127   -1.2346  -10.4034 O.3       1 RES1    0.0000
      8 O8        -6.6153   -2.1424  -10.8010 O.2       1 RES1    0.0000
      9 O9        -1.5598   -1.6230  -13.2977 O.3       1 RES1    0.0000
     10 O10       -2.0806    0.1086  -14.5732 O.2       1 RES1    0.0000
     11 O11        2.6425   -0.9826   -7.8429 O.3       1 RES1    0.0000
     12 O12       -0.8306   -0.4242   -6.5179 O.2       1 RES1    0.0000
     13 O13       -1.3285    0.6127   -8.3350 O.2       1 RES1    0.0000
     14 N1        -0.8895   -0.3473   -7.7167 N.pl3     1 RES1    0.0000
     15 C1         2.3563   -2.5666  -12.5980 C.3       1 RES1    0.0000
     16 H1         2.6053   -2.1517  -13.4263 H         1 RES1    0.0000
     17 H2         1.6848   -3.2326  -12.7632 H         1 RES1    0.0000
     18 H3         3.1273   -2.9806  -12.2027 H         1 RES1    0.0000
     19 C2         1.8125   -1.5338  -11.6659 C.2       1 RES1    0.0000
     20 C3         1.3716   -2.0174  -10.3326 C.3       1 RES1    0.0000
     21 H4         2.1328   -2.4160   -9.8818 H         1 RES1    0.0000
     22 H5         0.7087   -2.7131  -10.4600 H         1 RES1    0.0000
     23 C4         0.7764   -0.9375   -9.4229 C.3       1 RES1    0.0000
     24 H6         0.3639   -0.2654  -10.0046 H         1 RES1    0.0000
     25 C5        -0.3338   -1.4969   -8.5179 C.3       1 RES1    0.0000
     26 H7         0.0741   -2.1332   -7.8949 H         1 RES1    0.0000
     27 C6        -1.4669   -2.2070   -9.2459 C.3       1 RES1    0.0000
     28 H8        -1.1446   -3.0984   -9.4936 H         1 RES1    0.0000
     29 C7        -2.7482   -2.3914   -8.4376 C.3       1 RES1    0.0000
     30 H9        -3.1234   -1.5185   -8.1934 H         1 RES1    0.0000
     31 C8        -3.7455   -3.1763   -9.2588 C.3       1 RES1    0.0000
     32 H10       -3.3984   -4.0820   -9.4016 H         1 RES1    0.0000
     33 C9        -3.9642   -2.5154  -10.6028 C.3       1 RES1    0.0000
     34 H11       -4.5245   -3.0881  -11.1680 H         1 RES1    0.0000
     35 C10       -2.6325   -2.2562  -11.2883 C.3       1 RES1    0.0000
     36 H12       -2.2126   -3.1148  -11.5054 H         1 RES1    0.0000
     37 C11       -2.7799   -1.4508  -12.5508 C.3       1 RES1    0.0000
     38 H13       -3.5392   -1.7664  -13.0653 H         1 RES1    0.0000
     39 H14       -2.9177   -0.5143  -12.3396 H         1 RES1    0.0000
     40 C12       -2.8554   -2.6701   -6.0554 C.2       1 RES1    0.0000
     41 C13       -2.2413   -3.4099   -4.9333 C.3       1 RES1    0.0000
     42 H15       -2.5841   -3.0738   -4.1026 H         1 RES1    0.0000
     43 H16       -1.2885   -3.2941   -4.9557 H         1 RES1    0.0000
     44 H17       -2.4505   -4.3433   -5.0123 H         1 RES1    0.0000
     45 C14       -5.7487   -4.3505   -8.6996 C.2       1 RES1    0.0000
     46 C15       -7.0320   -4.2459   -7.9385 C.3       1 RES1    0.0000
     47 H18       -7.5567   -5.0359   -8.0872 H         1 RES1    0.0000
     48 H19       -7.5197   -3.4765   -8.2394 H         1 RES1    0.0000
     49 H20       -6.8416   -4.1599   -7.0017 H         1 RES1    0.0000
     50 C16       -5.9460   -1.1834  -10.5485 C.2       1 RES1    0.0000
     51 C17       -6.4536    0.1957  -10.3373 C.3       1 RES1    0.0000
     52 H21       -7.4076    0.2070  -10.4517 H         1 RES1    0.0000
     53 H22       -6.0481    0.7879  -10.9744 H         1 RES1    0.0000
     54 H23       -6.2362    0.4846   -9.4476 H         1 RES1    0.0000
     55 C18       -1.3187   -0.7756  -14.2711 C.2       1 RES1    0.0000
     56 C19       -0.0478   -1.0594  -14.9838 C.3       1 RES1    0.0000
     57 H24        0.0754   -0.4180  -15.6871 H         1 RES1    0.0000
     58 H25       -0.0817   -1.9426  -15.3579 H         1 RES1    0.0000
     59 H26        0.6851   -1.0010  -14.3667 H         1 RES1    0.0000
     60 C20        1.7873   -0.2295   -8.5804 C.2       1 RES1    0.0000
     61 C21        2.0214    1.0379   -8.3527 C.2       1 RES1    0.0000
     62 H27        1.5884    1.7531   -8.7597 H         1 RES1    0.0000
     63 C22        3.0375    1.1363   -7.3875 C.2       1 RES1    0.0000
     64 H28        3.3891    1.9181   -7.0264 H         1 RES1    0.0000
     65 C23        3.4008   -0.1158   -7.0913 C.2       1 RES1    0.0000
     66 C24        4.4432   -0.7408   -6.2335 C.3       1 RES1    0.0000
     67 H29        4.9080   -0.0564   -5.7450 H         1 RES1    0.0000
     68 H30        5.0674   -1.2193   -6.7845 H         1 RES1    0.0000
     69 H31        4.0298   -1.3484   -5.6176 H         1 RES1    0.0000
@<TRIPOS>BOND
     1    1   27 1
     2    2   19 2
     3    3   29 1
     4    4   40 2
     5    5   31 1
     6    6   45 2
     7    7   33 1
     8    8   50 2
     9    9   37 1
    10   10   55 2
    11   11   60 1
    12   12   14 2
    13   13   14 2
    14   14   25 1
    15   15   16 1
    16   17   15 1
    17   18   15 1
    18   19   15 1
    19   20   19 1
    20   21   20 1
    21   22   20 1
    22   23   20 1
    23   24   23 1
    24   25   23 1
    25   26   25 1
    26   27   25 1
    27   28   27 1
    28   29   27 1
    29   30   29 1
    30   31   29 1
    31   32   31 1
    32   33   31 1
    33   34   33 1
    34   35    1 1
    35   36   35 1
    36   37   35 1
    37   38   37 1
    38   39   37 1
    39   40    3 1
    40   41   40 1
    41   42   41 1
    42   43   41 1
    43   44   41 1
    44   45    5 1
    45   46   45 1
    46   47   46 1
    47   48   46 1
    48   49   46 1
    49   50    7 1
    50   51   50 1
    51   52   51 1
    52   53   51 1
    53   54   51 1
    54   55    9 1
    55   56   55 1
    56   57   56 1
    57   58   56 1
    58   59   56 1
    59   60   23 1
    60   61   60 2
    61   62   61 1
    62   63   61 1
    63   64   63 1
    64   65   11 1
    65   66   65 1
    66   67   66 1
    67   68   66 1
    68   69   66 1
    69   33   35 1
    70   63   65 2
@<TRIPOS>SUBSTRUCTURE
     1 RES1 1

@<TRIPOS>CRYSIN
  11.5960   10.2460   12.9340  90.0000 114.1800  90.0000   4 1

