# MOL2 file generated by ConQuest
# Please check atom types

@<TRIPOS>MOLECULE
BAQMOV
    56    57     1
SMALL
NO_CHARGES
****
Generated from CSD

@<TRIPOS>ATOM
      1 O1         2.1223    0.6300   13.2725 O.3       1 RES1    0.0000
      2 O2        -1.3700    1.2541   15.5834 O.3       1 RES1    0.0000
      3 O3        -0.4431    3.2082   13.3961 O.3       1 RES1    0.0000
      4 O4         0.5253    5.1454   13.9015 O.2       1 RES1    0.0000
      5 O5         0.4838    3.3083   10.6695 O.3       1 RES1    0.0000
      6 O6        -1.5293    2.8123    9.8936 O.2       1 RES1    0.0000
      7 O7         1.1057    0.6204    9.7858 O.3       1 RES1    0.0000
      8 O8         2.5688    1.7509    8.5464 O.2       1 RES1    0.0000
      9 O9         4.1339   -0.0331   11.4471 O.3       1 RES1    0.0000
     10 O10        4.9907   -0.6484   13.4130 O.2       1 RES1    0.0000
     11 O11        3.5697    2.0100   16.3440 O.2       1 RES1    0.0000
     12 O12        3.4989    2.7232   14.3274 O.2       1 RES1    0.0000
     13 N1         2.9685    2.2316   15.2977 N.pl3     1 RES1    0.0000
     14 C1         0.8456    1.9489   16.3339 C.2       1 RES1    0.0000
     15 H1         1.3424    2.1918   17.0827 H         1 RES1    0.0000
     16 C2        -0.5474    1.7649   16.5756 C.2       1 RES1    0.0000
     17 C3        -1.2979    2.0306   17.6777 C.2       1 RES1    0.0000
     18 H2        -0.9884    2.3699   18.4857 H         1 RES1    0.0000
     19 C4        -2.6249    1.6987   17.3701 C.2       1 RES1    0.0000
     20 H3        -3.3584    1.7701   17.9380 H         1 RES1    0.0000
     21 C5        -2.6386    1.2652   16.1226 C.2       1 RES1    0.0000
     22 H4        -3.4044    1.0010   15.6662 H         1 RES1    0.0000
     23 C6         1.5516    1.8297   15.2098 C.2       1 RES1    0.0000
     24 C7         1.1004    1.4381   13.8339 C.3       1 RES1    0.0000
     25 H5         0.2932    0.8891   13.9234 H         1 RES1    0.0000
     26 C8         0.7737    2.6143   12.9261 C.3       1 RES1    0.0000
     27 H6         1.5016    3.2700   12.9430 H         1 RES1    0.0000
     28 C9         0.5194    2.1359   11.4995 C.3       1 RES1    0.0000
     29 H7        -0.3504    1.6854   11.4589 H         1 RES1    0.0000
     30 C10        1.5767    1.2041   11.0160 C.3       1 RES1    0.0000
     31 H8         2.4107    1.6935   10.8588 H         1 RES1    0.0000
     32 C11        1.8130    0.0633   11.9998 C.3       1 RES1    0.0000
     33 H9         0.9978   -0.4747   12.0742 H         1 RES1    0.0000
     34 C12        2.9643   -0.8265   11.6296 C.3       1 RES1    0.0000
     35 H10        3.1143   -1.4779   12.3328 H         1 RES1    0.0000
     36 H11        2.7598   -1.3049   10.8115 H         1 RES1    0.0000
     37 C13       -0.4564    4.4535   13.8558 C.2       1 RES1    0.0000
     38 C14       -1.8118    4.8385   14.3291 C.3       1 RES1    0.0000
     39 H12       -1.7934    5.7415   14.6537 H         1 RES1    0.0000
     40 H13       -2.0831    4.2489   15.0374 H         1 RES1    0.0000
     41 H14       -2.4353    4.7730   13.6023 H         1 RES1    0.0000
     42 C15       -0.5866    3.5652    9.9021 C.2       1 RES1    0.0000
     43 C16       -0.3930    4.7487    9.1009 C.3       1 RES1    0.0000
     44 H15       -1.1753    4.9047    8.5667 H         1 RES1    0.0000
     45 H16        0.3664    4.6258    8.5278 H         1 RES1    0.0000
     46 H17       -0.2424    5.5031    9.6756 H         1 RES1    0.0000
     47 C17        1.6555    0.9951    8.6090 C.2       1 RES1    0.0000
     48 C18        0.9647    0.4004    7.4426 C.3       1 RES1    0.0000
     49 H18        1.3870    0.6985    6.6346 H         1 RES1    0.0000
     50 H19        0.0439    0.6742    7.4426 H         1 RES1    0.0000
     51 H20        1.0137   -0.5564    7.4950 H         1 RES1    0.0000
     52 C19        5.0380    0.0155   12.4275 C.2       1 RES1    0.0000
     53 C20        6.0724    1.0230   12.1790 C.3       1 RES1    0.0000
     54 H21        6.6973    1.0289   12.9075 H         1 RES1    0.0000
     55 H22        5.6643    1.8900   12.1012 H         1 RES1    0.0000
     56 H23        6.5345    0.8155   11.3626 H         1 RES1    0.0000
@<TRIPOS>BOND
     1    1   24 1
     2    2   16 1
     3    3   26 1
     4    4   37 2
     5    5   28 1
     6    6   42 2
     7    7   30 1
     8    8   47 2
     9    9   34 1
    10   10   52 2
    11   11   13 2
    12   12   13 2
    13   13   23 1
    14   14   15 1
    15   16   14 1
    16   17   16 2
    17   18   17 1
    18   19   17 1
    19   20   19 1
    20   21    2 1
    21   22   21 1
    22   23   14 2
    23   24   23 1
    24   25   24 1
    25   26   24 1
    26   27   26 1
    27   28   26 1
    28   29   28 1
    29   30   28 1
    30   31   30 1
    31   32    1 1
    32   33   32 1
    33   34   32 1
    34   35   34 1
    35   36   34 1
    36   37    3 1
    37   38   37 1
    38   39   38 1
    39   40   38 1
    40   41   38 1
    41   42    5 1
    42   43   42 1
    43   44   43 1
    44   45   43 1
    45   46   43 1
    46   47    7 1
    47   48   47 1
    48   49   48 1
    49   50   48 1
    50   51   48 1
    51   52    9 1
    52   53   52 1
    53   54   53 1
    54   55   53 1
    55   56   53 1
    56   19   21 2
    57   30   32 1
@<TRIPOS>SUBSTRUCTURE
     1 RES1 1

@<TRIPOS>CRYSIN
   9.5030    7.3600   17.3350  90.0000 102.8100  90.0000   4 1

