# MOL2 file generated by ConQuest
# Please check atom types

@<TRIPOS>MOLECULE
BAQMAH
    66    67     1
SMALL
NO_CHARGES
****
Generated from CSD

@<TRIPOS>ATOM
      1 O1         1.5748    4.5452    6.7498 O.3       1 RES1    0.0000
      2 O2         4.9779    3.3705    5.2278 O.2       1 RES1    0.0000
      3 O3         0.9442    6.3734    9.8237 O.3       1 RES1    0.0000
      4 O4        -0.2429    5.1109   11.2555 O.2       1 RES1    0.0000
      5 O5        -1.6705    6.2723    8.6266 O.3       1 RES1    0.0000
      6 O6        -2.2819    8.1469    7.5842 O.2       1 RES1    0.0000
      7 O7        -1.2901    4.1880    6.8098 O.3       1 RES1    0.0000
      8 O8        -3.3184    5.0810    6.4260 O.2       1 RES1    0.0000
      9 O9         1.7286    4.5855    3.8627 O.3       1 RES1    0.0000
     10 O10        1.3539    2.7862    2.6512 O.2       1 RES1    0.0000
     11 O11        5.9298    4.2789    9.3765 O.3       1 RES1    0.0000
     12 O12        2.0789    2.5911    9.0383 O.2       1 RES1    0.0000
     13 O13        2.5332    3.8040   10.7371 O.2       1 RES1    0.0000
     14 N1         2.4927    3.5976    9.5500 N.pl3     1 RES1    0.0000
     15 C1         5.7828    5.4671    4.5336 C.3       1 RES1    0.0000
     16 H1         6.0227    4.9953    3.7337 H         1 RES1    0.0000
     17 H2         6.5702    5.8490    4.9285 H         1 RES1    0.0000
     18 H3         5.1608    6.1670    4.3189 H         1 RES1    0.0000
     19 C2         5.1492    4.5194    5.5004 C.2       1 RES1    0.0000
     20 C3         4.7147    5.0872    6.7965 C.3       1 RES1    0.0000
     21 H4         4.0519    5.7737    6.6263 H         1 RES1    0.0000
     22 H5         5.4764    5.5145    7.2181 H         1 RES1    0.0000
     23 C4         4.1209    4.0683    7.7789 C.3       1 RES1    0.0000
     24 H6         3.7070    3.3591    7.2448 H         1 RES1    0.0000
     25 C5         5.1296    3.4293    8.6455 C.2       1 RES1    0.0000
     26 C6         5.3974    2.1637    8.9125 C.2       1 RES1    0.0000
     27 H7         5.0390    1.4070    8.5087 H         1 RES1    0.0000
     28 C7         6.4231    2.2236   10.0284 C.2       1 RES1    0.0000
     29 H8         6.7822    1.5216   10.5213 H         1 RES1    0.0000
     30 C8         6.6740    3.4799   10.1297 C.2       1 RES1    0.0000
     31 H9         7.3348    3.8082   10.6959 H         1 RES1    0.0000
     32 C9         3.0137    4.6877    8.6511 C.3       1 RES1    0.0000
     33 H10        3.4249    5.3742    9.2174 H         1 RES1    0.0000
     34 C10        1.8682    5.3329    7.8946 C.3       1 RES1    0.0000
     35 H11        2.1695    6.2134    7.5853 H         1 RES1    0.0000
     36 C11        0.5925    5.5362    8.7167 C.3       1 RES1    0.0000
     37 H12        0.2566    4.6732    9.0383 H         1 RES1    0.0000
     38 C12       -0.4536    6.2155    7.8567 C.3       1 RES1    0.0000
     39 H13       -0.1591    7.1280    7.6531 H         1 RES1    0.0000
     40 C13       -0.6649    5.4609    6.5584 C.3       1 RES1    0.0000
     41 H14       -1.2409    5.9904    5.9688 H         1 RES1    0.0000
     42 C14        0.6575    5.2121    5.8675 C.3       1 RES1    0.0000
     43 H15        1.0418    6.0741    5.6061 H         1 RES1    0.0000
     44 C15        0.5335    4.3450    4.6426 C.3       1 RES1    0.0000
     45 H16        0.4731    3.4097    4.8918 H         1 RES1    0.0000
     46 H17       -0.2576    4.5834    4.1353 H         1 RES1    0.0000
     47 C16        0.4911    6.0235   11.0586 C.2       1 RES1    0.0000
     48 C17        1.0895    6.9257   12.0833 C.3       1 RES1    0.0000
     49 H18        0.7692    6.6779   12.9544 H         1 RES1    0.0000
     50 H19        0.8368    7.8331   11.8975 H         1 RES1    0.0000
     51 H20        2.0450    6.8483   12.0599 H         1 RES1    0.0000
     52 C18       -2.5078    7.3056    8.3863 C.2       1 RES1    0.0000
     53 C19       -3.7441    7.1724    9.2274 C.3       1 RES1    0.0000
     54 H21       -4.3342    7.9074    9.0483 H         1 RES1    0.0000
     55 H22       -3.5015    7.1755   10.1564 H         1 RES1    0.0000
     56 H23       -4.1868    6.3476    9.0149 H         1 RES1    0.0000
     57 C20       -2.6390    4.1292    6.7086 C.2       1 RES1    0.0000
     58 C21       -3.1182    2.7366    6.9745 C.3       1 RES1    0.0000
     59 H24       -4.0745    2.7077    6.8977 H         1 RES1    0.0000
     60 H25       -2.8589    2.4734    7.8601 H         1 RES1    0.0000
     61 H26       -2.7272    2.1369    6.3348 H         1 RES1    0.0000
     62 C22        2.0106    3.7576    2.8692 C.2       1 RES1    0.0000
     63 C23        3.2092    4.1282    2.0871 C.3       1 RES1    0.0000
     64 H27        3.3438    3.4871    1.3862 H         1 RES1    0.0000
     65 H28        3.9761    4.1385    2.6634 H         1 RES1    0.0000
     66 H29        3.0847    4.9994    1.7044 H         1 RES1    0.0000
@<TRIPOS>BOND
     1    1   34 1
     2    2   19 2
     3    3   36 1
     4    4   47 2
     5    5   38 1
     6    6   52 2
     7    7   40 1
     8    8   57 2
     9    9   44 1
    10   10   62 2
    11   11   25 1
    12   12   14 2
    13   13   14 2
    14   14   32 1
    15   15   16 1
    16   17   15 1
    17   18   15 1
    18   19   15 1
    19   20   19 1
    20   21   20 1
    21   22   20 1
    22   23   20 1
    23   24   23 1
    24   25   23 1
    25   26   25 2
    26   27   26 1
    27   28   26 1
    28   29   28 1
    29   30   11 1
    30   31   30 1
    31   32   23 1
    32   33   32 1
    33   34   32 1
    34   35   34 1
    35   36   34 1
    36   37   36 1
    37   38   36 1
    38   39   38 1
    39   40   38 1
    40   41   40 1
    41   42    1 1
    42   43   42 1
    43   44   42 1
    44   45   44 1
    45   46   44 1
    46   47    3 1
    47   48   47 1
    48   49   48 1
    49   50   48 1
    50   51   48 1
    51   52    5 1
    52   53   52 1
    53   54   53 1
    54   55   53 1
    55   56   53 1
    56   57    7 1
    57   58   57 1
    58   59   58 1
    59   60   58 1
    60   61   58 1
    61   62    9 1
    62   63   62 1
    63   64   63 1
    64   65   63 1
    65   66   63 1
    66   28   30 2
    67   40   42 1
@<TRIPOS>SUBSTRUCTURE
     1 RES1 1

@<TRIPOS>CRYSIN
  11.7190   10.3230   12.5380  90.0000 117.4600  90.0000   4 1

