# MOL2 file generated by ConQuest
# Please check atom types

@<TRIPOS>MOLECULE
BAQNEM
    49    50     1
SMALL
NO_CHARGES
****
Generated from CSD

@<TRIPOS>ATOM
      1 O1         7.1351    1.6162    3.6688 O.3       1 RES1    0.0000
      2 O2         1.2400    2.9416    1.7239 O.2       1 RES1    0.0000
      3 O3         7.5772    0.2420    5.3686 O.2       1 RES1    0.0000
      4 O4         6.7337    2.7974    0.9159 O.2       1 RES1    0.0000
      5 O5         6.4677    0.9746   -0.1744 O.2       1 RES1    0.0000
      6 O6         5.2385   -1.9526    2.6518 O.2       1 RES1    0.0000
      7 O7         6.4332   -3.4803    3.4944 O.2       1 RES1    0.0000
      8 N1         6.3022    1.6702    0.8092 N.pl3     1 RES1    0.0000
      9 N2         6.3175   -2.4467    2.8542 N.pl3     1 RES1    0.0000
     10 C1         6.5195    0.5059    3.0016 C.3       1 RES1    0.0000
     11 H1         6.0088   -0.0042    3.6654 H         1 RES1    0.0000
     12 C2         5.5390    1.0623    1.9683 C.3       1 RES1    0.0000
     13 H2         5.0222    0.3069    1.6165 H         1 RES1    0.0000
     14 C3         4.5406    2.0808    2.5309 C.3       1 RES1    0.0000
     15 H3         5.0392    2.8708    2.8252 H         1 RES1    0.0000
     16 C4         3.5439    2.5175    1.4325 C.3       1 RES1    0.0000
     17 H4         4.0163    3.0562    0.7788 H         1 RES1    0.0000
     18 H5         3.2137    1.7267    0.9778 H         1 RES1    0.0000
     19 C5         2.3701    3.3041    1.9538 C.2       1 RES1    0.0000
     20 C6         2.6361    4.5393    2.7257 C.3       1 RES1    0.0000
     21 H6         1.8033    4.9338    2.9947 H         1 RES1    0.0000
     22 H7         3.1233    5.1598    2.1791 H         1 RES1    0.0000
     23 H8         3.1537    4.3243    3.5057 H         1 RES1    0.0000
     24 C7         7.6448    1.3279    4.9009 C.2       1 RES1    0.0000
     25 C8         8.2896    2.5352    5.4912 C.3       1 RES1    0.0000
     26 H9         8.6402    2.3194    6.3579 H         1 RES1    0.0000
     27 H10        7.6392    3.2367    5.5742 H         1 RES1    0.0000
     28 H11        9.0032    2.8286    4.9208 H         1 RES1    0.0000
     29 C9         7.6017   -0.4038    2.4321 C.ar      1 RES1    0.0000
     30 C10        7.5145   -1.7756    2.3655 C.ar      1 RES1    0.0000
     31 C11        8.5490   -2.5858    1.8578 C.ar      1 RES1    0.0000
     32 H12        8.4660   -3.5124    1.8425 H         1 RES1    0.0000
     33 C12        9.6760   -1.9729    1.3905 C.ar      1 RES1    0.0000
     34 H13       10.3583   -2.4812    1.0146 H         1 RES1    0.0000
     35 C13        9.8042   -0.6374    1.4720 C.ar      1 RES1    0.0000
     36 H14       10.5854   -0.2335    1.1718 H         1 RES1    0.0000
     37 C14        8.7994    0.1408    1.9926 C.ar      1 RES1    0.0000
     38 H15        8.9256    1.0606    2.0513 H         1 RES1    0.0000
     39 C15        3.8143    1.5016    3.7305 C.ar      1 RES1    0.0000
     40 C16        4.0222    2.0218    4.9878 C.ar      1 RES1    0.0000
     41 H16        4.6388    2.7055    5.1197 H         1 RES1    0.0000
     42 C17        3.2841    1.4999    6.0715 C.ar      1 RES1    0.0000
     43 H17        3.4178    1.8262    6.9328 H         1 RES1    0.0000
     44 C18        2.3617    0.4991    5.8420 C.ar      1 RES1    0.0000
     45 H18        1.8605    0.1703    6.5545 H         1 RES1    0.0000
     46 C19        2.1720   -0.0101    4.6105 C.ar      1 RES1    0.0000
     47 H19        1.5502   -0.6880    4.4736 H         1 RES1    0.0000
     48 C20        2.8968    0.4738    3.5708 C.ar      1 RES1    0.0000
     49 H20        2.7748    0.1054    2.7245 H         1 RES1    0.0000
@<TRIPOS>BOND
     1    1   10 1
     2    2   19 2
     3    3   24 2
     4    4    8 2
     5    5    8 2
     6    6    9 2
     7    7    9 2
     8    8   12 1
     9    9   30 1
    10   10   11 1
    11   12   10 1
    12   13   12 1
    13   14   12 1
    14   15   14 1
    15   16   14 1
    16   17   16 1
    17   18   16 1
    18   19   16 1
    19   20   19 1
    20   21   20 1
    21   22   20 1
    22   23   20 1
    23   24    1 1
    24   25   24 1
    25   26   25 1
    26   27   25 1
    27   28   25 1
    28   29   10 1
    29   30   29 ar
    30   31   30 ar
    31   32   31 1
    32   33   31 ar
    33   34   33 1
    34   35   33 ar
    35   36   35 1
    36   37   29 ar
    37   38   37 1
    38   39   14 1
    39   40   39 ar
    40   41   40 1
    41   42   40 ar
    42   43   42 1
    43   44   42 ar
    44   45   44 1
    45   46   44 ar
    46   47   46 1
    47   48   39 ar
    48   49   48 1
    49   35   37 ar
    50   46   48 ar
@<TRIPOS>SUBSTRUCTURE
     1 RES1 1

@<TRIPOS>CRYSIN
   9.7560    8.4310   24.7600  90.0000  97.1600  90.0000 231 1

