# MOL2 file generated by ConQuest
# Please check atom types

@<TRIPOS>MOLECULE
BARPEP
    55    58     1
SMALL
NO_CHARGES
****
Generated from CSD

@<TRIPOS>ATOM
      1 C1         3.4434   -4.5250    4.0709 C.3       1 RES1    0.0000
      2 C2         4.2898   -3.2484    3.8939 C.3       1 RES1    0.0000
      3 C3         2.9442   -2.3846    3.9087 C.3       1 RES1    0.0000
      4 C4         2.4017   -1.9017    2.5924 C.3       1 RES1    0.0000
      5 C5         3.0455   -1.2483    4.9134 C.3       1 RES1    0.0000
      6 C6         2.2425   -3.6976    4.5113 C.3       1 RES1    0.0000
      7 C7         0.9223   -4.2653    4.0197 C.3       1 RES1    0.0000
      8 C8         1.0417   -5.8189    4.0172 C.3       1 RES1    0.0000
      9 C9         2.1340   -6.3465    3.0532 C.3       1 RES1    0.0000
     10 C10        1.5625   -6.9534    1.7807 C.3       1 RES1    0.0000
     11 C11        3.1034   -5.2112    2.7448 C.3       1 RES1    0.0000
     12 C12        4.3838   -5.5064    1.9534 C.3       1 RES1    0.0000
     13 C13        4.9842   -4.1396    1.5506 C.3       1 RES1    0.0000
     14 C14        5.3278   -3.3131    2.7916 C.3       1 RES1    0.0000
     15 H1         3.7979   -5.1665    4.8480 H         1 RES1    0.0000
     16 H2         4.8106   -3.0343    4.7679 H         1 RES1    0.0000
     17 H3         2.3872   -2.4785    1.7147 H         1 RES1    0.0000
     18 H4         1.5915   -1.4215    2.7448 H         1 RES1    0.0000
     19 H5         2.8213   -1.2119    2.1711 H         1 RES1    0.0000
     20 H6         2.2064   -0.9294    4.9282 H         1 RES1    0.0000
     21 H7         3.5808   -1.2666    5.8781 H         1 RES1    0.0000
     22 H8         3.5808   -0.5376    4.6445 H         1 RES1    0.0000
     23 H9         2.2787   -3.5263    5.5142 H         1 RES1    0.0000
     24 H10        0.2170   -3.8362    4.5705 H         1 RES1    0.0000
     25 H11        0.7234   -3.9455    3.0717 H         1 RES1    0.0000
     26 H12        1.1936   -6.0868    5.1379 H         1 RES1    0.0000
     27 H13        0.1447   -6.1870    3.7131 H         1 RES1    0.0000
     28 H14        2.6766   -7.0618    3.4973 H         1 RES1    0.0000
     29 H15        1.1213   -7.4172    1.9799 H         1 RES1    0.0000
     30 H16        0.9404   -6.2599    0.9314 H         1 RES1    0.0000
     31 H17        2.2787   -7.3989    1.2398 H         1 RES1    0.0000
     32 H18        2.5681   -4.6653    2.2637 H         1 RES1    0.0000
     33 H19        5.1361   -5.9410    2.5412 H         1 RES1    0.0000
     34 H20        4.2319   -6.0413    1.0486 H         1 RES1    0.0000
     35 H21        5.9681   -4.2826    1.1041 H         1 RES1    0.0000
     36 H22        4.3042   -3.6539    0.9684 H         1 RES1    0.0000
     37 H23        6.1127   -3.6812    3.2875 H         1 RES1    0.0000
     38 O1         5.6678   -1.9746    2.2822 O.3       1 RES1    0.0000
     39 C15        6.5793   -1.2821    2.9643 C.2       1 RES1    0.0000
     40 O2         7.0571   -1.6064    4.0148 O.2       1 RES1    0.0000
     41 C16        6.9627   -0.0128    2.2643 C.ar      1 RES1    0.0000
     42 C17        6.4057    0.3690    1.0498 C.ar      1 RES1    0.0000
     43 C18        6.8072    1.5727    0.4904 C.ar      1 RES1    0.0000
     44 N1         6.2032    1.9955   -0.7790 N.pl3     1 RES1    0.0000
     45 O3         6.5902    3.0079   -1.3045 O.2       1 RES1    0.0000
     46 O4         5.2881    1.3076   -1.2472 O.2       1 RES1    0.0000
     47 C19        7.7295    2.3992    1.0640 C.ar      1 RES1    0.0000
     48 C20        8.2612    1.9837    2.2846 C.ar      1 RES1    0.0000
     49 N2         9.2342    2.8575    2.9440 N.pl3     1 RES1    0.0000
     50 O5         9.4548    3.9373    2.4512 O.2       1 RES1    0.0000
     51 O6         9.7406    2.4748    3.9765 O.2       1 RES1    0.0000
     52 C21        7.9104    0.7982    2.8891 C.ar      1 RES1    0.0000
     53 H24        5.8234   -0.0729    0.6661 H         1 RES1    0.0000
     54 H25        7.9212    3.2894    0.6785 H         1 RES1    0.0000
     55 H26        8.2829    0.5285    3.8673 H         1 RES1    0.0000
@<TRIPOS>BOND
     1    1    2 1
     2    2    3 1
     3    3    4 1
     4    4   17 1
     5    5    3 1
     6    6    1 1
     7    7    6 1
     8    8    7 1
     9    9    8 1
    10   10    9 1
    11   11    1 1
    12   12   11 1
    13   13   12 1
    14   14    2 1
    15   15    1 1
    16   16    2 1
    17   18    4 1
    18   19    4 1
    19   20    5 1
    20   21    5 1
    21   22    5 1
    22   23    6 1
    23   24    7 1
    24   25    7 1
    25   26    8 1
    26   27    8 1
    27   28    9 1
    28   29   10 1
    29   30   10 1
    30   31   10 1
    31   32   11 1
    32   33   12 1
    33   34   12 1
    34   35   13 1
    35   36   13 1
    36   37   14 1
    37   38   14 1
    38   39   38 1
    39   40   39 2
    40   41   39 1
    41   42   41 ar
    42   43   42 ar
    43   44   43 1
    44   45   44 2
    45   46   44 2
    46   47   43 ar
    47   48   47 ar
    48   49   48 1
    49   50   49 2
    50   51   49 2
    51   52   41 ar
    52   53   42 1
    53   54   47 1
    54   55   52 1
    55    3    6 1
    56    9   11 1
    57   13   14 1
    58   48   52 ar
@<TRIPOS>SUBSTRUCTURE
     1 RES1 1

@<TRIPOS>CRYSIN
  36.1700    9.1120    6.1680  90.0000  90.0000  90.0000  19 1

