# MOL2 file generated by ConQuest
# Please check atom types

@<TRIPOS>MOLECULE
BARTAQ
    81    84     1
SMALL
NO_CHARGES
****
Generated from CSD

@<TRIPOS>ATOM
      1 C1         2.5095    3.2219    1.4682 C.2       1 RES1    0.0000
      2 C2         3.4885    2.7591    0.7012 C.2       1 RES1    0.0000
      3 C3         3.2060    1.8796   -0.4402 C.2       1 RES1    0.0000
      4 O1         2.1228    1.6366   -0.9100 O.2       1 RES1    0.0000
      5 O2         4.3520    1.3506   -0.9259 O.3       1 RES1    0.0000
      6 C4         4.1792    0.4133   -2.0151 C.3       1 RES1    0.0000
      7 C5         1.0539    2.8616    1.3457 C.2       1 RES1    0.0000
      8 O3         0.1856    3.6203    1.0189 O.2       1 RES1    0.0000
      9 O4         0.8734    1.5903    1.7065 O.3       1 RES1    0.0000
     10 C6        -0.4816    1.0894    1.5567 C.3       1 RES1    0.0000
     11 O5         2.6510    4.1080    2.5075 O.3       1 RES1    0.0000
     12 C7         3.9658    4.3626    2.9954 C.2       1 RES1    0.0000
     13 C8         4.3679    5.6603    2.8887 C.2       1 RES1    0.0000
     14 N1         3.8355    6.5596    1.9742 N.pl3     1 RES1    0.0000
     15 C9         4.3002    7.9267    2.2829 C.3       1 RES1    0.0000
     16 C10        5.5341    7.6820    3.1406 C.3       1 RES1    0.0000
     17 N2         5.2915    6.3232    3.6739 N.3       1 RES1    0.0000
     18 C11        5.5930    6.0339    5.0423 C.ar      1 RES1    0.0000
     19 C12        6.9459    6.0141    5.4121 C.ar      1 RES1    0.0000
     20 C13        7.2601    5.7925    6.7442 C.ar      1 RES1    0.0000
     21 C14        6.2899    5.5578    7.7064 C.ar      1 RES1    0.0000
     22 C15        4.9690    5.5661    7.3002 C.ar      1 RES1    0.0000
     23 C16        4.5865    5.8206    5.9885 C.ar      1 RES1    0.0000
     24 C17        3.1155    5.9016    5.6459 C.3       1 RES1    0.0000
     25 C18        8.0293    6.2306    4.3865 C.3       1 RES1    0.0000
     26 C19        6.6711    5.3016    9.1496 C.3       1 RES1    0.0000
     27 C20        3.5125    6.1893    0.6263 C.ar      1 RES1    0.0000
     28 C21        4.5106    5.7165   -0.2292 C.ar      1 RES1    0.0000
     29 C22        4.1430    5.3363   -1.5181 C.ar      1 RES1    0.0000
     30 C23        2.8297    5.4355   -1.9697 C.ar      1 RES1    0.0000
     31 C24        1.8753    5.9578   -1.1074 C.ar      1 RES1    0.0000
     32 C25        2.1952    6.3513    0.1929 C.ar      1 RES1    0.0000
     33 C26        1.1445    6.8968    1.1165 C.3       1 RES1    0.0000
     34 C27        2.4615    4.9842   -3.3630 C.3       1 RES1    0.0000
     35 C28        5.9541    5.6537    0.1906 C.3       1 RES1    0.0000
     36 C29        4.5311    3.2996    3.8146 C.ar      1 RES1    0.0000
     37 C30        5.9076    3.2054    4.0461 C.ar      1 RES1    0.0000
     38 C31        6.3872    2.1854    4.8516 C.ar      1 RES1    0.0000
     39 C32        5.5827    1.2233    5.4167 C.ar      1 RES1    0.0000
     40 C33        4.2281    1.2994    5.1603 C.ar      1 RES1    0.0000
     41 C34        3.6986    2.3144    4.3751 C.ar      1 RES1    0.0000
     42 N3         7.8453    2.1160    5.0740 N.pl3     1 RES1    0.0000
     43 O6         8.2839    1.1886    5.7571 O.2       1 RES1    0.0000
     44 O7         8.5671    2.9674    4.5771 O.2       1 RES1    0.0000
     45 H1         4.3869    2.9988    0.8941 H         1 RES1    0.0000
     46 H2         3.6274   -0.3389   -1.7155 H         1 RES1    0.0000
     47 H3         5.0549    0.0810   -2.3033 H         1 RES1    0.0000
     48 H4         3.7382    0.8629   -2.7662 H         1 RES1    0.0000
     49 H5        -1.1034    1.6845    2.0242 H         1 RES1    0.0000
     50 H6        -0.5417    0.1885    1.9379 H         1 RES1    0.0000
     51 H7        -0.7140    1.0563    0.6059 H         1 RES1    0.0000
     52 H8         3.6127    8.4342    2.7798 H         1 RES1    0.0000
     53 H9         4.5314    8.4193    1.4546 H         1 RES1    0.0000
     54 H10        6.3613    7.7118    2.5960 H         1 RES1    0.0000
     55 H11        5.6018    8.3483    3.8691 H         1 RES1    0.0000
     56 H12        8.1724    5.8025    7.0074 H         1 RES1    0.0000
     57 H13        4.2939    5.3908    7.9446 H         1 RES1    0.0000
     58 H14        2.7978    5.0189    5.3600 H         1 RES1    0.0000
     59 H15        2.9844    6.5464    4.9175 H         1 RES1    0.0000
     60 H16        2.6118    6.1926    6.4333 H         1 RES1    0.0000
     61 H17        8.1311    7.1911    4.2185 H         1 RES1    0.0000
     62 H18        7.7873    5.7760    3.5536 H         1 RES1    0.0000
     63 H19        8.8753    5.8669    4.7223 H         1 RES1    0.0000
     64 H20        5.9122    5.5165    9.7305 H         1 RES1    0.0000
     65 H21        7.4366    5.8653    9.3879 H         1 RES1    0.0000
     66 H22        6.9125    4.3593    9.2608 H         1 RES1    0.0000
     67 H23        4.8089    4.9990   -2.1059 H         1 RES1    0.0000
     68 H24        0.9802    6.0504   -1.4115 H         1 RES1    0.0000
     69 H25        0.2764    6.8886    0.6626 H         1 RES1    0.0000
     70 H26        1.3739    7.8160    1.3661 H         1 RES1    0.0000
     71 H27        1.0979    6.3414    1.9221 H         1 RES1    0.0000
     72 H28        1.5851    5.3495   -3.6036 H         1 RES1    0.0000
     73 H29        2.4277    4.0055   -3.3903 H         1 RES1    0.0000
     74 H30        3.1343    5.3065   -3.9984 H         1 RES1    0.0000
     75 H31        6.0652    4.9594    0.8737 H         1 RES1    0.0000
     76 H32        6.2257    6.5199    0.5582 H         1 RES1    0.0000
     77 H33        6.5114    5.4404   -0.5877 H         1 RES1    0.0000
     78 H34        6.5064    3.8303    3.6535 H         1 RES1    0.0000
     79 H35        5.9447    0.5340    5.9613 H         1 RES1    0.0000
     80 H36        3.6469    0.6447    5.5302 H         1 RES1    0.0000
     81 H37        2.7628    2.3441    4.2140 H         1 RES1    0.0000
@<TRIPOS>BOND
     1    1    2 2
     2    2    3 1
     3    3    4 2
     4    5    3 1
     5    6    5 1
     6    7    1 1
     7    8    7 2
     8    9    7 1
     9   10    9 1
    10   11    1 1
    11   12   11 1
    12   13   12 2
    13   14   13 1
    14   15   14 1
    15   16   15 1
    16   17   13 1
    17   18   17 1
    18   19   18 ar
    19   20   19 ar
    20   21   20 ar
    21   22   21 ar
    22   23   18 ar
    23   24   23 1
    24   25   19 1
    25   26   21 1
    26   27   14 1
    27   28   27 ar
    28   29   28 ar
    29   30   29 ar
    30   31   30 ar
    31   32   27 ar
    32   33   32 1
    33   34   30 1
    34   35   28 1
    35   36   12 1
    36   37   36 ar
    37   38   37 ar
    38   39   38 ar
    39   40   39 ar
    40   41   36 ar
    41   42   38 1
    42   43   42 2
    43   44   42 2
    44   45    2 1
    45   46    6 1
    46   47    6 1
    47   48    6 1
    48   49   10 1
    49   50   10 1
    50   51   10 1
    51   52   15 1
    52   53   15 1
    53   54   16 1
    54   55   16 1
    55   56   20 1
    56   57   22 1
    57   58   24 1
    58   59   24 1
    59   60   24 1
    60   61   25 1
    61   62   25 1
    62   63   25 1
    63   64   26 1
    64   65   26 1
    65   66   26 1
    66   67   29 1
    67   68   31 1
    68   69   33 1
    69   70   33 1
    70   71   33 1
    71   72   34 1
    72   73   34 1
    73   74   34 1
    74   75   35 1
    75   76   35 1
    76   77   35 1
    77   78   37 1
    78   79   39 1
    79   80   40 1
    80   81   41 1
    81   16   17 1
    82   22   23 ar
    83   31   32 ar
    84   40   41 ar
@<TRIPOS>SUBSTRUCTURE
     1 RES1 1

@<TRIPOS>CRYSIN
   8.3507   16.5312   22.7552  90.0000  94.2560  90.0000  14 1

