# MOL2 file generated by ConQuest
# Please check atom types

@<TRIPOS>MOLECULE
BASCAC
    29    31     1
SMALL
NO_CHARGES
****
Generated from CSD

@<TRIPOS>ATOM
      1 O1         0.9662    6.2444    6.3241 O.3       1 RES1    0.0000
      2 N1         0.0054    6.4059    8.7403 N.ar      1 RES1    0.0000
      3 C1         1.8859    6.4505    7.3093 C.2       1 RES1    0.0000
      4 O2        -0.2756    5.8117    4.0986 O.2       1 RES1    0.0000
      5 N2         0.9321    5.9139    4.0152 N.pl3     1 RES1    0.0000
      6 C2        -0.5239    6.5227    9.9459 C.ar      1 RES1    0.0000
      7 H1        -1.4462    6.4178   10.0033 H         1 RES1    0.0000
      8 O3         1.5631    5.8130    2.9738 O.2       1 RES1    0.0000
      9 N3         0.1086    6.7716   11.0807 N.ar      1 RES1    0.0000
     10 C3         3.1264    6.4812    6.7729 C.2       1 RES1    0.0000
     11 H2         3.9218    6.6158    7.2348 H         1 RES1    0.0000
     12 C4         1.4149    6.9550   10.9637 C.ar      1 RES1    0.0000
     13 H3         1.9005    7.1350   11.7354 H         1 RES1    0.0000
     14 C5         2.1021    6.8955    9.7643 C.ar      1 RES1    0.0000
     15 C6         1.3287    6.5845    8.6520 C.ar      1 RES1    0.0000
     16 C7         3.5476    7.1997    9.7297 C.ar      1 RES1    0.0000
     17 C8         4.4978    6.2301   10.0020 C.ar      1 RES1    0.0000
     18 H4         4.2299    5.3683   10.2265 H         1 RES1    0.0000
     19 C9         5.8313    6.5351    9.9410 C.ar      1 RES1    0.0000
     20 H5         6.4649    5.8747   10.1043 H         1 RES1    0.0000
     21 C10        6.2330    7.8032    9.6430 C.ar      1 RES1    0.0000
     22 H6         7.1403    8.0070    9.6041 H         1 RES1    0.0000
     23 C11        5.3063    8.7714    9.4015 C.ar      1 RES1    0.0000
     24 H7         5.5821    9.6382    9.2130 H         1 RES1    0.0000
     25 C12        3.9609    8.4747    9.4353 C.ar      1 RES1    0.0000
     26 H8         3.3333    9.1377    9.2586 H         1 RES1    0.0000
     27 C13        2.9960    6.2729    5.3924 C.2       1 RES1    0.0000
     28 H9         3.6736    6.2333    4.7564 H         1 RES1    0.0000
     29 C14        1.6788    6.1445    5.1939 C.2       1 RES1    0.0000
@<TRIPOS>BOND
     1    1    3 1
     2    2    6 ar
     3    3   10 2
     4    4    5 2
     5    5    8 2
     6    6    7 1
     7    9    6 ar
     8   10   11 1
     9   12    9 ar
    10   13   12 1
    11   14   12 ar
    12   15    2 ar
    13   16   14 1
    14   17   16 ar
    15   18   17 1
    16   19   17 ar
    17   20   19 1
    18   21   19 ar
    19   22   21 1
    20   23   21 ar
    21   24   23 1
    22   25   16 ar
    23   26   25 1
    24   27   10 1
    25   28   27 1
    26   29    1 1
    27    3   15 1
    28    5   29 1
    29   14   15 ar
    30   23   25 ar
    31   27   29 2
@<TRIPOS>SUBSTRUCTURE
     1 RES1 1

@<TRIPOS>CRYSIN
  23.4600    6.4500   19.4050  90.0000 122.8900  90.0000  15 1

