# MOL2 file generated by ConQuest
# Please check atom types

@<TRIPOS>MOLECULE
BASNIT
    32    33     1
SMALL
NO_CHARGES
****
Generated from CSD

@<TRIPOS>ATOM
      1 O1         6.5094    2.3537    2.1753 O.3       1 RES1    0.0000
      2 O2        10.8546    3.7997    1.8368 O.2       1 RES1    0.0000
      3 N1         7.2650    3.4419    1.5187 N.3       1 RES1    0.0000
      4 N2         9.4992    3.4032    0.0658 N.am      1 RES1    0.0000
      5 C1         8.5269    3.5619    2.2946 C.3       1 RES1    0.0000
      6 C2         8.5520    2.3196    3.2184 C.3       1 RES1    0.0000
      7 C3         7.5044    1.4119    2.6002 C.3       1 RES1    0.0000
      8 C4         6.4214    4.6098    1.6558 C.3       1 RES1    0.0000
      9 C5         6.8285    0.4771    3.6009 C.3       1 RES1    0.0000
     10 C6         8.0376    0.6266    1.4132 C.ar      1 RES1    0.0000
     11 C7         9.2242   -0.1169    1.5366 C.ar      1 RES1    0.0000
     12 C8         9.7163   -0.8496    0.4688 C.ar      1 RES1    0.0000
     13 C9         9.0112   -0.8953   -0.7155 C.ar      1 RES1    0.0000
     14 C10        7.8222   -0.1952   -0.8389 C.ar      1 RES1    0.0000
     15 C11        7.3382    0.5545    0.2179 C.ar      1 RES1    0.0000
     16 C12        9.7319    3.5828    1.3543 C.2       1 RES1    0.0000
     17 H1         8.7043    4.2931    3.0485 H         1 RES1    0.0000
     18 H2         9.4485    1.8906    3.3994 H         1 RES1    0.0000
     19 H3         8.3041    2.6333    4.1985 H         1 RES1    0.0000
     20 H4         5.5726    4.3047    1.1034 H         1 RES1    0.0000
     21 H5         6.8730    5.3255    1.1295 H         1 RES1    0.0000
     22 H6         6.1814    4.9018    2.6002 H         1 RES1    0.0000
     23 H7         6.4745    1.1161    4.2999 H         1 RES1    0.0000
     24 H8         7.4548   -0.2641    4.0779 H         1 RES1    0.0000
     25 H9         6.0874    0.2602    3.1855 H         1 RES1    0.0000
     26 H10        9.7247    0.0000    2.5701 H         1 RES1    0.0000
     27 H11       10.5257   -1.4592    0.6374 H         1 RES1    0.0000
     28 H12        9.3906   -1.5831   -1.4735 H         1 RES1    0.0000
     29 H13        7.5534   -0.2045   -1.7778 H         1 RES1    0.0000
     30 H14        6.3437    1.0758    0.0740 H         1 RES1    0.0000
     31 H15        8.6366    3.0043   -0.2070 H         1 RES1    0.0000
     32 H16       10.2039    3.2769   -0.6854 H         1 RES1    0.0000
@<TRIPOS>BOND
     1    1    3 1
     2    2   16 2
     3    3    5 1
     4    4   16 1
     5    5    6 1
     6    6    7 1
     7    7    1 1
     8    8    3 1
     9    9    7 1
    10   10    7 1
    11   11   10 ar
    12   12   11 ar
    13   13   12 ar
    14   14   13 ar
    15   15   10 ar
    16   16    5 1
    17   17    5 1
    18   18    6 1
    19   19    6 1
    20   20    8 1
    21   21    8 1
    22   22    8 1
    23   23    9 1
    24   24    9 1
    25   25    9 1
    26   26   11 1
    27   27   12 1
    28   28   13 1
    29   29   14 1
    30   30   15 1
    31   31    4 1
    32   32    4 1
    33   14   15 ar
@<TRIPOS>SUBSTRUCTURE
     1 RES1 1

@<TRIPOS>CRYSIN
  11.2310    7.7450   14.0410  90.0000 102.5200  90.0000  14 1

