# MOL2 file generated by ConQuest
# Please check atom types

@<TRIPOS>MOLECULE
BATWOK
    12    12     1
SMALL
USER_CHARGES
****
Generated from CSD

@<TRIPOS>ATOM
      1 N1         1.8764    1.4698    2.4737 N.3       1 RES1    0.0000
      2 O1         3.3928    1.4698   -1.2059 O.2       1 RES1    0.0000
      3 N2         4.0641    1.4698    2.2614 N.2       1 RES1    0.0000
      4 N3         4.1840    1.4698    5.0453 N.1       1 RES1    1.0000
      5 O2         5.3011    1.4698   -0.1589 O.2       1 RES1    0.0000
      6 N4         2.0735    1.4698    1.1320 N.2       1 RES1    0.0000
      7 C1         3.0542    1.4698    3.1228 C.2       1 RES1    0.0000
      8 N5         3.0503    1.4698    4.5054 N.2       1 RES1    0.0000
      9 N6         4.0745    1.4698   -0.1848 N.pl3     1 RES1    0.0000
     10 N7         5.1043    1.4698    5.6913 N.2       1 RES1   -1.0000
     11 C2         3.3867    1.4698    1.0939 C.2       1 RES1    0.0000
     12 H1         1.0822    1.4698    2.7629 H         1 RES1    0.0000
@<TRIPOS>BOND
     1    1    6 1
     2    2    9 2
     3    3    7 2
     4    4    8 2
     5    5    9 2
     6    6   11 2
     7    7    1 1
     8    8    7 1
     9    9   11 1
    10   10    4 2
    11   11    3 1
    12   12    1 1
@<TRIPOS>SUBSTRUCTURE
     1 RES1 1

@<TRIPOS>CRYSIN
  10.4057    5.8792    9.4946  90.0000  90.0000  90.0000  62 1

