# MOL2 file generated by ConQuest
# Please check atom types

@<TRIPOS>MOLECULE
BATXAX
    15    15     1
SMALL
USER_CHARGES
****
Generated from CSD

@<TRIPOS>ATOM
      1 O1         7.9711    1.4910   -1.3784 O.2       1 RES1    0.0000
      2 O2         6.0758    1.4910   -2.4304 O.2       1 RES1    0.0000
      3 N1         6.6904    1.4910    1.0307 N.2       1 RES1    0.0000
      4 N2         4.7201    1.4910   -0.1243 N.2       1 RES1    0.0000
      5 N3         5.6565    1.4910    3.2492 N.2       1 RES1    0.0000
      6 N4         4.4861    1.4910    1.2148 N.3       1 RES1    0.0000
      7 N5         6.7438    1.4910   -1.4119 N.pl3     1 RES1    0.0000
      8 N6         6.8030    1.4910    3.7523 N.1       1 RES1    1.0000
      9 C1         6.0372    1.4910   -0.1472 C.2       1 RES1    0.0000
     10 C2         5.6608    1.4910    1.8659 C.2       1 RES1    0.0000
     11 N7         7.7469    1.4910    4.3396 N.2       1 RES1   -1.0000
     12 C3         3.1297    1.4910    1.7620 C.3       1 RES1    0.0000
     13 H1         2.4808    1.4910    1.0274 H         1 RES1    0.0000
     14 H2         2.9997    2.2914    2.3126 H         1 RES1    0.0000
     15 H2C        2.9997    0.6906    2.3126 H         1 RES1    0.0000
@<TRIPOS>BOND
     1    1    7 2
     2    2    7 2
     3    3    9 1
     4    4    6 1
     5    5    8 2
     6    6   10 1
     7    7    9 1
     8    8   11 2
     9    9    4 2
    10   10    3 2
    11   12    6 1
    12   13   12 1
    13   14   12 1
    14   15   12 1
    15    5   10 1
@<TRIPOS>SUBSTRUCTURE
     1 RES1 1

@<TRIPOS>CRYSIN
   6.9585    5.9641    8.5356  90.0000 106.5900  90.0000  11 1

