# MOL2 file generated by ConQuest
# Please check atom types

@<TRIPOS>MOLECULE
BAVREY
    24    24     1
SMALL
NO_CHARGES
****
Generated from CSD

@<TRIPOS>ATOM
      1 O1        -0.7855    1.6957    4.5841 O.2       1 RES1    0.0000
      2 O2         2.0535    4.7462    6.0954 O.2       1 RES1    0.0000
      3 N1         0.5961    3.2822    5.4079 N.am      1 RES1    0.0000
      4 N2         1.8305    3.5471    5.8697 N.2       1 RES1    0.0000
      5 C1         3.3393   -1.2737    5.7237 C.ar      1 RES1    0.0000
      6 H1         3.5862   -0.4192    6.0556 H         1 RES1    0.0000
      7 C2         4.2015   -2.3563    5.8998 C.ar      1 RES1    0.0000
      8 H2         5.0267   -2.2342    6.3546 H         1 RES1    0.0000
      9 C3         3.8583   -3.6093    5.4128 C.ar      1 RES1    0.0000
     10 H3         4.4448   -4.3486    5.5295 H         1 RES1    0.0000
     11 C4         2.6375   -3.7728    4.7483 C.ar      1 RES1    0.0000
     12 H4         2.3921   -4.6250    4.4095 H         1 RES1    0.0000
     13 C5         1.7902   -2.6949    4.5862 C.ar      1 RES1    0.0000
     14 H5         0.9631   -2.8169    4.1349 H         1 RES1    0.0000
     15 C6         2.1218   -1.4327    5.0683 C.ar      1 RES1    0.0000
     16 C7         1.1811   -0.3132    4.8825 C.2       1 RES1    0.0000
     17 H6         0.3722   -0.5044    4.4220 H         1 RES1    0.0000
     18 C8         1.3606    0.9351    5.2989 C.2       1 RES1    0.0000
     19 H7         2.1553    1.1747    5.7607 H         1 RES1    0.0000
     20 C9         0.3326    1.9371    5.0453 C.2       1 RES1    0.0000
     21 C10       -0.3661    4.3532    5.2095 C.3       1 RES1    0.0000
     22 H8        -0.4180    4.8991    6.0213 H         1 RES1    0.0000
     23 H9        -1.2474    3.9686    5.0173 H         1 RES1    0.0000
     24 H10       -0.0820    4.9129    4.4570 H         1 RES1    0.0000
@<TRIPOS>BOND
     1    1   20 2
     2    2    4 2
     3    3    4 1
     4    5    6 1
     5    7    5 ar
     6    8    7 1
     7    9    7 ar
     8   10    9 1
     9   11    9 ar
    10   12   11 1
    11   13   11 ar
    12   14   13 1
    13   15    5 ar
    14   16   15 1
    15   17   16 1
    16   18   16 2
    17   19   18 1
    18   20    3 1
    19   21    3 1
    20   22   21 1
    21   23   21 1
    22   24   21 1
    23   13   15 ar
    24   18   20 1
@<TRIPOS>SUBSTRUCTURE
     1 RES1 1

@<TRIPOS>CRYSIN
   5.7930   23.0330    7.1480  90.0000 102.1860  90.0000 231 1

