# MOL2 file generated by ConQuest
# Please check atom types

@<TRIPOS>MOLECULE
BAWCUY
    59    63     1
SMALL
NO_CHARGES
****
Generated from CSD

@<TRIPOS>ATOM
      1 C1         8.4821    5.9960    6.4782 C.2       1 RES1    0.0000
      2 C2         8.1940    4.7740    6.9064 C.2       1 RES1    0.0000
      3 C3         6.7800    4.5206    7.3701 C.3       1 RES1    0.0000
      4 C4         6.4874    5.5970    8.4901 C.3       1 RES1    0.0000
      5 C5         6.3671    6.8797    7.6873 C.3       1 RES1    0.0000
      6 C6         7.3778    6.9834    6.5456 C.3       1 RES1    0.0000
      7 C7         5.9441    6.4963    6.2924 C.3       1 RES1    0.0000
      8 C8         5.8068    4.9900    6.2351 C.3       1 RES1    0.0000
      9 C9         9.7975    6.4488    5.9120 C.3       1 RES1    0.0000
     10 C10        6.5643    3.0791    7.8075 C.3       1 RES1    0.0000
     11 C11        5.9413    8.1661    8.3637 C.3       1 RES1    0.0000
     12 C12        5.2477    5.2782    9.2920 C.ar      1 RES1    0.0000
     13 C13        5.3601    4.6145   10.5178 C.ar      1 RES1    0.0000
     14 C14        4.2469    4.2686   11.2611 C.ar      1 RES1    0.0000
     15 C15        2.9956    4.5896   10.7533 C.ar      1 RES1    0.0000
     16 C16        2.8344    5.2584    9.5600 C.ar      1 RES1    0.0000
     17 C17        3.9648    5.6044    8.8414 C.ar      1 RES1    0.0000
     18 N1         1.8024    4.2026   11.5047 N.pl3     1 RES1    0.0000
     19 O1         1.9534    3.7170   12.6233 O.2       1 RES1    0.0000
     20 O2         0.7073    4.3647   11.0038 O.2       1 RES1    0.0000
     21 C18        6.1015    4.4016    4.8672 C.3       1 RES1    0.0000
     22 O3         5.1527    5.0357    3.9613 O.3       1 RES1    0.0000
     23 C19        5.3250    4.7880    2.6575 C.2       1 RES1    0.0000
     24 O4         6.1144    3.9938    2.2077 O.2       1 RES1    0.0000
     25 C20        4.4460    5.6519    1.8094 C.ar      1 RES1    0.0000
     26 C21        3.7818    6.7505    2.3400 C.ar      1 RES1    0.0000
     27 C22        3.0374    7.5443    1.4938 C.ar      1 RES1    0.0000
     28 C23        2.9161    7.2999    0.1340 C.ar      1 RES1    0.0000
     29 C24        3.5960    6.1954   -0.3473 C.ar      1 RES1    0.0000
     30 C25        4.3557    5.3609    0.4489 C.ar      1 RES1    0.0000
     31 N2         2.3094    8.6950    2.0512 N.pl3     1 RES1    0.0000
     32 O5         2.5969    9.0619    3.1787 O.2       1 RES1    0.0000
     33 O6         1.4456    9.2146    1.3477 O.2       1 RES1    0.0000
     34 N3         3.4840    5.8906   -1.7836 N.pl3     1 RES1    0.0000
     35 O7         2.6711    6.5347   -2.4420 O.2       1 RES1    0.0000
     36 O8         4.2012    5.0162   -2.2403 O.2       1 RES1    0.0000
     37 H1         8.8844    4.0505    6.9218 H         1 RES1    0.0000
     38 H2         7.1980    5.6446    9.1920 H         1 RES1    0.0000
     39 H3         7.9617    7.7052    6.1758 H         1 RES1    0.0000
     40 H4         5.2411    6.7605    5.6327 H         1 RES1    0.0000
     41 H5         4.8702    4.6708    6.3787 H         1 RES1    0.0000
     42 H6        10.4457    5.6874    5.9275 H         1 RES1    0.0000
     43 H7        10.1549    7.2020    6.4634 H         1 RES1    0.0000
     44 H8         9.6662    6.7569    4.9702 H         1 RES1    0.0000
     45 H9         5.6176    2.9585    8.1047 H         1 RES1    0.0000
     46 H10        7.1817    2.8653    8.5642 H         1 RES1    0.0000
     47 H11        6.7534    2.4667    7.0400 H         1 RES1    0.0000
     48 H12        5.9153    8.9048    7.6905 H         1 RES1    0.0000
     49 H13        6.5951    8.3952    9.0858 H         1 RES1    0.0000
     50 H14        5.0322    8.0476    8.7635 H         1 RES1    0.0000
     51 H15        6.2687    4.3832   10.8655 H         1 RES1    0.0000
     52 H16        4.3399    3.8012   12.1403 H         1 RES1    0.0000
     53 H17        1.9217    5.4867    9.2207 H         1 RES1    0.0000
     54 H18        3.8616    6.1014    7.9793 H         1 RES1    0.0000
     55 H19        7.0408    4.6098    4.5918 H         1 RES1    0.0000
     56 H20        5.9688    3.4107    4.8759 H         1 RES1    0.0000
     57 H21        3.8418    6.9613    3.3159 H         1 RES1    0.0000
     58 H22        2.3692    7.8857   -0.4631 H         1 RES1    0.0000
     59 H23        4.8284    4.5704    0.0609 H         1 RES1    0.0000
@<TRIPOS>BOND
     1    1    2 2
     2    2    3 1
     3    3    4 1
     4    4    5 1
     5    5    6 1
     6    6    1 1
     7    7    5 1
     8    8    3 1
     9    9    1 1
    10   10    3 1
    11   11    5 1
    12   12    4 1
    13   13   12 ar
    14   14   13 ar
    15   15   14 ar
    16   16   15 ar
    17   17   12 ar
    18   18   15 1
    19   19   18 2
    20   20   18 2
    21   21    8 1
    22   22   21 1
    23   23   22 1
    24   24   23 2
    25   25   23 1
    26   26   25 ar
    27   27   26 ar
    28   28   27 ar
    29   29   28 ar
    30   30   25 ar
    31   31   27 1
    32   32   31 2
    33   33   31 2
    34   34   29 1
    35   35   34 2
    36   36   34 2
    37   37    2 1
    38   38    4 1
    39   39    6 1
    40   40    7 1
    41   41    8 1
    42   42    9 1
    43   43    9 1
    44   44    9 1
    45   45   10 1
    46   46   10 1
    47   47   10 1
    48   48   11 1
    49   49   11 1
    50   50   11 1
    51   51   13 1
    52   52   14 1
    53   53   16 1
    54   54   17 1
    55   55   21 1
    56   56   21 1
    57   57   26 1
    58   58   28 1
    59   59   30 1
    60    6    7 1
    61    7    8 1
    62   16   17 ar
    63   29   30 ar
@<TRIPOS>SUBSTRUCTURE
     1 RES1 1

@<TRIPOS>CRYSIN
   8.0506   12.3846   13.2746  64.4650  86.9300  73.0600   2 1

