# MOL2 file generated by ConQuest
# Please check atom types

@<TRIPOS>MOLECULE
BAWTEY
    24    24     1
SMALL
NO_CHARGES
****
Generated from CSD

@<TRIPOS>ATOM
      1 O1         8.5568    8.2187    3.6387 O.3       1 RES1    0.0000
      2 N1         8.6924    6.8250    3.4413 N.am      1 RES1    0.0000
      3 C1         7.5429    6.1251    3.3656 C.2       1 RES1    0.0000
      4 N2         6.4292    6.8094    2.9272 N.am      1 RES1    0.0000
      5 C2         6.5380    8.0640    2.3626 C.2       1 RES1    0.0000
      6 C3         7.8827    8.7243    2.5035 C.3       1 RES1    0.0000
      7 C4         7.7777   10.2161    2.6497 C.3       1 RES1    0.0000
      8 O2         5.6339    8.5801    1.7728 O.2       1 RES1    0.0000
      9 C5         5.1757    6.0822    2.7923 C.3       1 RES1    0.0000
     10 O3         7.5069    4.9299    3.6048 O.2       1 RES1    0.0000
     11 C6         6.8638   10.6455    3.7657 C.2       1 RES1    0.0000
     12 O4         6.3752    9.9226    4.5686 O.2       1 RES1    0.0000
     13 O5         6.6755   11.9461    3.7248 O.3       1 RES1    0.0000
     14 C7         5.8500   12.5040    4.7652 C.3       1 RES1    0.0000
     15 H1         9.1734    6.4667    4.2624 H         1 RES1    0.0000
     16 H2         8.4196    8.5352    1.6789 H         1 RES1    0.0000
     17 H3         8.6972   10.6037    2.8271 H         1 RES1    0.0000
     18 H4         7.4415   10.6246    1.7920 H         1 RES1    0.0000
     19 H5         4.4273    6.7592    2.6097 H         1 RES1    0.0000
     20 H6         5.1573    5.5474    1.8268 H         1 RES1    0.0000
     21 H7         5.0097    5.2235    3.3926 H         1 RES1    0.0000
     22 H8         4.9499   11.9827    4.8714 H         1 RES1    0.0000
     23 H9         5.5955   13.4557    4.5408 H         1 RES1    0.0000
     24 H10        6.3866   12.4842    5.6108 H         1 RES1    0.0000
@<TRIPOS>BOND
     1    1    2 1
     2    2    3 1
     3    3    4 1
     4    4    5 1
     5    5    6 1
     6    6    1 1
     7    7    6 1
     8    8    5 2
     9    9    4 1
    10   10    3 2
    11   11    7 1
    12   12   11 2
    13   13   11 1
    14   14   13 1
    15   15    2 1
    16   16    6 1
    17   17    7 1
    18   18    7 1
    19   19    9 1
    20   20    9 1
    21   21    9 1
    22   22   14 1
    23   23   14 1
    24   24   14 1
@<TRIPOS>SUBSTRUCTURE
     1 RES1 1

@<TRIPOS>CRYSIN
   9.9430   10.4470    8.8860  90.0000 101.7800  90.0000  14 1

