# MOL2 file generated by ConQuest
# Please check atom types

@<TRIPOS>MOLECULE
BAXIFL
    38    40     1
SMALL
NO_CHARGES
****
Generated from CSD

@<TRIPOS>ATOM
      1 C1         1.8336    4.3325    5.0748 C.2       1 RES1    0.0000
      2 C2         1.2404    5.0713    6.2125 C.ar      1 RES1    0.0000
      3 C3         1.2666    4.8176    7.5676 C.ar      1 RES1    0.0000
      4 C4         0.6067    5.7215    8.3888 C.ar      1 RES1    0.0000
      5 C5        -0.0644    6.8426    7.8452 C.ar      1 RES1    0.0000
      6 C6        -0.0670    7.1151    6.4843 C.ar      1 RES1    0.0000
      7 C7         0.5799    6.1796    5.6708 C.ar      1 RES1    0.0000
      8 C8         0.7183    6.1901    4.1992 C.ar      1 RES1    0.0000
      9 C9         0.2362    7.0605    3.2402 C.ar      1 RES1    0.0000
     10 C10        0.5402    6.7675    1.8987 C.ar      1 RES1    0.0000
     11 C11        1.2300    5.6134    1.5337 C.ar      1 RES1    0.0000
     12 C12        1.6932    4.7454    2.5122 C.ar      1 RES1    0.0000
     13 C13        1.4381    5.0326    3.8614 C.ar      1 RES1    0.0000
     14 N1         2.6172    3.2707    4.9797 N.2       1 RES1    0.0000
     15 O1         2.8941    2.7756    6.2241 O.3       1 RES1    0.0000
     16 C14        3.8562    1.6873    6.0475 C.3       1 RES1    0.0000
     17 C15        5.2557    2.2517    5.8417 C.3       1 RES1    0.0000
     18 O2         6.1052    1.1188    5.5854 O.3       1 RES1    0.0000
     19 C16        5.7222    2.9852    7.0900 C.3       1 RES1    0.0000
     20 N2         7.1029    3.4486    6.8570 N.3       1 RES1    0.0000
     21 C17        7.8033    4.0089    8.0044 C.3       1 RES1    0.0000
     22 C18        6.9269    5.1130    8.6955 C.3       1 RES1    0.0000
     23 C19        8.0951    2.9547    9.0877 C.3       1 RES1    0.0000
     24 C20        9.0982    4.6743    7.4550 C.3       1 RES1    0.0000
     25 H1         1.7932    4.0218    7.9597 H         1 RES1    0.0000
     26 H2         0.5815    5.6028    9.3905 H         1 RES1    0.0000
     27 H3        -0.5335    7.5374    8.4412 H         1 RES1    0.0000
     28 H4        -0.4028    7.9385    6.0979 H         1 RES1    0.0000
     29 H5        -0.2721    7.8557    3.5042 H         1 RES1    0.0000
     30 H6         0.2203    7.4370    1.1823 H         1 RES1    0.0000
     31 H7         1.4098    5.4261    0.5494 H         1 RES1    0.0000
     32 H8         2.2406    3.8550    2.3297 H         1 RES1    0.0000
     33 H9         3.8625    1.1118    6.8920 H         1 RES1    0.0000
     34 H10        3.5908    1.1259    5.2107 H         1 RES1    0.0000
     35 H11        5.2652    2.8807    4.9913 H         1 RES1    0.0000
     36 H12        5.0830    3.8022    7.2317 H         1 RES1    0.0000
     37 H13        5.6841    2.3745    7.9209 H         1 RES1    0.0000
     38 H14        7.5687    3.3200    5.9252 H         1 RES1    0.0000
@<TRIPOS>BOND
     1    1    2 1
     2    2    3 ar
     3    3    4 ar
     4    4    5 ar
     5    5    6 ar
     6    6    7 ar
     7    7    2 ar
     8    8    7 1
     9    9    8 ar
    10   10    9 ar
    11   11   10 ar
    12   12   11 ar
    13   13    1 1
    14   14    1 2
    15   15   14 1
    16   16   15 1
    17   17   16 1
    18   18   17 1
    19   19   17 1
    20   20   19 1
    21   21   20 1
    22   22   21 1
    23   23   21 1
    24   24   21 1
    25   25    3 1
    26   26    4 1
    27   27    5 1
    28   28    6 1
    29   29    9 1
    30   30   10 1
    31   31   11 1
    32   32   12 1
    33   33   16 1
    34   34   16 1
    35   35   17 1
    36   36   19 1
    37   37   19 1
    38   38   20 1
    39    8   13 ar
    40   12   13 ar
@<TRIPOS>SUBSTRUCTURE
     1 RES1 1

@<TRIPOS>CRYSIN
  15.8820    5.8730   19.9690  90.0000 103.5400  90.0000  14 1

