# MOL2 file generated by ConQuest
# Please check atom types

@<TRIPOS>MOLECULE
BAXYEH
    59    62     1
SMALL
USER_CHARGES
****
Generated from CSD

@<TRIPOS>ATOM
      1 C1        17.3260   10.6982   13.1825 C.ar      1 RES1    0.0000
      2 C2        16.8636   11.7928   13.8868 C.ar      1 RES1    0.0000
      3 H1        16.0973   12.2403   13.6058 H         1 RES1    0.0000
      4 C3        17.5502   12.2220   15.0156 C.ar      1 RES1    0.0000
      5 H2        17.2254   12.9554   15.4863 H         1 RES1    0.0000
      6 C4        18.6989   11.5954   15.4655 C.ar      1 RES1    0.0000
      7 C5        19.4556   12.0906   16.6787 C.3       1 RES1    0.0000
      8 H3        20.2190   11.5284   16.8314 H         1 RES1    0.0000
      9 H4        18.8810   12.0649   17.4467 H         1 RES1    0.0000
     10 H5        19.7479   12.9918   16.5272 H         1 RES1    0.0000
     11 C6        19.1338   10.4948   14.7577 C.ar      1 RES1    0.0000
     12 H6        19.9022   10.0501   15.0353 H         1 RES1    0.0000
     13 C7        18.4537   10.0362   13.6439 C.ar      1 RES1    0.0000
     14 H7        18.7565    9.2776   13.2010 H         1 RES1    0.0000
     15 C8        17.3056   10.5229   10.6831 C.3       1 RES1    0.0000
     16 C9        17.8509   11.9475   10.6195 C.3       1 RES1    0.0000
     17 H8        18.6308   12.0167   11.1747 H         1 RES1    0.0000
     18 H9        17.1806   12.5608   10.9306 H         1 RES1    0.0000
     19 H10       18.0836   12.1612    9.7128 H         1 RES1    0.0000
     20 C10       18.3837    9.4948   10.3639 C.3       1 RES1    0.0000
     21 H11       19.1372    9.6310   10.9434 H         1 RES1    0.0000
     22 H12       18.6595    9.5935    9.4502 H         1 RES1    0.0000
     23 H13       18.0320    8.6106   10.4981 H         1 RES1    0.0000
     24 C11       16.0871   10.3825    9.8215 C.2       1 RES1    0.0000
     25 C12       14.9285   10.0887    7.7385 C.ar      1 RES1    0.0000
     26 C13       14.4369   11.0641    6.9162 C.ar      1 RES1    0.0000
     27 H14       14.8583   11.8912    6.8619 H         1 RES1    0.0000
     28 C14       13.3124   10.8047    6.1702 C.ar      1 RES1    0.0000
     29 H15       12.9685   11.4688    5.6162 H         1 RES1    0.0000
     30 C15       12.6818    9.5725    6.2281 C.ar      1 RES1    0.0000
     31 C16       11.4174    9.3059    5.4243 C.3       1 RES1    0.0000
     32 H16       11.1812   10.0926    4.9269 H         1 RES1    0.0000
     33 H17       10.7011    9.0764    6.0199 H         1 RES1    0.0000
     34 H18       11.5721    8.5784    4.8159 H         1 RES1    0.0000
     35 C17       13.2195    8.6079    7.0353 C.ar      1 RES1    0.0000
     36 H19       12.8188    7.7691    7.0689 H         1 RES1    0.0000
     37 C18       14.3419    8.8485    7.7987 C.ar      1 RES1    0.0000
     38 H20       14.6954    8.1837    8.3446 H         1 RES1    0.0000
     39 C19       14.8275   10.3557   10.6519 C.3       1 RES1    0.0000
     40 H21       14.4779    9.4427   10.7074 H         1 RES1    0.0000
     41 C20       13.7260   11.3146   10.2876 C.ar      1 RES1    0.0000
     42 C21       12.4565   10.8595    9.9892 C.ar      1 RES1    0.0000
     43 H22       12.2855    9.9460    9.9984 H         1 RES1    0.0000
     44 C22       11.4403   11.7387    9.6781 C.ar      1 RES1    0.0000
     45 H23       10.5930   11.4152    9.4699 H         1 RES1    0.0000
     46 C23       11.6815   13.0960    9.6758 C.ar      1 RES1    0.0000
     47 C24       10.7898   15.2931    9.4098 C.3       1 RES1    0.0000
     48 H24        9.9654   15.7343    9.1935 H         1 RES1    0.0000
     49 H25       11.4597   15.5327    8.7644 H         1 RES1    0.0000
     50 H26       11.0770   15.5627   10.2853 H         1 RES1    0.0000
     51 C25       12.9352   13.5661    9.9603 C.ar      1 RES1    0.0000
     52 H27       13.1059   14.4805    9.9568 H         1 RES1    0.0000
     53 C26       13.9457   12.6711   10.2529 C.ar      1 RES1    0.0000
     54 H28       14.7993   12.9958   10.4322 H         1 RES1    0.0000
     55 N1        16.6794   10.1573   12.0153 N.3       1 RES1    0.0000
     56 N2        16.1255   10.3549    8.5169 N.pl3     1 RES1    1.0000
     57 O1        15.3444   10.7727   11.9383 O.3       1 RES1    0.0000
     58 O2        17.2138   10.5330    7.8187 O.2       1 RES1   -1.0000
     59 O3        10.5944   13.8902    9.3869 O.3       1 RES1    0.0000
@<TRIPOS>BOND
     1    1    2 ar
     2    2    3 1
     3    4    2 ar
     4    5    4 1
     5    6    4 ar
     6    7    6 1
     7    8    7 1
     8    9    7 1
     9   10    7 1
    10   11    6 ar
    11   12   11 1
    12   13    1 ar
    13   14   13 1
    14   15   16 1
    15   16   17 1
    16   18   16 1
    17   19   16 1
    18   20   15 1
    19   21   20 1
    20   22   20 1
    21   23   20 1
    22   24   15 1
    23   25   26 ar
    24   26   27 1
    25   28   26 ar
    26   29   28 1
    27   30   28 ar
    28   31   30 1
    29   32   31 1
    30   33   31 1
    31   34   31 1
    32   35   30 ar
    33   36   35 1
    34   37   25 ar
    35   38   37 1
    36   39   24 1
    37   40   39 1
    38   41   39 1
    39   42   41 ar
    40   43   42 1
    41   44   42 ar
    42   45   44 1
    43   46   44 ar
    44   47   48 1
    45   49   47 1
    46   50   47 1
    47   51   46 ar
    48   52   51 1
    49   53   41 ar
    50   54   53 1
    51   55    1 1
    52   56   24 2
    53   57   39 1
    54   58   56 1
    55   59   46 1
    56   11   13 ar
    57   15   55 1
    58   25   56 1
    59   35   37 ar
    60   47   59 1
    61   51   53 ar
    62   55   57 1
@<TRIPOS>SUBSTRUCTURE
     1 RES1 1

@<TRIPOS>CRYSIN
  10.2940   10.7033   12.3760  69.3120  79.5860  66.4600   2 1

