# MOL2 file generated by ConQuest
# Please check atom types

@<TRIPOS>MOLECULE
BAYFIT
    71    75     1
SMALL
NO_CHARGES
****
Generated from CSD

@<TRIPOS>ATOM
      1 O1         1.3986   13.9360    7.7307 O.3       1 RES1    0.0000
      2 N1         2.2691   12.6317    9.2862 N.am      1 RES1    0.0000
      3 C1         0.2766   15.8600    6.9659 C.3       1 RES1    0.0000
      4 O2         0.0575   13.1845    9.4244 O.2       1 RES1    0.0000
      5 N2        -1.7630   10.0345   10.5277 N.am      1 RES1    0.0000
      6 C2        -0.8737   16.2975    6.0490 C.3       1 RES1    0.0000
      7 H1        -1.7249   16.0652    6.4758 H         1 RES1    0.0000
      8 H2        -0.8464   17.2718    5.9489 H         1 RES1    0.0000
      9 O3         3.0918    9.8314    9.8632 O.3       1 RES1    0.0000
     10 H3         3.8761    9.7235   10.2142 H         1 RES1    0.0000
     11 C3        -0.8245   15.6649    4.6832 C.3       1 RES1    0.0000
     12 H4        -0.0056   15.9363    4.2196 H         1 RES1    0.0000
     13 H5        -1.5918   15.9617    4.1519 H         1 RES1    0.0000
     14 O4        -3.7226    9.5098   11.6113 O.2       1 RES1    0.0000
     15 C4        -0.8552   14.1556    4.8319 C.3       1 RES1    0.0000
     16 H6        -0.8070   13.7456    3.9429 H         1 RES1    0.0000
     17 H7        -1.7089   13.8920    5.2366 H         1 RES1    0.0000
     18 O5         4.2767   13.7495    8.8852 O.3       1 RES1    0.0000
     19 C5         0.2903   13.6154    5.6929 C.3       1 RES1    0.0000
     20 N3         0.2178   14.3645    6.9832 N.3       1 RES1    0.0000
     21 C6         1.6044   16.4615    6.5185 C.3       1 RES1    0.0000
     22 H8         1.5972   17.4183    6.6819 H         1 RES1    0.0000
     23 H9         1.7324   16.2956    5.5722 H         1 RES1    0.0000
     24 H10        2.3288   16.0554    7.0189 H         1 RES1    0.0000
     25 C7        -0.0240   16.3151    8.3862 C.3       1 RES1    0.0000
     26 H11       -0.1320   17.2777    8.4009 H         1 RES1    0.0000
     27 H12        0.7102   16.0632    8.9690 H         1 RES1    0.0000
     28 H13       -0.8407   15.8914    8.6953 H         1 RES1    0.0000
     29 C8         1.6075   13.6734    4.9422 C.3       1 RES1    0.0000
     30 H14        1.6461   12.9451    4.3005 H         1 RES1    0.0000
     31 H15        2.3419   13.5874    5.5707 H         1 RES1    0.0000
     32 H16        1.6776   14.5207    4.4757 H         1 RES1    0.0000
     33 C9        -0.0124   12.1543    6.0623 C.3       1 RES1    0.0000
     34 H17       -0.2028   11.6486    5.2557 H         1 RES1    0.0000
     35 H18       -0.7820   12.1231    6.6525 H         1 RES1    0.0000
     36 H19        0.7560   11.7677    6.5112 H         1 RES1    0.0000
     37 C10        1.1166   13.2356    8.8719 C.2       1 RES1    0.0000
     38 C11        2.2769   11.9868   10.6130 C.3       1 RES1    0.0000
     39 H20        1.5759   12.3984   11.1620 H         1 RES1    0.0000
     40 H21        3.1368   12.1758   11.0443 H         1 RES1    0.0000
     41 C12        2.0586   10.4601   10.6057 C.3       1 RES1    0.0000
     42 C13        0.7416   10.0569    9.9301 C.3       1 RES1    0.0000
     43 H22        0.5882   10.6118    9.1383 H         1 RES1    0.0000
     44 H23        0.7859    9.1201    9.6461 H         1 RES1    0.0000
     45 C14       -0.3802   10.2405   10.9059 C.3       1 RES1    0.0000
     46 H24       -0.3065   11.1585   11.2709 H         1 RES1    0.0000
     47 C15       -2.5031    9.5192   11.5388 C.2       1 RES1    0.0000
     48 C16       -1.5735    8.8997   12.5499 C.3       1 RES1    0.0000
     49 C17       -0.6957    7.8813   11.8626 C.3       1 RES1    0.0000
     50 H25       -0.3008    7.1735   12.4145 H         1 RES1    0.0000
     51 H26       -0.9422    7.6050   10.9559 H         1 RES1    0.0000
     52 C18       -0.1884    9.2818   12.0554 C.3       1 RES1    0.0000
     53 C19        1.0960    9.4825   12.7309 C.2       1 RES1    0.0000
     54 H27        1.1995    9.2412   13.6331 H         1 RES1    0.0000
     55 C20        2.1110   10.0083   12.0598 C.2       1 RES1    0.0000
     56 H28        2.9265   10.1100   12.5160 H         1 RES1    0.0000
     57 C21       -2.3523   10.7622    9.4194 C.3       1 RES1    0.0000
     58 H29       -2.0654   10.3658    8.5820 H         1 RES1    0.0000
     59 H30       -2.0651   11.6896    9.4518 H         1 RES1    0.0000
     60 H31       -3.3193   10.7212    9.4827 H         1 RES1    0.0000
     61 C22       -2.0269    8.7433   13.9687 C.3       1 RES1    0.0000
     62 H32       -1.2946    8.4036   14.5059 H         1 RES1    0.0000
     63 H33       -2.7710    8.1224   14.0040 H         1 RES1    0.0000
     64 H34       -2.3082    9.6063   14.3146 H         1 RES1    0.0000
     65 C23        3.4466   12.7459    8.5717 C.2       1 RES1    0.0000
     66 C24        3.9453   12.0489    7.5223 C.2       1 RES1    0.0000
     67 H35        3.5446   11.2972    7.1278 H         1 RES1    0.0000
     68 C25        5.1181   12.6151    7.1352 C.2       1 RES1    0.0000
     69 H36        5.6640   12.3437    6.4199 H         1 RES1    0.0000
     70 C26        5.3388   13.6226    7.9653 C.2       1 RES1    0.0000
     71 H37        6.0982   14.1771    7.9447 H         1 RES1    0.0000
@<TRIPOS>BOND
     1    1   20 1
     2    2   37 1
     3    3    6 1
     4    4   37 2
     5    5   45 1
     6    6    7 1
     7    8    6 1
     8    9   10 1
     9   11    6 1
    10   12   11 1
    11   13   11 1
    12   14   47 2
    13   15   11 1
    14   16   15 1
    15   17   15 1
    16   18   65 1
    17   19   15 1
    18   20    3 1
    19   21    3 1
    20   22   21 1
    21   23   21 1
    22   24   21 1
    23   25    3 1
    24   26   25 1
    25   27   25 1
    26   28   25 1
    27   29   19 1
    28   30   29 1
    29   31   29 1
    30   32   29 1
    31   33   19 1
    32   34   33 1
    33   35   33 1
    34   36   33 1
    35   37    1 1
    36   38    2 1
    37   39   38 1
    38   40   38 1
    39   41    9 1
    40   42   41 1
    41   43   42 1
    42   44   42 1
    43   45   42 1
    44   46   45 1
    45   47    5 1
    46   48   47 1
    47   49   48 1
    48   50   49 1
    49   51   49 1
    50   52   45 1
    51   53   52 1
    52   54   53 1
    53   55   41 1
    54   56   55 1
    55   57    5 1
    56   58   57 1
    57   59   57 1
    58   60   57 1
    59   61   48 1
    60   62   61 1
    61   63   61 1
    62   64   61 1
    63   65    2 1
    64   66   65 2
    65   67   66 1
    66   68   66 1
    67   69   68 1
    68   70   18 1
    69   71   70 1
    70   19   20 1
    71   38   41 1
    72   48   52 1
    73   49   52 1
    74   53   55 2
    75   68   70 2
@<TRIPOS>SUBSTRUCTURE
     1 RES1 1

@<TRIPOS>CRYSIN
   9.0643   19.5250   15.1889  90.0000 104.3070  90.0000  14 1

