# MOL2 file generated by ConQuest
# Please check atom types

@<TRIPOS>MOLECULE
BAYGAL
    27    28     1
SMALL
NO_CHARGES
****
Generated from CSD

@<TRIPOS>ATOM
      1 H1         3.4883    5.1911   15.2682 H         1 RES1    0.0000
      2 H2         0.1436    4.5171   13.1378 H         1 RES1    0.0000
      3 H3         2.2873    7.2571   14.1707 H         1 RES1    0.0000
      4 H4         2.4255    3.6154   13.6349 H         1 RES1    0.0000
      5 C1         0.8895    5.0353   13.2141 C.3       1 RES1    0.0000
      6 C2         2.1162    4.4803   13.8549 C.2       1 RES1    0.0000
      7 C3         2.6663    5.3408   14.6703 C.2       1 RES1    0.0000
      8 C4         1.9119    6.6373   14.7342 C.3       1 RES1    0.0000
      9 C5         1.8008    7.2886   16.1117 C.3       1 RES1    0.0000
     10 H5         2.6712    7.2825   16.5400 H         1 RES1    0.0000
     11 H6         1.5255    8.2130   16.0074 H         1 RES1    0.0000
     12 C6         0.8036    6.5681   16.9983 C.3       1 RES1    0.0000
     13 H7         1.1385    5.6866   17.2244 H         1 RES1    0.0000
     14 H8         0.6728    7.0654   17.8215 H         1 RES1    0.0000
     15 C7        -0.4997    6.4491   16.2571 C.3       1 RES1    0.0000
     16 H9        -1.1522    6.0079   16.8241 H         1 RES1    0.0000
     17 H10       -0.8343    7.3359   16.0494 H         1 RES1    0.0000
     18 C8         0.5580    6.2547   14.1157 C.3       1 RES1    0.0000
     19 C9        -1.3439    7.2886   13.0624 C.3       1 RES1    0.0000
     20 H11       -1.4923    6.4622   12.5955 H         1 RES1    0.0000
     21 H12       -1.5627    8.0248   12.4857 H         1 RES1    0.0000
     22 H13       -1.9000    7.3183   13.8447 H         1 RES1    0.0000
     23 N1         1.1755    5.5282   11.8069 N.pl3     1 RES1    0.0000
     24 O1         0.2981    5.3601   10.9615 O.2       1 RES1    0.0000
     25 O2         2.2274    6.1059   11.6018 O.2       1 RES1    0.0000
     26 O3         0.0344    7.3773   13.4512 O.3       1 RES1    0.0000
     27 O4        -0.3451    5.6998   15.0345 O.3       1 RES1    0.0000
@<TRIPOS>BOND
     1    1    7 1
     2    2    5 1
     3    3    8 1
     4    4    6 1
     5    5    6 1
     6    6    7 2
     7    7    8 1
     8    8    9 1
     9    9   10 1
    10   11    9 1
    11   12    9 1
    12   13   12 1
    13   14   12 1
    14   15   12 1
    15   16   15 1
    16   17   15 1
    17   18    5 1
    18   19   20 1
    19   21   19 1
    20   22   19 1
    21   23    5 1
    22   24   23 2
    23   25   23 2
    24   26   18 1
    25   27   15 1
    26    8   18 1
    27   18   27 1
    28   19   26 1
@<TRIPOS>SUBSTRUCTURE
     1 RES1 1

@<TRIPOS>CRYSIN
   6.6278    8.7540   16.1440  90.0000  91.3100  90.0000 231 1

