# MOL2 file generated by ConQuest
# Please check atom types

@<TRIPOS>MOLECULE
BAYJUJ
    39    41     1
SMALL
USER_CHARGES
****
Generated from CSD

@<TRIPOS>ATOM
      1 C1         6.0558    4.4729    1.4975 C.ar      1 RES1    0.0000
      2 C2         6.9221    5.4074    0.8660 C.ar      1 RES1    0.0000
      3 H1         7.2696    6.1521    1.3396 H         1 RES1    0.0000
      4 C3         7.2311    5.1966   -0.4127 C.ar      1 RES1    0.0000
      5 H2         7.7928    5.8211   -0.8582 H         1 RES1    0.0000
      6 C4         6.7445    4.0741   -1.1286 C.ar      1 RES1    0.0000
      7 C5         6.7983    2.7464   -3.1373 C.3       1 RES1    0.0000
      8 H3         7.1959    2.7584   -4.0314 H         1 RES1    0.0000
      9 H4         5.8183    2.7350   -3.2185 H         1 RES1    0.0000
     10 H5         7.0919    1.9464   -2.6558 H         1 RES1    0.0000
     11 C6         5.9063    3.2137   -0.5299 C.ar      1 RES1    0.0000
     12 H6         5.5669    2.4695   -1.0129 H         1 RES1    0.0000
     13 C7         5.5354    3.4074    0.7941 C.ar      1 RES1    0.0000
     14 H7         4.9194    2.8148    1.2114 H         1 RES1    0.0000
     15 C8         6.1270    3.9715    3.7735 C.2       1 RES1    0.0000
     16 C9         6.9742    2.7578    3.5749 C.3       1 RES1    0.0000
     17 H8         7.6580    2.8997    2.8715 H         1 RES1    0.0000
     18 H9         6.4329    1.9618    3.3530 H         1 RES1    0.0000
     19 C10        5.9091    4.1481    5.3351 C.3       1 RES1    0.0000
     20 C11        6.6547    5.2820    5.8009 C.3       1 RES1    0.0000
     21 H10        7.5981    5.1801    5.5508 H         1 RES1    0.0000
     22 H11        6.5815    5.3447    6.7763 H         1 RES1    0.0000
     23 H12        6.2976    6.0986    5.3929 H         1 RES1    0.0000
     24 C12        4.3747    4.0798    5.6289 C.ar      1 RES1    0.0000
     25 C13        3.6168    2.9801    5.2319 C.ar      1 RES1    0.0000
     26 H13        4.0403    2.2855    4.7395 H         1 RES1    0.0000
     27 C14        2.2428    2.8718    5.5398 C.ar      1 RES1    0.0000
     28 H14        1.6951    2.1658    5.2178 H         1 RES1    0.0000
     29 C15        1.7643    3.8917    6.3621 C.ar      1 RES1    0.0000
     30 H15        0.8736    3.7966    6.6856 H         1 RES1    0.0000
     31 C16        2.3557    4.8946    6.7044 C.ar      1 RES1    0.0000
     32 H16        1.8809    5.5772    7.1577 H         1 RES1    0.0000
     33 C17        3.7951    5.0826    6.4402 C.ar      1 RES1    0.0000
     34 H17        4.2947    5.8142    6.7872 H         1 RES1    0.0000
     35 N1         5.6677    4.7350    2.8121 N.pl3     1 RES1    1.0000
     36 O1         5.0089    5.8678    3.0825 O.2       1 RES1   -1.0000
     37 O2         7.2138    3.9544   -2.3932 O.3       1 RES1    0.0000
     38 O3         7.6043    2.6382    4.9396 O.3       1 RES1    0.0000
     39 O4         6.3417    2.8889    5.7415 O.3       1 RES1    0.0000
@<TRIPOS>BOND
     1    1    2 ar
     2    2    3 1
     3    4    2 ar
     4    5    4 1
     5    6    4 ar
     6    7    8 1
     7    9    7 1
     8   10    7 1
     9   11    6 ar
    10   12   11 1
    11   13    1 ar
    12   14   13 1
    13   15   16 1
    14   16   17 1
    15   18   16 1
    16   19   15 1
    17   20   19 1
    18   21   20 1
    19   22   20 1
    20   23   20 1
    21   24   19 1
    22   25   24 ar
    23   26   25 1
    24   27   25 ar
    25   28   27 1
    26   29   27 ar
    27   30   29 1
    28   31   29 ar
    29   32   31 1
    30   33   24 ar
    31   34   33 1
    32   35    1 1
    33   36   35 1
    34   37    6 1
    35   38   16 1
    36   39   19 1
    37    7   37 1
    38   11   13 ar
    39   15   35 2
    40   31   33 ar
    41   38   39 1
@<TRIPOS>SUBSTRUCTURE
     1 RES1 1

@<TRIPOS>CRYSIN
   8.4800    5.6980   15.6560  90.0000  93.2000  90.0000   4 1

