# MOL2 file generated by ConQuest
# Please check atom types

@<TRIPOS>MOLECULE
BAYLAP
    47    47     1
SMALL
NO_CHARGES
****
Generated from CSD

@<TRIPOS>ATOM
      1 O1        18.4132    1.1744    4.4138 O.2       1 RES1    0.0000
      2 O2        17.9134   -0.6922    3.5661 O.2       1 RES1    0.0000
      3 O3        12.0804    3.5999    0.7342 O.2       1 RES1    0.0000
      4 O4        11.9316    1.3580    1.0231 O.3       1 RES1    0.0000
      5 O5        14.4360    5.8563    2.4227 O.2       1 RES1    0.0000
      6 O6        12.8832    4.5763    3.3856 O.3       1 RES1    0.0000
      7 N1        18.3152    0.4376    3.4698 N.pl3     1 RES1    0.0000
      8 N2        13.6475    2.4136    1.8776 N.am      1 RES1    0.0000
      9 C1        14.5067    3.5037    2.1269 C.2       1 RES1    0.0000
     10 C2        15.8300    3.3862    2.0650 C.2       1 RES1    0.0000
     11 C3        16.5599    2.1212    1.7469 C.3       1 RES1    0.0000
     12 C4        18.0723    2.2614    1.8656 C.3       1 RES1    0.0000
     13 C5        18.7979    0.9563    2.1218 C.3       1 RES1    0.0000
     14 C6        20.3012    1.1794    2.2628 C.3       1 RES1    0.0000
     15 C7        18.4955   -0.1006    1.0781 C.3       1 RES1    0.0000
     16 C8        12.5050    2.5620    1.1658 C.2       1 RES1    0.0000
     17 C9        10.6884    1.2825    0.2579 C.3       1 RES1    0.0000
     18 C10        9.5539    0.9896    1.1864 C.ar      1 RES1    0.0000
     19 C11        9.3791   -0.2691    1.7005 C.ar      1 RES1    0.0000
     20 C12        8.3128   -0.5313    2.5654 C.ar      1 RES1    0.0000
     21 C13        7.4334    0.4583    2.8783 C.ar      1 RES1    0.0000
     22 C14        7.5970    1.6981    2.3797 C.ar      1 RES1    0.0000
     23 C15        8.6577    1.9810    1.5183 C.ar      1 RES1    0.0000
     24 C16       13.9439    4.7668    2.6204 C.2       1 RES1    0.0000
     25 C17       12.2937    5.7539    4.0028 C.3       1 RES1    0.0000
     26 H1        13.8886    1.5026    2.2301 H         1 RES1    0.0000
     27 H2        16.2405    1.3511    2.4313 H         1 RES1    0.0000
     28 H3        16.3144    1.8264    0.7342 H         1 RES1    0.0000
     29 H4        18.4476    2.6927    0.9285 H         1 RES1    0.0000
     30 H5        18.2948    2.9517    2.6668 H         1 RES1    0.0000
     31 H6        20.7262    1.5372    1.3343 H         1 RES1    0.0000
     32 H7        20.5038    1.8943    3.0468 H         1 RES1    0.0000
     33 H8        20.7930    0.2351    2.5224 H         1 RES1    0.0000
     34 H9        18.8257    0.2534    0.0997 H         1 RES1    0.0000
     35 H10       19.0117   -1.0122    1.3136 H         1 RES1    0.0000
     36 H11       17.4289   -0.2848    1.0334 H         1 RES1    0.0000
     37 H12       10.4921    2.2445   -0.2614 H         1 RES1    0.0000
     38 H13       10.7353    0.5162   -0.5158 H         1 RES1    0.0000
     39 H14       10.0565   -1.0650    1.4065 H         1 RES1    0.0000
     40 H15        8.2055   -1.5636    2.9849 H         1 RES1    0.0000
     41 H16        6.6314    0.1748    3.5438 H         1 RES1    0.0000
     42 H17        6.8868    2.4658    2.6462 H         1 RES1    0.0000
     43 H18        8.8083    2.9819    1.0884 H         1 RES1    0.0000
     44 H19       11.4308    5.4684    4.5960 H         1 RES1    0.0000
     45 H20       13.0154    6.2436    4.6304 H         1 RES1    0.0000
     46 H21       11.9634    6.4479    3.2291 H         1 RES1    0.0000
     47 H22       16.4262    4.2896    2.2800 H         1 RES1    0.0000
@<TRIPOS>BOND
     1    1    7 2
     2    2    7 2
     3    3   16 2
     4    4   16 1
     5    5   24 2
     6    6   24 1
     7    7   13 1
     8    8    9 1
     9    9   10 2
    10   10   11 1
    11   11   12 1
    12   12   13 1
    13   13   14 1
    14   14   31 1
    15   15   13 1
    16   16    8 1
    17   17    4 1
    18   18   17 1
    19   19   18 ar
    20   20   19 ar
    21   21   20 ar
    22   22   21 ar
    23   23   18 ar
    24   24    9 1
    25   25    6 1
    26   26    8 1
    27   27   11 1
    28   28   11 1
    29   29   12 1
    30   30   12 1
    31   32   14 1
    32   33   14 1
    33   34   15 1
    34   35   15 1
    35   36   15 1
    36   37   17 1
    37   38   17 1
    38   39   19 1
    39   40   20 1
    40   41   21 1
    41   42   22 1
    42   43   23 1
    43   44   25 1
    44   45   25 1
    45   46   25 1
    46   47   10 1
    47   22   23 ar
@<TRIPOS>SUBSTRUCTURE
     1 RES1 1

@<TRIPOS>CRYSIN
  16.5390    6.2870   17.4980  90.0000 100.6900  90.0000 231 1

