# MOL2 file generated by ConQuest
# Please check atom types

@<TRIPOS>MOLECULE
BAYXIJ
    26    26     1
SMALL
NO_CHARGES
****
Generated from CSD

@<TRIPOS>ATOM
      1 C1         1.4883    3.1080    1.5683 C.ar      1 RES1    0.0000
      2 H1         0.8829    2.7963    0.9338 H         1 RES1    0.0000
      3 C2         2.7318    2.5928    1.6020 C.ar      1 RES1    0.0000
      4 H2         2.9807    1.9295    0.9990 H         1 RES1    0.0000
      5 C3         3.6126    3.0471    2.5173 C.ar      1 RES1    0.0000
      6 C4         3.2704    3.9975    3.4148 C.ar      1 RES1    0.0000
      7 H3         3.8872    4.2966    4.0430 H         1 RES1    0.0000
      8 C5         2.0059    4.5126    3.3849 C.ar      1 RES1    0.0000
      9 C6         1.0962    4.0839    2.4500 C.ar      1 RES1    0.0000
     10 C7        -1.1562    4.3426    1.5328 C.2       1 RES1    0.0000
     11 C8        -2.3776    5.1899    1.8405 C.2       1 RES1    0.0000
     12 C9        -4.6236    5.5118    1.3519 C.3       1 RES1    0.0000
     13 H4        -5.3003    5.1587    0.7691 H         1 RES1    0.0000
     14 H5        -4.4998    6.4459    1.1673 H         1 RES1    0.0000
     15 H6        -4.8967    5.3989    2.2658 H         1 RES1    0.0000
     16 N1         4.9624    2.4958    2.5662 N.pl3     1 RES1    0.0000
     17 N2         1.7224    5.5308    4.3694 N.pl3     1 RES1    0.0000
     18 N3        -0.1737    4.6171    2.3981 N.am      1 RES1    0.0000
     19 H7        -0.3572    5.2033    3.0005 H         1 RES1    0.0000
     20 O1         5.2168    1.6374    1.7663 O.2       1 RES1    0.0000
     21 O2         5.7262    2.9324    3.3516 O.2       1 RES1    0.0000
     22 O3         2.6217    5.9019    5.0711 O.2       1 RES1    0.0000
     23 O4         0.6073    5.9995    4.4205 O.2       1 RES1    0.0000
     24 O5        -1.1221    3.5901    0.6258 O.2       1 RES1    0.0000
     25 O6        -3.3775    4.8048    1.1278 O.3       1 RES1    0.0000
     26 O7        -2.3636    6.0520    2.6364 O.2       1 RES1    0.0000
@<TRIPOS>BOND
     1    1    2 1
     2    3    1 ar
     3    4    3 1
     4    5    3 ar
     5    6    5 ar
     6    7    6 1
     7    8    6 ar
     8    9    1 ar
     9   10   11 1
    10   11   25 1
    11   12   13 1
    12   14   12 1
    13   15   12 1
    14   16    5 1
    15   17    8 1
    16   18    9 1
    17   19   18 1
    18   20   16 2
    19   21   16 2
    20   22   17 2
    21   23   17 2
    22   24   10 2
    23   25   12 1
    24   26   11 2
    25    8    9 ar
    26   10   18 1
@<TRIPOS>SUBSTRUCTURE
     1 RES1 1

@<TRIPOS>CRYSIN
  12.8100    4.6450   18.3400  90.0000  99.3300  90.0000  14 1

