# MOL2 file generated by ConQuest
# Please check atom types

@<TRIPOS>MOLECULE
BAZPOI
    24    24     1
SMALL
NO_CHARGES
****
Generated from CSD

@<TRIPOS>ATOM
      1 N1         9.3962    1.5708    0.4061 N.3       1 RES1    0.0000
      2 N2         4.8471    1.2848    3.6070 N.pl3     1 RES1    0.0000
      3 N3         5.0672    3.2392    1.4449 N.pl3     1 RES1    0.0000
      4 H1         5.1662    3.8056    0.8052 H         1 RES1    0.0000
      5 H2         4.3485    3.2457    1.9168 H         1 RES1    0.0000
      6 O1         4.8199    0.3639    4.4439 O.2       1 RES1    0.0000
      7 O2         3.9423    2.1204    3.5448 O.2       1 RES1    0.0000
      8 C1         8.2508    1.4742    1.1268 C.ar      1 RES1    0.0000
      9 C2         7.1982    2.3483    0.9261 C.ar      1 RES1    0.0000
     10 H3         7.2667    2.9710    0.2383 H         1 RES1    0.0000
     11 C3         6.0318    2.3464    1.7043 C.ar      1 RES1    0.0000
     12 C4         5.9376    1.3626    2.7196 C.ar      1 RES1    0.0000
     13 C5         6.9643    0.4295    2.8734 C.ar      1 RES1    0.0000
     14 H4         6.8722   -0.2429    3.5084 H         1 RES1    0.0000
     15 C6         8.0918    0.4745    2.1222 C.ar      1 RES1    0.0000
     16 H5         8.7644   -0.1519    2.2607 H         1 RES1    0.0000
     17 C7         9.5412    2.5602   -0.6420 C.3       1 RES1    0.0000
     18 H6        10.4110    2.4795   -1.0400 H         1 RES1    0.0000
     19 H7         9.4392    3.4380   -0.2688 H         1 RES1    0.0000
     20 H8         8.8681    2.4167   -1.3111 H         1 RES1    0.0000
     21 C8        10.5160    0.6583    0.6268 C.3       1 RES1    0.0000
     22 H9        11.2323    0.8797    0.0270 H         1 RES1    0.0000
     23 H10       10.2298   -0.2438    0.4636 H         1 RES1    0.0000
     24 H11       10.8207    0.7390    1.5329 H         1 RES1    0.0000
@<TRIPOS>BOND
     1    1    8 1
     2    2    6 2
     3    3    4 1
     4    5    3 1
     5    7    2 2
     6    8    9 ar
     7    9   10 1
     8   11    3 1
     9   12    2 1
    10   13   12 ar
    11   14   13 1
    12   15    8 ar
    13   16   15 1
    14   17    1 1
    15   18   17 1
    16   19   17 1
    17   20   17 1
    18   21    1 1
    19   22   21 1
    20   23   21 1
    21   24   21 1
    22    9   11 ar
    23   11   12 ar
    24   13   15 ar
@<TRIPOS>SUBSTRUCTURE
     1 RES1 1

@<TRIPOS>CRYSIN
   8.0480    9.3780   11.7970  90.0000  95.7500  90.0000  14 1

