# MOL2 file generated by ConQuest
# Please check atom types

@<TRIPOS>MOLECULE
BAZQOJ
    68    69     1
SMALL
NO_CHARGES
****
Generated from CSD

@<TRIPOS>ATOM
      1 O1        -1.1321    5.9046    4.1958 O.3       1 RES1    0.0000
      2 O2        -1.6998    3.7723    4.5743 O.2       1 RES1    0.0000
      3 O3        -0.3416    4.2585    1.9600 O.3       1 RES1    0.0000
      4 O4         1.8835    4.0490    2.0384 O.2       1 RES1    0.0000
      5 O5         2.2955    6.2488    6.7919 O.3       1 RES1    0.0000
      6 O6         0.1727    5.5548    6.6541 O.2       1 RES1    0.0000
      7 O7         1.2041    7.8116    4.7202 O.3       1 RES1    0.0000
      8 O8         1.1721    6.8436    2.7082 O.2       1 RES1    0.0000
      9 O9         3.0371   -1.2700    6.3256 O.2       1 RES1    0.0000
     10 O10        1.8178   -0.6869    7.9974 O.2       1 RES1    0.0000
     11 O11        7.9124    5.1368    3.6459 O.2       1 RES1    0.0000
     12 O12        7.7404    3.6418    5.1230 O.2       1 RES1    0.0000
     13 N1         2.2238   -0.5276    6.8535 N.pl3     1 RES1    0.0000
     14 N2         7.2534    4.4558    4.3879 N.pl3     1 RES1    0.0000
     15 C1         0.6277    4.3038    4.1149 C.3       1 RES1    0.0000
     16 C2         1.5801    5.4671    4.6721 C.3       1 RES1    0.0000
     17 C3         0.9850    2.9593    4.7799 C.ar      1 RES1    0.0000
     18 C4         0.4709    2.6451    6.0344 C.ar      1 RES1    0.0000
     19 H1        -0.1466    3.2180    6.4265 H         1 RES1    0.0000
     20 C5         0.8534    1.5096    6.7107 C.ar      1 RES1    0.0000
     21 H2         0.5059    1.3196    7.5521 H         1 RES1    0.0000
     22 C6         1.7617    0.6606    6.1170 C.ar      1 RES1    0.0000
     23 C7         2.2690    0.9061    4.8723 C.ar      1 RES1    0.0000
     24 H3         2.8674    0.3142    4.4775 H         1 RES1    0.0000
     25 C8         1.8737    2.0577    4.2073 C.ar      1 RES1    0.0000
     26 H4         2.2119    2.2301    3.3588 H         1 RES1    0.0000
     27 C9         3.0850    5.1397    4.5153 C.ar      1 RES1    0.0000
     28 C10        3.6979    4.2600    5.4086 C.ar      1 RES1    0.0000
     29 H5         3.1844    3.8420    6.0610 H         1 RES1    0.0000
     30 C11        5.0515    3.9984    5.3456 C.ar      1 RES1    0.0000
     31 H6         5.4517    3.4021    5.9364 H         1 RES1    0.0000
     32 C12        5.7952    4.6458    4.3823 C.ar      1 RES1    0.0000
     33 C13        5.2289    5.4905    3.4680 C.ar      1 RES1    0.0000
     34 H7         5.7494    5.8909    2.8086 H         1 RES1    0.0000
     35 C14        3.8685    5.7404    3.5409 C.ar      1 RES1    0.0000
     36 H8         3.4757    6.3191    2.9290 H         1 RES1    0.0000
     37 C15       -0.8796    4.6107    4.3431 C.2       1 RES1    0.0000
     38 C16       -2.5147    6.3074    4.3585 C.3       1 RES1    0.0000
     39 H9        -2.9133    6.4477    3.4848 H         1 RES1    0.0000
     40 H10       -3.0066    5.5972    4.8009 H         1 RES1    0.0000
     41 C17       -2.6202    7.4838    5.1132 C.3       1 RES1    0.0000
     42 H11       -3.5445    7.7352    5.1874 H         1 RES1    0.0000
     43 H12       -2.1325    8.1882    4.6777 H         1 RES1    0.0000
     44 H13       -2.2567    7.3377    5.9896 H         1 RES1    0.0000
     45 C18        0.8222    4.2044    2.5832 C.2       1 RES1    0.0000
     46 C19       -0.3149    4.3535    0.4998 C.3       1 RES1    0.0000
     47 H14        0.6039    4.3462    0.1862 H         1 RES1    0.0000
     48 H15       -0.7745    3.5921    0.1120 H         1 RES1    0.0000
     49 C20       -0.9642    5.5825    0.0854 C.3       1 RES1    0.0000
     50 H16       -0.9470    5.6483   -0.8723 H         1 RES1    0.0000
     51 H17       -0.5017    6.3337    0.4662 H         1 RES1    0.0000
     52 H18       -1.8754    5.5811    0.3906 H         1 RES1    0.0000
     53 C21        1.2442    5.7418    6.1520 C.2       1 RES1    0.0000
     54 C22        2.1131    6.6201    8.1822 C.3       1 RES1    0.0000
     55 H19        1.1918    6.8847    8.3278 H         1 RES1    0.0000
     56 H20        2.6813    7.3771    8.3922 H         1 RES1    0.0000
     57 C23        2.4495    5.4876    9.0684 C.3       1 RES1    0.0000
     58 H21        2.3263    5.7506    9.9841 H         1 RES1    0.0000
     59 H22        3.3652    5.2333    8.9298 H         1 RES1    0.0000
     60 H23        1.8766    4.7437    8.8696 H         1 RES1    0.0000
     61 C24        1.2762    6.7765    3.8909 C.2       1 RES1    0.0000
     62 C25        0.9221    9.1118    4.1079 C.3       1 RES1    0.0000
     63 H24        0.0645    9.0928    3.6529 H         1 RES1    0.0000
     64 H25        1.6104    9.3383    3.4624 H         1 RES1    0.0000
     65 C26        0.8983   10.1114    5.2196 C.3       1 RES1    0.0000
     66 H26        0.7277   10.9853    4.8611 H         1 RES1    0.0000
     67 H27        1.7474   10.1100    5.6690 H         1 RES1    0.0000
     68 H28        0.2065    9.8805    5.8440 H         1 RES1    0.0000
@<TRIPOS>BOND
     1    1   37 1
     2    2   37 2
     3    3   45 1
     4    4   45 2
     5    5   53 1
     6    6   53 2
     7    7   61 1
     8    8   61 2
     9    9   13 2
    10   10   13 2
    11   11   14 2
    12   12   14 2
    13   13   22 1
    14   14   32 1
    15   15   16 1
    16   16   27 1
    17   17   15 1
    18   18   17 ar
    19   19   18 1
    20   20   18 ar
    21   21   20 1
    22   22   20 ar
    23   23   22 ar
    24   24   23 1
    25   25   17 ar
    26   26   25 1
    27   27   28 ar
    28   28   29 1
    29   30   28 ar
    30   31   30 1
    31   32   30 ar
    32   33   32 ar
    33   34   33 1
    34   35   27 ar
    35   36   35 1
    36   37   15 1
    37   38    1 1
    38   39   38 1
    39   40   38 1
    40   41   38 1
    41   42   41 1
    42   43   41 1
    43   44   41 1
    44   45   15 1
    45   46    3 1
    46   47   46 1
    47   48   46 1
    48   49   46 1
    49   50   49 1
    50   51   49 1
    51   52   49 1
    52   53   16 1
    53   54    5 1
    54   55   54 1
    55   56   54 1
    56   57   54 1
    57   58   57 1
    58   59   57 1
    59   60   57 1
    60   61   16 1
    61   62    7 1
    62   63   62 1
    63   64   62 1
    64   65   62 1
    65   66   65 1
    66   67   65 1
    67   68   65 1
    68   23   25 ar
    69   33   35 ar
@<TRIPOS>SUBSTRUCTURE
     1 RES1 1

@<TRIPOS>CRYSIN
  13.5610   14.6140   15.1480  90.0000 112.4400  90.0000  14 1

