# MOL2 file generated by ConQuest
# Please check atom types

@<TRIPOS>MOLECULE
BCONBZ10
    39    41     1
SMALL
NO_CHARGES
****
Generated from CSD

@<TRIPOS>ATOM
      1 C1         2.7602   -0.7243    2.3593 C.3       1 RES1    0.0000
      2 C2        -0.3048    0.1732    4.2841 C.ar      1 RES1    0.0000
      3 C3        -1.1545   -0.3803    5.2264 C.ar      1 RES1    0.0000
      4 C4        -2.3268    0.2611    5.5345 C.ar      1 RES1    0.0000
      5 C5        -2.6879    1.4541    4.9611 C.ar      1 RES1    0.0000
      6 C6        -1.8046    1.9939    4.0467 C.ar      1 RES1    0.0000
      7 C7        -0.6223    1.3770    3.7006 C.ar      1 RES1    0.0000
      8 C8         2.3744   -1.9851    1.6672 C.3       1 RES1    0.0000
      9 C9         1.4892   -1.5991    0.4825 C.3       1 RES1    0.0000
     10 C10        2.0465   -0.4908   -0.4218 C.3       1 RES1    0.0000
     11 C11        2.4995    0.7669    0.3259 C.3       1 RES1    0.0000
     12 C12        3.4100    0.2950    1.4196 C.3       1 RES1    0.0000
     13 C13        4.0489    0.9778    2.6422 C.3       1 RES1    0.0000
     14 C14        3.8896   -0.3766    3.3722 C.3       1 RES1    0.0000
     15 C15        0.9258   -0.6056    3.9002 C.2       1 RES1    0.0000
     16 H1         1.9472   -2.6209    2.2861 H         1 RES1    0.0000
     17 H2         3.2070   -2.3409    1.3742 H         1 RES1    0.0000
     18 H3         0.5854   -1.3224    0.7528 H         1 RES1    0.0000
     19 H4         1.2354   -2.3642   -0.1111 H         1 RES1    0.0000
     20 H5         1.3413   -0.2743   -1.1266 H         1 RES1    0.0000
     21 H6         2.7672   -0.8755   -0.9169 H         1 RES1    0.0000
     22 H7         1.7545    1.2759    0.6947 H         1 RES1    0.0000
     23 H8         3.0225    1.4184   -0.2577 H         1 RES1    0.0000
     24 H9         4.1330   -0.2611    0.9649 H         1 RES1    0.0000
     25 H10        3.4365    1.7014    3.0641 H         1 RES1    0.0000
     26 H11        4.9909    1.3851    2.5993 H         1 RES1    0.0000
     27 H12        4.6243   -0.9552    3.2409 H         1 RES1    0.0000
     28 H13        3.7129   -0.4261    4.3523 H         1 RES1    0.0000
     29 H14       -1.0189   -1.2508    5.5749 H         1 RES1    0.0000
     30 H15       -3.3931    1.9004    5.2642 H         1 RES1    0.0000
     31 H16       -0.0060    1.7755    3.1121 H         1 RES1    0.0000
     32 N1        -3.2441   -0.3791    6.5146 N.pl3     1 RES1    0.0000
     33 N2        -2.1484    3.2660    3.3899 N.pl3     1 RES1    0.0000
     34 O1         1.5349   -0.0533    2.8645 O.3       1 RES1    0.0000
     35 O2         1.2532   -1.6041    4.4786 O.2       1 RES1    0.0000
     36 O3        -2.8641   -1.4039    7.0426 O.2       1 RES1    0.0000
     37 O4        -4.3156    0.1619    6.7167 O.2       1 RES1    0.0000
     38 O5        -3.1715    3.8114    3.7208 O.2       1 RES1    0.0000
     39 O6        -1.3797    3.7279    2.5690 O.2       1 RES1    0.0000
@<TRIPOS>BOND
     1    1    8 1
     2    2    3 ar
     3    3    4 ar
     4    4    5 ar
     5    5    6 ar
     6    6    7 ar
     7    7    2 ar
     8    8    9 1
     9    9   10 1
    10   10   11 1
    11   11   12 1
    12   12    1 1
    13   13   12 1
    14   14    1 1
    15   15    2 1
    16   16    8 1
    17   17    8 1
    18   18    9 1
    19   19    9 1
    20   20   10 1
    21   21   10 1
    22   22   11 1
    23   23   11 1
    24   24   12 1
    25   25   13 1
    26   26   13 1
    27   27   14 1
    28   28   14 1
    29   29    3 1
    30   30    5 1
    31   31    7 1
    32   32    4 1
    33   33    6 1
    34   34    1 1
    35   35   15 2
    36   36   32 2
    37   37   32 2
    38   38   33 2
    39   39   33 2
    40   13   14 1
    41   15   34 1
@<TRIPOS>SUBSTRUCTURE
     1 RES1 1

@<TRIPOS>CRYSIN
   9.6060    6.2760   25.2760  90.0000  92.0200  90.0000  14 1

