# MOL2 file generated by ConQuest
# Please check atom types

@<TRIPOS>MOLECULE
BEBBIT
    42    42     1
SMALL
NO_CHARGES
****
Generated from CSD

@<TRIPOS>ATOM
      1 C1         3.1684    5.0019    2.3205 C.2       1 RES1    0.0000
      2 O1         2.5847    5.0234    1.1218 O.3       1 RES1    0.0000
      3 C2         3.9239    3.9433    2.7496 C.2       1 RES1    0.0000
      4 C3         4.6345    3.9750    4.0674 C.2       1 RES1    0.0000
      5 O2         4.0467    4.3114    5.0827 O.2       1 RES1    0.0000
      6 C4         6.1254    3.6525    4.1011 C.3       1 RES1    0.0000
      7 C5         6.9067    4.5858    5.0458 C.3       1 RES1    0.0000
      8 C6         6.7699    6.0794    4.7232 C.3       1 RES1    0.0000
      9 C7         7.1978    6.4664    3.3157 C.3       1 RES1    0.0000
     10 C8         6.9288    7.9335    2.9752 C.3       1 RES1    0.0000
     11 C9         5.4484    8.3065    2.9773 C.3       1 RES1    0.0000
     12 C10        4.6139    7.6944    1.8492 C.3       1 RES1    0.0000
     13 N1         4.6849    8.5949    0.6262 N.pl3     1 RES1    0.0000
     14 O3         4.4827    9.7926    0.7791 O.2       1 RES1    0.0000
     15 O4         4.8820    8.0701   -0.4597 O.2       1 RES1    0.0000
     16 C11        3.1320    7.5224    2.2003 C.3       1 RES1    0.0000
     17 C12        2.9181    6.2792    3.0701 C.3       1 RES1    0.0000
     18 C13        4.0548    2.7861    1.8597 C.2       1 RES1    0.0000
     19 O5         3.5692    2.7204    0.7327 O.2       1 RES1    0.0000
     20 O6         4.7168    1.7592    2.4069 O.3       1 RES1    0.0000
     21 C14        4.8722    0.5969    1.5435 C.3       1 RES1    0.0000
     22 H1         2.7332    4.2001    0.7812 H         1 RES1    0.0000
     23 H2         6.5009    3.7220    3.1776 H         1 RES1    0.0000
     24 H3         6.2162    2.7735    4.3805 H         1 RES1    0.0000
     25 H4         7.8756    4.3291    5.0215 H         1 RES1    0.0000
     26 H5         6.6000    4.4227    5.9756 H         1 RES1    0.0000
     27 H6         7.3430    6.5967    5.3852 H         1 RES1    0.0000
     28 H7         5.8205    6.3614    4.8634 H         1 RES1    0.0000
     29 H8         6.7273    5.9175    2.6684 H         1 RES1    0.0000
     30 H9         8.1468    6.2704    3.2113 H         1 RES1    0.0000
     31 H10        7.3341    8.1447    2.0674 H         1 RES1    0.0000
     32 H11        7.4073    8.4798    3.6457 H         1 RES1    0.0000
     33 H12        4.9935    8.0422    3.8534 H         1 RES1    0.0000
     34 H13        5.3258    9.2842    2.9119 H         1 RES1    0.0000
     35 H14        4.9829    6.8332    1.5519 H         1 RES1    0.0000
     36 H15        2.8277    8.3078    2.6905 H         1 RES1    0.0000
     37 H16        2.6081    7.4415    1.3779 H         1 RES1    0.0000
     38 H17        3.4750    6.3096    3.8681 H         1 RES1    0.0000
     39 H18        2.0053    6.2590    3.3726 H         1 RES1    0.0000
     40 H19        3.9771    0.3377    1.1629 H         1 RES1    0.0000
     41 H20        5.2627   -0.0999    2.1339 H         1 RES1    0.0000
     42 H21        5.4718    0.8296    0.8582 H         1 RES1    0.0000
@<TRIPOS>BOND
     1    1    2 1
     2    2   22 1
     3    3    1 2
     4    4    3 1
     5    5    4 2
     6    6    4 1
     7    7    6 1
     8    8    7 1
     9    9    8 1
    10   10    9 1
    11   11   10 1
    12   12   11 1
    13   13   12 1
    14   14   13 2
    15   15   13 2
    16   16   12 1
    17   17    1 1
    18   18    3 1
    19   19   18 2
    20   20   18 1
    21   21   20 1
    22   23    6 1
    23   24    6 1
    24   25    7 1
    25   26    7 1
    26   27    8 1
    27   28    8 1
    28   29    9 1
    29   30    9 1
    30   31   10 1
    31   32   10 1
    32   33   11 1
    33   34   11 1
    34   35   12 1
    35   36   16 1
    36   37   16 1
    37   38   17 1
    38   39   17 1
    39   40   21 1
    40   41   21 1
    41   42   21 1
    42   16   17 1
@<TRIPOS>SUBSTRUCTURE
     1 RES1 1

@<TRIPOS>CRYSIN
  10.9840   12.6470   11.3950  90.0000 112.3000  90.0000  14 2

