# MOL2 file generated by ConQuest
# Please check atom types

@<TRIPOS>MOLECULE
BECJIC
    20    21     1
SMALL
NO_CHARGES
****
Generated from CSD

@<TRIPOS>ATOM
      1 O1         3.6123    3.7583    3.1072 O.2       1 RES1    0.0000
      2 O2         3.0029    3.1431    1.1251 O.2       1 RES1    0.0000
      3 N1         3.6787    3.0105    2.1370 N.pl3     1 RES1    0.0000
      4 C1         4.6467    1.8860    2.1942 C.3       1 RES1    0.0000
      5 C2         4.1647    0.6117    1.5399 C.3       1 RES1    0.0000
      6 C3         5.2012    1.4388    0.8637 C.3       1 RES1    0.0000
      7 H1         4.4314   -0.2329    1.9541 H         1 RES1    0.0000
      8 H2         3.2824    0.6435    1.2017 H         1 RES1    0.0000
      9 H3         6.1245    1.1461    0.8872 H         1 RES1    0.0000
     10 H4         4.9257    2.0900    0.1011 H         1 RES1    0.0000
     11 C1B        5.4671    1.8860    3.4211 C.3       1 RES1    0.0000
     12 N1B        6.4351    3.0105    3.4783 N.pl3     1 RES1    0.0000
     13 C2B        5.9491    0.6117    4.0753 C.3       1 RES1    0.0000
     14 C3B        4.9125    1.4388    4.7515 C.3       1 RES1    0.0000
     15 O1B        6.5015    3.7583    2.5081 O.2       1 RES1    0.0000
     16 O2B        7.1108    3.1431    4.4902 O.2       1 RES1    0.0000
     17 H1B        5.6823   -0.2329    3.6612 H         1 RES1    0.0000
     18 H2B        6.8313    0.6435    4.4136 H         1 RES1    0.0000
     19 H3B        3.9892    1.1461    4.7281 H         1 RES1    0.0000
     20 H4B        5.1881    2.0900    5.5142 H         1 RES1    0.0000
@<TRIPOS>BOND
     1    1    3 2
     2    2    3 2
     3    3    4 1
     4    4    5 1
     5    5    6 1
     6    6    4 1
     7    7    5 1
     8    8    5 1
     9    9    6 1
    10   10    6 1
    11   11    4 1
    12   12   11 1
    13   13   11 1
    14   14   11 1
    15   15   12 2
    16   16   12 2
    17   17   13 1
    18   18   13 1
    19   19   14 1
    20   20   14 1
    21   13   14 1
@<TRIPOS>SUBSTRUCTURE
     1 RES1 1

@<TRIPOS>CRYSIN
  10.8550    6.1290   11.3280  90.0000  97.5200  90.0000  15 1

