# MOL2 file generated by ConQuest
# Please check atom types

@<TRIPOS>MOLECULE
BECJOI
    14    15     1
SMALL
NO_CHARGES
****
Generated from CSD

@<TRIPOS>ATOM
      1 C1         4.3678    1.8657    2.2201 C.2       1 RES1    0.0000
      2 C2         3.9487    0.5932    1.5121 C.3       1 RES1    0.0000
      3 C3         5.0247    1.4178    0.9207 C.3       1 RES1    0.0000
      4 H1         4.1506   -0.2165    1.9559 H         1 RES1    0.0000
      5 H2         3.1169    0.6557    1.0866 H         1 RES1    0.0000
      6 H3         5.9518    1.1692    1.0180 H         1 RES1    0.0000
      7 H4         4.7714    1.9610    0.0915 H         1 RES1    0.0000
      8 C1B        5.0971    1.8657    3.4988 C.2       1 RES1    0.0000
      9 C2B        5.5162    0.5932    4.2069 C.3       1 RES1    0.0000
     10 C3B        4.4403    1.4178    4.7982 C.3       1 RES1    0.0000
     11 H1B        5.3143   -0.2165    3.7631 H         1 RES1    0.0000
     12 H2B        6.3481    0.6557    4.6323 H         1 RES1    0.0000
     13 H3B        3.5132    1.1692    4.7010 H         1 RES1    0.0000
     14 H4B        4.6935    1.9610    5.6274 H         1 RES1    0.0000
@<TRIPOS>BOND
     1    1    2 1
     2    2    3 1
     3    3    1 1
     4    4    2 1
     5    5    2 1
     6    6    3 1
     7    7    3 1
     8    8    1 1
     9    9    8 1
    10   10    8 1
    11   11    9 1
    12   12    9 1
    13   13   10 1
    14   14   10 1
    15    9   10 1
@<TRIPOS>SUBSTRUCTURE
     1 RES1 1

@<TRIPOS>CRYSIN
  10.3820    6.1860   11.5840  90.0000  99.1100  90.0000  15 1

