# MOL2 file generated by ConQuest
# Please check atom types

@<TRIPOS>MOLECULE
BEDWOX01
    22    23     1
SMALL
NO_CHARGES
****
Generated from CSD

@<TRIPOS>ATOM
      1 N1         4.5812    2.4579    1.9179 N.am      1 RES1    0.0000
      2 N2         4.5812   -3.1570    1.9179 N.pl3     1 RES1    0.0000
      3 C1         4.5812    1.0348    1.9179 C.ar      1 RES1    0.0000
      4 C2         4.5812   -1.6945    1.9179 C.ar      1 RES1    0.0000
      5 C3         3.8445    0.3487    0.9687 C.ar      1 RES1    0.0000
      6 H1         3.3500    0.8172    0.3360 H         1 RES1    0.0000
      7 O1         4.2691   -3.7378    0.8894 O.2       1 RES1    0.0000
      8 C4         3.8445   -1.0301    0.9619 C.ar      1 RES1    0.0000
      9 H2         3.3570   -1.5018    0.3253 H         1 RES1    0.0000
     10 O2         2.3325    2.8658    1.5517 O.2       1 RES1    0.0000
     11 C5         3.4460    3.2663    1.7380 C.2       1 RES1    0.0000
     12 C6         3.9352    4.6676    1.8258 C.2       1 RES1    0.0000
     13 H3         3.4033    5.4272    1.7591 H         1 RES1    0.0000
     14 O1F        4.8933   -3.7378    2.9463 O.2       1 RES1    0.0000
     15 C4F        5.3179   -1.0301    2.8739 C.ar      1 RES1    0.0000
     16 C3F        5.3179    0.3487    2.8671 C.ar      1 RES1    0.0000
     17 H1F        5.8124    0.8172    3.4998 H         1 RES1    0.0000
     18 H2F        5.8054   -1.5018    3.5105 H         1 RES1    0.0000
     19 C6F        5.2271    4.6676    2.0100 C.2       1 RES1    0.0000
     20 C5F        5.7163    3.2663    2.0978 C.2       1 RES1    0.0000
     21 O2F        6.8299    2.8658    2.2841 O.2       1 RES1    0.0000
     22 H3F        5.7590    5.4272    2.0767 H         1 RES1    0.0000
@<TRIPOS>BOND
     1    1    3 1
     2    2    4 1
     3    3    5 ar
     4    4    8 ar
     5    5    6 1
     6    7    2 2
     7    8    5 ar
     8    9    8 1
     9   10   11 2
    10   11    1 1
    11   12   11 1
    12   13   12 1
    13   14    2 2
    14   15    4 ar
    15   16    3 ar
    16   17   16 1
    17   18   15 1
    18   19   12 2
    19   20    1 1
    20   21   20 2
    21   22   19 1
    22   15   16 ar
    23   19   20 1
@<TRIPOS>SUBSTRUCTURE
     1 RES1 1

@<TRIPOS>CRYSIN
  10.5350   11.6240    8.1480  90.0000 109.6900  90.0000  15 1

