# MOL2 file generated by ConQuest
# Please check atom types

@<TRIPOS>MOLECULE
BEDWOX
    22    23     1
SMALL
NO_CHARGES
****
Generated from CSD

@<TRIPOS>ATOM
      1 O1         1.0016    2.0724   -0.8880 O.2       1 RES1    0.0000
      2 O2         2.9348    8.6789   -1.5490 O.2       1 RES1    0.0000
      3 N1         0.6857    2.6582   -1.9171 N.pl3     1 RES1    0.0000
      4 N2         0.6857    8.2717   -1.9171 N.am      1 RES1    0.0000
      5 C1         0.6857    4.1174   -1.9171 C.ar      1 RES1    0.0000
      6 C2         1.4222    4.7839   -0.9650 C.ar      1 RES1    0.0000
      7 H1         1.9127    4.3123   -0.3305 H         1 RES1    0.0000
      8 C3         1.4208    6.1601   -0.9679 C.ar      1 RES1    0.0000
      9 H2         1.9132    6.6272   -0.3320 H         1 RES1    0.0000
     10 C4         0.6857    6.8503   -1.9171 C.ar      1 RES1    0.0000
     11 C5         1.8206    9.0813   -1.7411 C.2       1 RES1    0.0000
     12 C6         1.3314   10.4780   -1.8274 C.2       1 RES1    0.0000
     13 H3         1.8637   11.2383   -1.7638 H         1 RES1    0.0000
     14 O1B        0.3699    2.0724   -2.9462 O.2       1 RES1    0.0000
     15 C6B        0.0401   10.4780   -2.0068 C.2       1 RES1    0.0000
     16 C5B       -0.4491    9.0813   -2.0931 C.2       1 RES1    0.0000
     17 O2B       -1.5633    8.6789   -2.2853 O.2       1 RES1    0.0000
     18 H3B       -0.4922   11.2383   -2.0705 H         1 RES1    0.0000
     19 C3B       -0.0493    6.1601   -2.8663 C.ar      1 RES1    0.0000
     20 C2B       -0.0507    4.7839   -2.8692 C.ar      1 RES1    0.0000
     21 H1B       -0.5412    4.3123   -3.5037 H         1 RES1    0.0000
     22 H2B       -0.5417    6.6272   -3.5022 H         1 RES1    0.0000
@<TRIPOS>BOND
     1    1    3 2
     2    2   11 2
     3    3    5 1
     4    4   10 1
     5    5    6 ar
     6    6    7 1
     7    8    6 ar
     8    9    8 1
     9   10    8 ar
    10   11    4 1
    11   12   11 1
    12   13   12 1
    13   14    3 2
    14   15   12 2
    15   16    4 1
    16   17   16 2
    17   18   15 1
    18   19   10 ar
    19   20    5 ar
    20   21   20 1
    21   22   19 1
    22   15   16 1
    23   19   20 ar
@<TRIPOS>SUBSTRUCTURE
     1 RES1 1

@<TRIPOS>CRYSIN
  10.5370   11.6266    8.1443  90.0000 109.6820  90.0000  15 1

