# MOL2 file generated by ConQuest
# Please check atom types

@<TRIPOS>MOLECULE
BEFXAM
    24    25     1
SMALL
USER_CHARGES
****
Generated from CSD

@<TRIPOS>ATOM
      1 O1         3.4739    6.0950    2.5345 O.3       1 RES1    0.0000
      2 O2         4.0599    8.0689    1.5682 O.2       1 RES1   -1.0000
      3 O3        -1.3333    1.3958   -0.7147 O.3       1 RES1    0.0000
      4 O4         1.6780    7.5671   -3.3904 O.2       1 RES1    0.0000
      5 O5         2.1155    9.7194   -2.8840 O.3       1 RES1    0.0000
      6 N1         2.1037    5.3181    1.1233 N.pl3     1 RES1    1.0000
      7 N2         2.6749    5.0150    2.2600 N.2       1 RES1    0.0000
      8 N3         2.5186   10.3154    0.2209 N.1       1 RES1    0.0000
      9 C1         3.3677    7.0730    1.5422 C.2       1 RES1    0.0000
     10 C2         2.4292    6.5534    0.6106 C.2       1 RES1    0.0000
     11 C3         1.1973    4.3248    0.5908 C.ar      1 RES1    0.0000
     12 C4        -0.0017    4.6992    0.0742 C.ar      1 RES1    0.0000
     13 C5        -0.8725    3.7517   -0.3944 C.ar      1 RES1    0.0000
     14 C6        -0.5427    2.4044   -0.3108 C.ar      1 RES1    0.0000
     15 C7         0.6743    2.0478    0.2264 C.ar      1 RES1    0.0000
     16 C8         1.5603    2.9825    0.6729 C.ar      1 RES1    0.0000
     17 C9        -2.6044    1.7014   -1.2937 C.3       1 RES1    0.0000
     18 C10       -3.1907    0.4024   -1.7638 C.3       1 RES1    0.0000
     19 C11        2.0946    6.9660   -0.6752 C.2       1 RES1    0.0000
     20 C12        2.1848    8.2192   -1.1659 C.2       1 RES1    0.0000
     21 C13        2.3517    9.3984   -0.3897 C.1       1 RES1    0.0000
     22 C14        1.9345    8.4000   -2.5803 C.2       1 RES1    0.0000
     23 C15        1.9492   10.0530   -4.3315 C.3       1 RES1    0.0000
     24 C16        1.8655   11.5201   -4.3938 C.3       1 RES1    0.0000
@<TRIPOS>BOND
     1    1    7 1
     2    2    9 1
     3    3   14 1
     4    4   22 2
     5    5   22 1
     6    6    7 2
     7    8   21 3
     8    9    1 1
     9   10    6 1
    10   11    6 1
    11   12   11 ar
    12   13   12 ar
    13   14   13 ar
    14   15   14 ar
    15   16   11 ar
    16   17    3 1
    17   18   17 1
    18   19   10 1
    19   20   19 2
    20   21   20 1
    21   22   20 1
    22   23    5 1
    23   24   23 1
    24    9   10 2
    25   15   16 ar
@<TRIPOS>SUBSTRUCTURE
     1 RES1 1

@<TRIPOS>CRYSIN
  16.5370   25.4700    7.9200  90.0000  95.1200  90.0000  15 1

