# MOL2 file generated by ConQuest
# Please check atom types

@<TRIPOS>MOLECULE
BEGDUN
    43    45     1
SMALL
USER_CHARGES
****
Generated from CSD

@<TRIPOS>ATOM
      1 O1         2.9038   12.9926    2.7027 O.2       1 RES1    0.0000
      2 O2         5.4493    9.8804    4.9883 O.2       1 RES1   -1.0000
      3 N1         3.7309   12.4541    3.5098 N.3       1 RES1    0.0000
      4 N2         4.9328   10.9833    4.5890 N.pl3     1 RES1    1.0000
      5 C1         1.5297    6.7936    0.8648 C.ar      1 RES1    0.0000
      6 H1         0.6965    6.9028    0.4657 H         1 RES1    0.0000
      7 C2         2.1191    5.5657    0.8253 C.ar      1 RES1    0.0000
      8 C3         3.4092    5.4276    1.3922 C.ar      1 RES1    0.0000
      9 H2         3.8375    4.6030    1.3487 H         1 RES1    0.0000
     10 C4         4.0396    6.4705    1.9990 C.ar      1 RES1    0.0000
     11 H3         4.8832    6.3446    2.3700 H         1 RES1    0.0000
     12 C5         4.0188    8.8261    2.7481 C.ar      1 RES1    0.0000
     13 H4         4.8587    8.7113    3.1308 H         1 RES1    0.0000
     14 C6         3.3927   10.0529    2.8603 C.ar      1 RES1    0.0000
     15 C7         2.1221   10.2077    2.2508 C.ar      1 RES1    0.0000
     16 H5         1.6847   11.0267    2.3054 H         1 RES1    0.0000
     17 C8         1.5297    9.1770    1.5857 C.ar      1 RES1    0.0000
     18 H6         0.7027    9.3108    1.1827 H         1 RES1    0.0000
     19 C9         2.1423    7.9157    1.4946 C.ar      1 RES1    0.0000
     20 C10        3.4245    7.7430    2.0714 C.ar      1 RES1    0.0000
     21 C11        1.4421    4.3724    0.2165 C.3       1 RES1    0.0000
     22 H7         0.5826    4.6298   -0.1222 H         1 RES1    0.0000
     23 H8         1.3312    3.6915    0.8853 H         1 RES1    0.0000
     24 H9         1.9806    4.0303   -0.5003 H         1 RES1    0.0000
     25 C12        4.0059   11.1292    3.6228 C.2       1 RES1    0.0000
     26 C13        4.6657   13.3009    4.3379 C.3       1 RES1    0.0000
     27 C14        5.2226   12.2513    5.3278 C.3       1 RES1    0.0000
     28 C15        5.7029   13.8592    3.3811 C.3       1 RES1    0.0000
     29 H10        5.2894   14.5021    2.7988 H         1 RES1    0.0000
     30 H11        6.0729   13.1449    2.8564 H         1 RES1    0.0000
     31 H12        6.4031   14.2859    3.8823 H         1 RES1    0.0000
     32 C16        3.8858   14.4486    4.9574 C.3       1 RES1    0.0000
     33 H13        3.5838   15.0403    4.2650 H         1 RES1    0.0000
     34 H14        4.4531   14.9289    5.5653 H         1 RES1    0.0000
     35 H15        3.1287   14.0998    5.4339 H         1 RES1    0.0000
     36 C17        6.7143   12.3449    5.5930 C.3       1 RES1    0.0000
     37 H16        6.9728   11.6607    6.2131 H         1 RES1    0.0000
     38 H17        6.9202   13.2073    5.9641 H         1 RES1    0.0000
     39 H18        7.1940   12.2279    4.7699 H         1 RES1    0.0000
     40 C18        4.4537   12.1755    6.6383 C.3       1 RES1    0.0000
     41 H19        4.8501   11.5092    7.2045 H         1 RES1    0.0000
     42 H20        3.5397   11.9426    6.4598 H         1 RES1    0.0000
     43 H21        4.4856   13.0290    7.0777 H         1 RES1    0.0000
@<TRIPOS>BOND
     1    1    3 1
     2    2    4 1
     3    3   25 1
     4    4   25 2
     5    5    6 1
     6    7    5 ar
     7    8    7 ar
     8    9    8 1
     9   10    8 ar
    10   11   10 1
    11   12   13 1
    12   14   12 ar
    13   15   14 ar
    14   16   15 1
    15   17   15 ar
    16   18   17 1
    17   19    5 ar
    18   20   10 ar
    19   21    7 1
    20   22   21 1
    21   23   21 1
    22   24   21 1
    23   25   14 1
    24   26    3 1
    25   27    4 1
    26   28   26 1
    27   29   28 1
    28   30   28 1
    29   31   28 1
    30   32   26 1
    31   33   32 1
    32   34   32 1
    33   35   32 1
    34   36   27 1
    35   37   36 1
    36   38   36 1
    37   39   36 1
    38   40   27 1
    39   41   40 1
    40   42   40 1
    41   43   40 1
    42   12   20 ar
    43   17   19 ar
    44   19   20 ar
    45   26   27 1
@<TRIPOS>SUBSTRUCTURE
     1 RES1 1

@<TRIPOS>CRYSIN
   6.1262   11.1426   23.0543  90.0000  90.0000  90.0000  19 1

