# MOL2 file generated by ConQuest
# Please check atom types

@<TRIPOS>MOLECULE
BEGLAA01
    33    36     1
SMALL
NO_CHARGES
****
Generated from CSD

@<TRIPOS>ATOM
      1 N1         0.0407    6.9230    4.0322 N.ar      1 RES1    0.0000
      2 C1        -0.7939    7.8083    3.6231 C.ar      1 RES1    0.0000
      3 C2        -1.3621    7.8304    2.3213 C.ar      1 RES1    0.0000
      4 H1        -1.9592    8.5074    2.0997 H         1 RES1    0.0000
      5 N2        -1.0708    6.9348    1.4382 N.ar      1 RES1    0.0000
      6 C3        -0.1875    5.9623    1.8238 C.ar      1 RES1    0.0000
      7 C4         0.1718    4.9543    0.9098 C.ar      1 RES1    0.0000
      8 H2        -0.1909    4.9543    0.0533 H         1 RES1    0.0000
      9 C5         1.0418    3.9862    1.2709 C.ar      1 RES1    0.0000
     10 H3         1.2701    3.3196    0.6637 H         1 RES1    0.0000
     11 C6         1.5993    3.9788    2.5461 C.ar      1 RES1    0.0000
     12 H4         2.1990    3.3078    2.7815 H         1 RES1    0.0000
     13 C7         1.2763    4.9454    3.4537 C.ar      1 RES1    0.0000
     14 H5         1.6590    4.9350    4.3006 H         1 RES1    0.0000
     15 C8         0.3680    5.9490    3.1064 C.ar      1 RES1    0.0000
     16 O1        -1.2195    8.8414    4.4242 O.3       1 RES1    0.0000
     17 N3        -1.9140   10.8382    5.8730 N.pl3     1 RES1    0.0000
     18 H6        -2.1970   10.7850    5.0623 H         1 RES1    0.0000
     19 C9        -1.1071    9.8671    6.3482 C.2       1 RES1    0.0000
     20 C10       -0.6327   10.0445    7.7171 C.2       1 RES1    0.0000
     21 H7        -0.0650    9.3942    8.0644 H         1 RES1    0.0000
     22 N4        -0.9430   11.0318    8.4788 N.2       1 RES1    0.0000
     23 C11       -1.8125   12.0043    7.9653 C.ar      1 RES1    0.0000
     24 C12       -2.1924   13.0788    8.7760 C.ar      1 RES1    0.0000
     25 H8        -1.8663   13.1409    9.6442 H         1 RES1    0.0000
     26 C13       -3.0371   14.0321    8.2998 C.ar      1 RES1    0.0000
     27 H9        -3.3021   14.7342    8.8484 H         1 RES1    0.0000
     28 C14       -3.5045   13.9568    6.9927 C.ar      1 RES1    0.0000
     29 H10       -4.0737   14.6189    6.6699 H         1 RES1    0.0000
     30 C15       -3.1378   12.9207    6.1756 C.ar      1 RES1    0.0000
     31 H11       -3.4481   12.8882    5.2999 H         1 RES1    0.0000
     32 C16       -2.3034   11.9201    6.6539 C.ar      1 RES1    0.0000
     33 N5        -0.6634    8.8000    5.7282 N.2       1 RES1    0.0000
@<TRIPOS>BOND
     1    1    2 ar
     2    2    3 ar
     3    3    4 1
     4    5    3 ar
     5    6    5 ar
     6    7    6 ar
     7    8    7 1
     8    9    7 ar
     9   10    9 1
    10   11    9 ar
    11   12   11 1
    12   13   11 ar
    13   14   13 1
    14   15    1 ar
    15   16    2 1
    16   17   18 1
    17   19   17 1
    18   20   19 1
    19   21   20 1
    20   22   20 2
    21   23   22 1
    22   24   23 ar
    23   25   24 1
    24   26   24 ar
    25   27   26 1
    26   28   26 ar
    27   29   28 1
    28   30   28 ar
    29   31   30 1
    30   32   17 1
    31   33   16 1
    32    6   15 ar
    33   13   15 ar
    34   19   33 2
    35   23   32 ar
    36   30   32 ar
@<TRIPOS>SUBSTRUCTURE
     1 RES1 1

@<TRIPOS>CRYSIN
   8.6650   14.7800   11.3920  90.0000 110.7500  90.0000 231 1

