# MOL2 file generated by ConQuest
# Please check atom types

@<TRIPOS>MOLECULE
BEGQAH
    65    68     1
SMALL
NO_CHARGES
****
Generated from CSD

@<TRIPOS>ATOM
      1 O1         4.6334   10.3133   11.5335 O.3       1 RES1    0.0000
      2 O2         6.1218    8.8625   12.4201 O.2       1 RES1    0.0000
      3 O3        -0.6883   10.5069    8.5170 O.3       1 RES1    0.0000
      4 O4         3.2791    4.2162   11.0553 O.2       1 RES1    0.0000
      5 O5         4.7871    5.3954   12.1039 O.2       1 RES1    0.0000
      6 N1         6.1073    7.4050   10.1082 N.3       1 RES1    0.0000
      7 N2         4.0485    5.1732   11.1600 N.pl3     1 RES1    0.0000
      8 C1         5.0604    8.3807   10.3329 C.3       1 RES1    0.0000
      9 C2         3.7223    7.5656   10.5455 C.3       1 RES1    0.0000
     10 C3         4.0647    6.1543   10.0070 C.3       1 RES1    0.0000
     11 C4         5.5036    6.2676    9.4039 C.3       1 RES1    0.0000
     12 C5         5.3669    9.2111   11.5592 C.2       1 RES1    0.0000
     13 C6         4.5318   11.1922   12.7309 C.3       1 RES1    0.0000
     14 C7         5.8767   11.8335   12.9800 C.3       1 RES1    0.0000
     15 C8         4.0544   10.4024   13.9004 C.3       1 RES1    0.0000
     16 C9         3.5370   12.2075   12.2860 C.3       1 RES1    0.0000
     17 C10        2.5071    8.2432    9.9556 C.ar      1 RES1    0.0000
     18 C11        1.5319    8.7888   10.7881 C.ar      1 RES1    0.0000
     19 C12        0.4808    9.5147   10.2832 C.ar      1 RES1    0.0000
     20 C13        0.3809    9.7303    8.9265 C.ar      1 RES1    0.0000
     21 C14        1.3005    9.1792    8.0775 C.ar      1 RES1    0.0000
     22 C15        2.3620    8.4357    8.5925 C.ar      1 RES1    0.0000
     23 C16       -0.6473   11.0305    7.1944 C.3       1 RES1    0.0000
     24 C17        6.4053    5.0379    9.5226 C.ar      1 RES1    0.0000
     25 C18        5.9126    3.7487    9.3395 C.ar      1 RES1    0.0000
     26 C19        6.7238    2.6476    9.4434 C.ar      1 RES1    0.0000
     27 C20        8.0568    2.7961    9.7360 C.ar      1 RES1    0.0000
     28 C21        8.5760    4.0677    9.8788 C.ar      1 RES1    0.0000
     29 C22        7.7682    5.1820    9.7690 C.ar      1 RES1    0.0000
     30 C23        5.3806    6.6075    7.9020 C.ar      1 RES1    0.0000
     31 C24        4.6078    5.8100    7.0581 C.ar      1 RES1    0.0000
     32 C25        4.5779    6.0344    5.6941 C.ar      1 RES1    0.0000
     33 C26        5.2892    7.0640    5.1483 C.ar      1 RES1    0.0000
     34 C27        6.0467    7.8692    5.9730 C.ar      1 RES1    0.0000
     35 C28        6.1030    7.6404    7.3432 C.ar      1 RES1    0.0000
     36 H1         6.4719    7.1245   10.9620 H         1 RES1    0.0000
     37 H2         4.9596    8.9439    9.5367 H         1 RES1    0.0000
     38 H3         3.5831    7.4809   11.5111 H         1 RES1    0.0000
     39 H4         3.4072    5.8859    9.3311 H         1 RES1    0.0000
     40 H5         6.0415   11.8764   13.9236 H         1 RES1    0.0000
     41 H6         6.5428   11.2802   12.5632 H         1 RES1    0.0000
     42 H7         5.9169   12.7168   12.6065 H         1 RES1    0.0000
     43 H8         4.7956    9.9536   14.3131 H         1 RES1    0.0000
     44 H9         3.6113   10.9524   14.5511 H         1 RES1    0.0000
     45 H10        3.4371    9.7512   13.5585 H         1 RES1    0.0000
     46 H11        3.6471   13.0346   12.7606 H         1 RES1    0.0000
     47 H12        2.6711   11.8401   12.4793 H         1 RES1    0.0000
     48 H13        3.6121   12.3659   11.3434 H         1 RES1    0.0000
     49 H14        1.5892    8.6601   11.7085 H         1 RES1    0.0000
     50 H15       -0.1785    9.8678   10.8349 H         1 RES1    0.0000
     51 H16        1.2365    9.3222    7.1620 H         1 RES1    0.0000
     52 H17        2.9922    8.0474    8.0302 H         1 RES1    0.0000
     53 H18        0.1426   11.5651    7.0781 H         1 RES1    0.0000
     54 H19       -1.4243   11.5662    7.0159 H         1 RES1    0.0000
     55 H20       -0.6242   10.2891    6.5859 H         1 RES1    0.0000
     56 H21        5.0117    3.6563    9.1283 H         1 RES1    0.0000
     57 H22        6.3524    1.8040    9.3230 H         1 RES1    0.0000
     58 H23        8.5862    2.0360    9.8234 H         1 RES1    0.0000
     59 H24        9.4811    4.1568   10.0695 H         1 RES1    0.0000
     60 H25        8.1430    6.0289    9.8477 H         1 RES1    0.0000
     61 H26        4.1176    5.1050    7.4135 H         1 RES1    0.0000
     62 H27        4.0715    5.4834    5.1416 H         1 RES1    0.0000
     63 H28        5.2516    7.2334    4.2355 H         1 RES1    0.0000
     64 H29        6.5248    8.5787    5.6095 H         1 RES1    0.0000
     65 H30        6.6410    8.1596    7.8949 H         1 RES1    0.0000
@<TRIPOS>BOND
     1    1   12 1
     2    2   12 2
     3    3   20 1
     4    4    7 2
     5    5    7 2
     6    6    8 1
     7    7   10 1
     8    8    9 1
     9    9   10 1
    10   10   11 1
    11   11    6 1
    12   12    8 1
    13   13    1 1
    14   14   13 1
    15   15   13 1
    16   16   13 1
    17   17    9 1
    18   18   17 ar
    19   19   18 ar
    20   20   19 ar
    21   21   20 ar
    22   22   17 ar
    23   23    3 1
    24   24   11 1
    25   25   24 ar
    26   26   25 ar
    27   27   26 ar
    28   28   27 ar
    29   29   24 ar
    30   30   11 1
    31   31   30 ar
    32   32   31 ar
    33   33   32 ar
    34   34   33 ar
    35   35   30 ar
    36   36    6 1
    37   37    8 1
    38   38    9 1
    39   39   10 1
    40   40   14 1
    41   41   14 1
    42   42   14 1
    43   43   15 1
    44   44   15 1
    45   45   15 1
    46   46   16 1
    47   47   16 1
    48   48   16 1
    49   49   18 1
    50   50   19 1
    51   51   21 1
    52   52   22 1
    53   53   23 1
    54   54   23 1
    55   55   23 1
    56   56   25 1
    57   57   26 1
    58   58   27 1
    59   59   28 1
    60   60   29 1
    61   61   31 1
    62   62   32 1
    63   63   33 1
    64   64   34 1
    65   65   35 1
    66   21   22 ar
    67   28   29 ar
    68   34   35 ar
@<TRIPOS>SUBSTRUCTURE
     1 RES1 1

@<TRIPOS>CRYSIN
   8.5393   10.9997   27.0467  90.0000  90.0000  90.0000  19 1

