# MOL2 file generated by ConQuest
# Please check atom types

@<TRIPOS>MOLECULE
BEGWIT
    55    58     1
SMALL
NO_CHARGES
****
Generated from CSD

@<TRIPOS>ATOM
      1 N1         3.0016    6.8966    4.5767 N.2       1 RES1    0.0000
      2 N2         3.8957    6.6437    3.6964 N.2       1 RES1    0.0000
      3 N3         5.7221    6.3274    1.5865 N.pl3     1 RES1    0.0000
      4 N4         1.2058    5.8366    1.6035 N.2       1 RES1    0.0000
      5 N5         1.2635    7.0926    1.3401 N.2       1 RES1    0.0000
      6 N6         1.2994    9.7493    0.2464 N.pl3     1 RES1    0.0000
      7 N7         2.7286    5.8758    5.3710 N.3       1 RES1    0.0000
      8 N8         1.1982    3.6450    4.1700 N.3       1 RES1    0.0000
      9 N9         0.3610    5.3485    5.8160 N.3       1 RES1    0.0000
     10 N10        0.6003    5.5459    2.7333 N.3       1 RES1    0.0000
     11 O1         4.9870    5.3674    1.4633 O.2       1 RES1    0.0000
     12 O2         6.9510    6.2868    1.4845 O.2       1 RES1    0.0000
     13 O3         1.7520   10.8701    0.0669 O.2       1 RES1    0.0000
     14 O4         0.2842    9.5384    0.8782 O.2       1 RES1    0.0000
     15 C1         3.3159    4.5508    5.1894 C.3       1 RES1    0.0000
     16 H1         3.2552    4.0601    6.0358 H         1 RES1    0.0000
     17 H2         4.2658    4.6536    4.9728 H         1 RES1    0.0000
     18 C2         2.6520    3.7383    4.1042 C.3       1 RES1    0.0000
     19 H3         2.8966    4.1263    3.2377 H         1 RES1    0.0000
     20 H4         3.0196    2.8297    4.1329 H         1 RES1    0.0000
     21 C3         0.4724    4.1074    3.0306 C.3       1 RES1    0.0000
     22 H5        -0.4771    3.9032    3.1644 H         1 RES1    0.0000
     23 H6         0.7735    3.6017    2.2470 H         1 RES1    0.0000
     24 C4         0.0366    6.5964    3.5807 C.3       1 RES1    0.0000
     25 H7        -0.6815    7.0493    3.0912 H         1 RES1    0.0000
     26 H8         0.7331    7.2602    3.7697 H         1 RES1    0.0000
     27 C5        -0.5215    6.0705    4.9059 C.3       1 RES1    0.0000
     28 H9        -0.8854    6.8371    5.3955 H         1 RES1    0.0000
     29 H10       -1.2738    5.4810    4.6946 H         1 RES1    0.0000
     30 C6         1.5645    6.0056    6.2598 C.3       1 RES1    0.0000
     31 H11        1.8070    5.6460    7.1391 H         1 RES1    0.0000
     32 H12        1.3718    6.9587    6.3756 H         1 RES1    0.0000
     33 C7         0.5440    3.9424    5.4411 C.3       1 RES1    0.0000
     34 H13        1.0621    3.5098    6.1515 H         1 RES1    0.0000
     35 H14       -0.3393    3.5193    5.4294 H         1 RES1    0.0000
     36 C8         4.1948    7.7929    2.9043 C.ar      1 RES1    0.0000
     37 C9         5.1289    7.6415    1.9061 C.ar      1 RES1    0.0000
     38 C10        5.5855    8.7204    1.1479 C.ar      1 RES1    0.0000
     39 H15        6.2330    8.5947    0.4778 H         1 RES1    0.0000
     40 C11        5.0698    9.9791    1.4006 C.ar      1 RES1    0.0000
     41 H16        5.3734   10.7241    0.9153 H         1 RES1    0.0000
     42 C12        4.1003   10.1238    2.3754 C.ar      1 RES1    0.0000
     43 H17        3.7364   10.9755    2.5379 H         1 RES1    0.0000
     44 C13        3.6605    9.0611    3.1081 C.ar      1 RES1    0.0000
     45 H18        2.9900    9.1855    3.7559 H         1 RES1    0.0000
     46 C14        1.9611    7.3427    0.1359 C.ar      1 RES1    0.0000
     47 C15        2.0172    8.6352   -0.3791 C.ar      1 RES1    0.0000
     48 C16        2.7250    8.9556   -1.5217 C.ar      1 RES1    0.0000
     49 H19        2.7566    9.8439   -1.8264 H         1 RES1    0.0000
     50 C17        3.3880    7.9565   -2.2109 C.ar      1 RES1    0.0000
     51 H20        3.8704    8.1566   -2.9924 H         1 RES1    0.0000
     52 C18        3.3318    6.6681   -1.7383 C.ar      1 RES1    0.0000
     53 H21        3.7642    5.9826   -2.2151 H         1 RES1    0.0000
     54 C19        2.6560    6.3598   -0.5809 C.ar      1 RES1    0.0000
     55 H22        2.6601    5.4742   -0.2665 H         1 RES1    0.0000
@<TRIPOS>BOND
     1    1    2 2
     2    2   36 1
     3    3   11 2
     4    4    5 2
     5    5   46 1
     6    6   13 2
     7    7    1 1
     8    8   18 1
     9    9   27 1
    10   10    4 1
    11   12    3 2
    12   14    6 2
    13   15    7 1
    14   16   15 1
    15   17   15 1
    16   18   15 1
    17   19   18 1
    18   20   18 1
    19   21    8 1
    20   22   21 1
    21   23   21 1
    22   24   10 1
    23   25   24 1
    24   26   24 1
    25   27   24 1
    26   28   27 1
    27   29   27 1
    28   30    7 1
    29   31   30 1
    30   32   30 1
    31   33    8 1
    32   34   33 1
    33   35   33 1
    34   36   37 ar
    35   37    3 1
    36   38   37 ar
    37   39   38 1
    38   40   38 ar
    39   41   40 1
    40   42   40 ar
    41   43   42 1
    42   44   36 ar
    43   45   44 1
    44   46   47 ar
    45   47    6 1
    46   48   47 ar
    47   49   48 1
    48   50   48 ar
    49   51   50 1
    50   52   50 ar
    51   53   52 1
    52   54   46 ar
    53   55   54 1
    54    9   30 1
    55    9   33 1
    56   10   21 1
    57   42   44 ar
    58   52   54 ar
@<TRIPOS>SUBSTRUCTURE
     1 RES1 1

@<TRIPOS>CRYSIN
  14.2371   13.5200   11.5805  90.0000 113.5140  90.0000  14 1

