# MOL2 file generated by ConQuest
# Please check atom types

@<TRIPOS>MOLECULE
BEHFEC
    40    40     1
SMALL
NO_CHARGES
****
Generated from CSD

@<TRIPOS>ATOM
      1 O1         1.3380    6.2517   10.2323 O.2       1 RES1    0.0000
      2 O2        -1.2127    4.2291   12.0696 O.2       1 RES1    0.0000
      3 O3         5.4371    6.6847    9.8324 O.3       1 RES1    0.0000
      4 O4         0.3915    5.3155   13.0165 O.2       1 RES1    0.0000
      5 N1        -0.0272    4.4312   12.2871 N.pl3     1 RES1    0.0000
      6 N2         3.2704    6.1950   11.4181 N.am      1 RES1    0.0000
      7 C1         2.1878    5.6422   10.8787 C.2       1 RES1    0.0000
      8 C2         0.7619    2.1729   11.6954 C.ar      1 RES1    0.0000
      9 C3         3.6919    7.5850   11.2131 C.3       1 RES1    0.0000
     10 H1         3.2105    7.9360   10.4107 H         1 RES1    0.0000
     11 C4         0.9546    3.5487   11.6444 C.ar      1 RES1    0.0000
     12 C5         1.7567    1.3890   11.1136 C.ar      1 RES1    0.0000
     13 H2         1.6655    0.4436   11.1239 H         1 RES1    0.0000
     14 C6         3.0341    3.3229   10.4982 C.ar      1 RES1    0.0000
     15 H3         3.8070    3.7007   10.0945 H         1 RES1    0.0000
     16 C7         2.0713    4.1502   11.0599 C.ar      1 RES1    0.0000
     17 C8         2.8680    1.9478   10.5240 C.ar      1 RES1    0.0000
     18 H4         3.5264    1.3859   10.1321 H         1 RES1    0.0000
     19 C9         3.3140    8.4765   12.4217 C.3       1 RES1    0.0000
     20 C10        5.1865    7.5805   10.9000 C.3       1 RES1    0.0000
     21 H5         5.4800    8.4919   10.6497 H         1 RES1    0.0000
     22 H6         5.6965    7.3003   11.6998 H         1 RES1    0.0000
     23 C11        3.9888    9.8509   12.2779 C.3       1 RES1    0.0000
     24 H7         3.8553   10.1867   11.3667 H         1 RES1    0.0000
     25 H8         4.9489    9.7633   12.4563 H         1 RES1    0.0000
     26 H9         3.5932   10.4776   12.9192 H         1 RES1    0.0000
     27 C12        1.7935    8.6795   12.4313 C.3       1 RES1    0.0000
     28 H10        1.3482    7.8113   12.5222 H         1 RES1    0.0000
     29 H11        1.5150    9.1029   11.5925 H         1 RES1    0.0000
     30 H12        1.5457    9.2545   13.1846 H         1 RES1    0.0000
     31 C13        3.7416    7.8416   13.7478 C.3       1 RES1    0.0000
     32 H13        4.7099    7.6866   13.7379 H         1 RES1    0.0000
     33 H14        3.2759    6.9881   13.8658 H         1 RES1    0.0000
     34 H15        3.5142    8.4436   14.4869 H         1 RES1    0.0000
     35 C14       -0.4167    1.5033   12.3477 C.3       1 RES1    0.0000
     36 H16       -1.2032    1.5915   11.7694 H         1 RES1    0.0000
     37 H17       -0.5965    1.9284   13.2128 H         1 RES1    0.0000
     38 H18       -0.2172    0.5537   12.4864 H         1 RES1    0.0000
     39 H19        3.8608    5.6493   11.7769 H         1 RES1    0.0000
     40 H20        6.2371    6.5253    9.8649 H         1 RES1    0.0000
@<TRIPOS>BOND
     1    1    7 2
     2    2    5 2
     3    3   20 1
     4    4    5 2
     5    5   11 1
     6    6    7 1
     7    7   16 1
     8    8   11 ar
     9    9    6 1
    10   10    9 1
    11   11   16 ar
    12   12    8 ar
    13   13   12 1
    14   14   15 1
    15   16   14 ar
    16   17   12 ar
    17   18   17 1
    18   19    9 1
    19   20    9 1
    20   21   20 1
    21   22   20 1
    22   23   19 1
    23   24   23 1
    24   25   23 1
    25   26   23 1
    26   27   19 1
    27   28   27 1
    28   29   27 1
    29   30   27 1
    30   31   19 1
    31   32   31 1
    32   33   31 1
    33   34   31 1
    34   35    8 1
    35   36   35 1
    36   37   35 1
    37   38   35 1
    38   39    6 1
    39   40    3 1
    40   14   17 ar
@<TRIPOS>SUBSTRUCTURE
     1 RES1 1

@<TRIPOS>CRYSIN
   6.8091   11.2312   18.8190  90.0000  90.0000  90.0000  19 1

