# MOL2 file generated by ConQuest
# Please check atom types

@<TRIPOS>MOLECULE
BEHNUY
    48    50     1
SMALL
NO_CHARGES
****
Generated from CSD

@<TRIPOS>ATOM
      1 C1         2.2415   10.3218   -1.3805 C.ar      1 RES1    0.0000
      2 N1         3.5529   11.6492   -5.1369 N.pl3     1 RES1    0.0000
      3 O1         3.9466   10.8092   -5.9372 O.2       1 RES1    0.0000
      4 N2         1.7313    9.8511   -0.1378 N.am      1 RES1    0.0000
      5 C2         2.8825    9.4336   -2.2366 C.ar      1 RES1    0.0000
      6 H1         2.9918    8.5447   -1.9565 H         1 RES1    0.0000
      7 O2         3.5164   12.8510   -5.3711 O.2       1 RES1    0.0000
      8 O3         0.1778    9.2806    1.3434 O.3       1 RES1    0.0000
      9 C3         3.3171    9.8643   -3.4740 C.ar      1 RES1    0.0000
     10 H2         3.7995    9.2480   -4.0795 H         1 RES1    0.0000
     11 O4        -0.5080   10.2626   -0.5569 O.2       1 RES1    0.0000
     12 C4         3.1093   11.1865   -3.8146 C.ar      1 RES1    0.0000
     13 O5         0.1194   11.8237    4.7862 O.3       1 RES1    0.0000
     14 C5         2.5045   12.0905   -2.9699 C.ar      1 RES1    0.0000
     15 H3         2.3834   12.9722   -3.2372 H         1 RES1    0.0000
     16 C6         2.0660   11.6501   -1.7300 C.ar      1 RES1    0.0000
     17 H4         1.6195   12.2569   -1.1102 H         1 RES1    0.0000
     18 C7         2.4781    9.2708    0.9034 C.2       1 RES1    0.0000
     19 C8         1.4565    8.9847    1.9758 C.3       1 RES1    0.0000
     20 H5         1.4672    8.0615    2.1737 H         1 RES1    0.0000
     21 C9         0.3761    9.8527    0.1407 C.2       1 RES1    0.0000
     22 C10        3.7835    9.0690    0.9436 C.2       1 RES1    0.0000
     23 H6         4.1414    8.6289    1.8043 H         1 RES1    0.0000
     24 H7         4.3849    9.3478    0.1948 H         1 RES1    0.0000
     25 C11        0.5770    9.4843    4.2934 C.3       1 RES1    0.0000
     26 H8         0.7883    8.5700    4.6944 H         1 RES1    0.0000
     27 H9        -0.3056    9.4127    3.8785 H         1 RES1    0.0000
     28 C12        0.5281   10.5624    5.3674 C.3       1 RES1    0.0000
     29 H10        1.4321   10.6954    5.7113 H         1 RES1    0.0000
     30 C13        0.7622   12.1402    3.6250 C.2       1 RES1    0.0000
     31 H11        0.5974   13.0888    3.3894 H         1 RES1    0.0000
     32 C14        1.4906   11.3096    2.8936 C.2       1 RES1    0.0000
     33 H12        1.8964   11.6150    2.0986 H         1 RES1    0.0000
     34 C15        1.6155    9.8504    3.2272 C.3       1 RES1    0.0000
     35 H13        2.5315    9.6832    3.5680 H         1 RES1    0.0000
     36 C16       -0.4502   10.2591    6.4872 C.3       1 RES1    0.0000
     37 H14       -0.1016    9.4788    6.9676 H         1 RES1    0.0000
     38 H15       -1.3132   10.0065    6.0482 H         1 RES1    0.0000
     39 C17       -0.6590   11.4111    7.4746 C.3       1 RES1    0.0000
     40 H16       -0.9216   12.1944    6.9534 H         1 RES1    0.0000
     41 C18       -1.7999   11.0936    8.4307 C.3       1 RES1    0.0000
     42 H17       -1.9219   11.8782    9.0763 H         1 RES1    0.0000
     43 H18       -1.5925   10.2770    8.9058 H         1 RES1    0.0000
     44 H19       -2.6067   10.9574    7.9560 H         1 RES1    0.0000
     45 C19        0.6088   11.7539    8.2424 C.3       1 RES1    0.0000
     46 H20        1.3530   11.9480    7.6739 H         1 RES1    0.0000
     47 H21        0.4536   12.5334    8.8165 H         1 RES1    0.0000
     48 H22        0.9145   10.9478    8.8267 H         1 RES1    0.0000
@<TRIPOS>BOND
     1    1    4 1
     2    2    3 2
     3    4   18 1
     4    5    1 ar
     5    6    5 1
     6    7    2 2
     7    8   19 1
     8    9    5 ar
     9   10    9 1
    10   11   21 2
    11   12    2 1
    12   13   28 1
    13   14   12 ar
    14   15   14 1
    15   16    1 ar
    16   17   16 1
    17   18   19 1
    18   19   20 1
    19   21    4 1
    20   22   18 2
    21   23   22 1
    22   24   22 1
    23   25   26 1
    24   27   25 1
    25   28   25 1
    26   29   28 1
    27   30   13 1
    28   31   30 1
    29   32   30 2
    30   33   32 1
    31   34   19 1
    32   35   34 1
    33   36   28 1
    34   37   36 1
    35   38   36 1
    36   39   36 1
    37   40   39 1
    38   41   39 1
    39   42   41 1
    40   43   41 1
    41   44   41 1
    42   45   39 1
    43   46   45 1
    44   47   45 1
    45   48   45 1
    46    8   21 1
    47    9   12 ar
    48   14   16 ar
    49   25   34 1
    50   32   34 1
@<TRIPOS>SUBSTRUCTURE
     1 RES1 1

@<TRIPOS>CRYSIN
   7.4362   12.0213   20.2975  90.0000  90.7250  90.0000  14 1

