# MOL2 file generated by ConQuest
# Please check atom types

@<TRIPOS>MOLECULE
BEHNEI
    55    57     1
SMALL
NO_CHARGES
****
Generated from CSD

@<TRIPOS>ATOM
      1 O1        -4.0171    2.1910    3.4499 O.3       1 RES1    0.0000
      2 O2        -0.1651    4.6162    3.8153 O.3       1 RES1    0.0000
      3 O3        -0.8287    5.8061    2.0020 O.2       1 RES1    0.0000
      4 O4         2.1872    5.1714   -4.2161 O.2       1 RES1    0.0000
      5 O5         3.7974    3.8562   -3.6404 O.2       1 RES1    0.0000
      6 N1         0.8882    4.2753    1.9051 N.am      1 RES1    0.0000
      7 N2         2.7875    4.5012   -3.3789 N.pl3     1 RES1    0.0000
      8 C1        -4.9597    1.1061    3.3270 C.3       1 RES1    0.0000
      9 C2        -4.8072    0.5462    1.9257 C.3       1 RES1    0.0000
     10 C3        -5.3094   -0.8679    1.6856 C.3       1 RES1    0.0000
     11 C4        -6.8061   -1.0942    1.7609 C.3       1 RES1    0.0000
     12 C5        -7.4967   -0.8321    3.0966 C.3       1 RES1    0.0000
     13 C6        -6.8115   -1.3959    4.3485 C.3       1 RES1    0.0000
     14 C7        -5.9806   -0.3814    5.1707 C.3       1 RES1    0.0000
     15 C8        -4.7179    0.1747    4.5241 C.3       1 RES1    0.0000
     16 C9        -3.8848    1.0374    5.4981 C.3       1 RES1    0.0000
     17 C10       -3.8365    2.4302    4.8665 C.3       1 RES1    0.0000
     18 C11       -2.5283    3.1682    5.0534 C.3       1 RES1    0.0000
     19 C12       -2.5245    4.5690    4.4546 C.3       1 RES1    0.0000
     20 C13       -1.1953    5.2741    4.6012 C.3       1 RES1    0.0000
     21 C14       -0.1102    4.9818    2.5130 C.2       1 RES1    0.0000
     22 C15        1.3162    4.3871    0.5776 C.ar      1 RES1    0.0000
     23 C16        0.5650    5.0108   -0.4253 C.ar      1 RES1    0.0000
     24 C17        1.0551    5.0499   -1.7222 C.ar      1 RES1    0.0000
     25 C18        2.2776    4.4752   -2.0062 C.ar      1 RES1    0.0000
     26 C19        3.0429    3.8675   -1.0209 C.ar      1 RES1    0.0000
     27 C20        2.5586    3.8270    0.2650 C.ar      1 RES1    0.0000
     28 H1         1.2633    3.7143    2.3797 H         1 RES1    0.0000
     29 H2        -5.9385    1.5498    3.4443 H         1 RES1    0.0000
     30 H3        -5.2324    1.1687    1.2888 H         1 RES1    0.0000
     31 H4        -3.7825    0.5841    1.7284 H         1 RES1    0.0000
     32 H5        -4.9865   -1.0952    0.7891 H         1 RES1    0.0000
     33 H6        -4.8549   -1.5167    2.3672 H         1 RES1    0.0000
     34 H7        -6.9156   -2.0944    1.5405 H         1 RES1    0.0000
     35 H8        -7.2657   -0.5068    1.0646 H         1 RES1    0.0000
     36 H9        -8.4052   -1.2598    3.0310 H         1 RES1    0.0000
     37 H10       -7.5979    0.2087    3.2038 H         1 RES1    0.0000
     38 H11       -6.2183   -2.1470    4.0217 H         1 RES1    0.0000
     39 H12       -7.5268   -1.6881    4.9849 H         1 RES1    0.0000
     40 H13       -5.6938   -0.8431    6.0382 H         1 RES1    0.0000
     41 H14       -6.5747    0.4038    5.4232 H         1 RES1    0.0000
     42 H15       -4.1487   -0.6343    4.1883 H         1 RES1    0.0000
     43 H16       -4.3124    1.0887    6.3501 H         1 RES1    0.0000
     44 H17       -2.9204    0.7018    5.5610 H         1 RES1    0.0000
     45 H18       -4.6331    2.9766    5.2166 H         1 RES1    0.0000
     46 H19       -2.3522    3.2334    6.0307 H         1 RES1    0.0000
     47 H20       -1.8042    2.6200    4.6580 H         1 RES1    0.0000
     48 H21       -2.7219    4.5097    3.5094 H         1 RES1    0.0000
     49 H22       -3.2049    5.1048    4.9034 H         1 RES1    0.0000
     50 H23       -0.8407    5.2029    5.5347 H         1 RES1    0.0000
     51 H24       -1.2523    6.2258    4.3298 H         1 RES1    0.0000
     52 H25       -0.2331    5.3446   -0.2417 H         1 RES1    0.0000
     53 H26        0.5498    5.4598   -2.4085 H         1 RES1    0.0000
     54 H27        3.8314    3.5648   -1.2462 H         1 RES1    0.0000
     55 H28        3.0617    3.4233    0.9569 H         1 RES1    0.0000
@<TRIPOS>BOND
     1    1    8 1
     2    2   20 1
     3    3   21 2
     4    4    7 2
     5    5    7 2
     6    6   21 1
     7    7   25 1
     8    8    9 1
     9    9   10 1
    10   10   11 1
    11   11   12 1
    12   12   13 1
    13   13   14 1
    14   14   15 1
    15   15    8 1
    16   16   15 1
    17   17    1 1
    18   18   17 1
    19   19   18 1
    20   20   19 1
    21   21    2 1
    22   22    6 1
    23   23   22 ar
    24   24   23 ar
    25   25   24 ar
    26   26   25 ar
    27   27   22 ar
    28   28    6 1
    29   29    8 1
    30   30    9 1
    31   31    9 1
    32   32   10 1
    33   33   10 1
    34   34   11 1
    35   35   11 1
    36   36   12 1
    37   37   12 1
    38   38   13 1
    39   39   13 1
    40   40   14 1
    41   41   14 1
    42   42   15 1
    43   43   16 1
    44   44   16 1
    45   45   17 1
    46   46   18 1
    47   47   18 1
    48   48   19 1
    49   49   19 1
    50   50   20 1
    51   51   20 1
    52   52   23 1
    53   53   24 1
    54   54   26 1
    55   55   27 1
    56   16   17 1
    57   26   27 ar
@<TRIPOS>SUBSTRUCTURE
     1 RES1 1

@<TRIPOS>CRYSIN
   6.1314   12.8797   13.1406  98.3240 103.4480 101.1760   2 1

