# MOL2 file generated by ConQuest
# Please check atom types

@<TRIPOS>MOLECULE
BEJCAW
    38    40     1
SMALL
USER_CHARGES
****
Generated from CSD

@<TRIPOS>ATOM
      1 O1        10.9767    2.1249   10.9133 O.2       1 RES1   -1.0000
      2 N1        10.1656    1.2256   10.5372 N.pl3     1 RES1    1.0000
      3 C1         7.1672   -0.3023   10.8099 C.2       1 RES1    0.0000
      4 C2         9.4622    0.3371   12.7872 C.ar      1 RES1    0.0000
      5 C3         6.3177    0.7519   11.4938 C.ar      1 RES1    0.0000
      6 C4         6.7941    1.9706   11.9432 C.ar      1 RES1    0.0000
      7 C5         9.4229    0.4003   11.3338 C.2       1 RES1    0.0000
      8 C6         8.4976   -0.4996   10.6921 C.2       1 RES1    0.0000
      9 C7        10.1365    1.1933    9.1048 C.2       1 RES1    0.0000
     10 C8         5.9078    2.9192   12.5487 C.ar      1 RES1    0.0000
     11 C9         4.0518    1.4817   12.2702 C.ar      1 RES1    0.0000
     12 C10        8.9888   -0.8221   13.4606 C.ar      1 RES1    0.0000
     13 C11        9.1456   -1.6727    9.9067 C.3       1 RES1    0.0000
     14 C12        9.9218    1.3906   13.5314 C.ar      1 RES1    0.0000
     15 C13        8.9725   -0.9309   14.8396 C.ar      1 RES1    0.0000
     16 C14        9.8863    1.2616   14.9116 C.ar      1 RES1    0.0000
     17 C15       10.3279    0.0708    8.4251 C.2       1 RES1    0.0000
     18 C16       10.4784   -1.2439    9.0889 C.3       1 RES1    0.0000
     19 C17        4.9249    0.5363   11.6597 C.ar      1 RES1    0.0000
     20 C18        4.5289    2.6700   12.7183 C.ar      1 RES1    0.0000
     21 C19        9.4094    0.1208   15.5654 C.ar      1 RES1    0.0000
     22 H1         7.6971    2.1748   11.8520 H         1 RES1    0.0000
     23 H2         6.2543    3.7305   12.8416 H         1 RES1    0.0000
     24 H3         3.1486    1.2825   12.3625 H         1 RES1    0.0000
     25 H4         8.6779   -1.5361   12.9532 H         1 RES1    0.0000
     26 H5        10.2451    2.1628   13.1275 H         1 RES1    0.0000
     27 H6         8.6686   -1.7056   15.2551 H         1 RES1    0.0000
     28 H7        10.1947    1.9699   15.4293 H         1 RES1    0.0000
     29 H8         4.5633   -0.2643   11.3538 H         1 RES1    0.0000
     30 H9         3.9705    3.2948   13.1207 H         1 RES1    0.0000
     31 H10        9.3938    0.0873   16.4951 H         1 RES1    0.0000
     32 H11        9.9788    1.9826    8.6382 H         1 RES1    0.0000
     33 H12       10.3692    0.1113    7.4962 H         1 RES1    0.0000
     34 H13        6.6638   -0.9537   10.3778 H         1 RES1    0.0000
     35 H14        8.4956   -2.0294    9.2821 H         1 RES1    0.0000
     36 H15        9.3730   -2.3797   10.5303 H         1 RES1    0.0000
     37 H16       11.2295   -1.2079    9.7013 H         1 RES1    0.0000
     38 H17       10.6724   -1.9187    8.4191 H         1 RES1    0.0000
@<TRIPOS>BOND
     1    1    2 1
     2    2    7 2
     3    3    5 1
     4    4    7 1
     5    5    6 ar
     6    6   10 ar
     7    7    8 1
     8    8    3 2
     9    9    2 1
    10   10   20 ar
    11   11   19 ar
    12   12    4 ar
    13   13    8 1
    14   14    4 ar
    15   15   12 ar
    16   16   14 ar
    17   17    9 2
    18   18   13 1
    19   19    5 ar
    20   20   11 ar
    21   21   15 ar
    22   22    6 1
    23   23   10 1
    24   24   11 1
    25   25   12 1
    26   26   14 1
    27   27   15 1
    28   28   16 1
    29   29   19 1
    30   30   20 1
    31   31   21 1
    32   32    9 1
    33   33   17 1
    34   34    3 1
    35   35   13 1
    36   36   13 1
    37   37   18 1
    38   38   18 1
    39   16   21 ar
    40   17   18 1
@<TRIPOS>SUBSTRUCTURE
     1 RES1 1

@<TRIPOS>CRYSIN
  17.1520    6.3240   16.5520  90.0000 124.6760  90.0000   9 1

