# MOL2 file generated by ConQuest
# Please check atom types

@<TRIPOS>MOLECULE
BEJYOE
    38    41     1
SMALL
NO_CHARGES
****
Generated from CSD

@<TRIPOS>ATOM
      1 O1         2.7124   -1.4600    0.8677 O.3       1 RES1    0.0000
      2 O2         3.7807    0.3706    1.8480 O.3       1 RES1    0.0000
      3 N1         3.3251    1.4138    1.0036 N.2       1 RES1    0.0000
      4 C1         2.8857   -0.7489    2.0622 C.3       1 RES1    0.0000
      5 C2         2.0663    1.6817    1.0154 C.2       1 RES1    0.0000
      6 C3         1.0952    0.9417    1.8324 C.ar      1 RES1    0.0000
      7 C4        -0.2034    1.4022    2.0547 C.ar      1 RES1    0.0000
      8 C5        -1.0726    0.6592    2.8331 C.ar      1 RES1    0.0000
      9 C6        -0.6556   -0.5064    3.4333 C.ar      1 RES1    0.0000
     10 C7         0.6432   -0.9509    3.2539 C.ar      1 RES1    0.0000
     11 C8         1.5136   -0.2393    2.4398 C.ar      1 RES1    0.0000
     12 C9         3.5854   -1.5373    3.1567 C.ar      1 RES1    0.0000
     13 C10        3.7110   -0.9830    4.4267 C.ar      1 RES1    0.0000
     14 C11        4.3275   -1.6929    5.4419 C.ar      1 RES1    0.0000
     15 C12        4.8325   -2.9449    5.1993 C.ar      1 RES1    0.0000
     16 C13        4.7370   -3.4902    3.9426 C.ar      1 RES1    0.0000
     17 C14        4.1123   -2.7887    2.9239 C.ar      1 RES1    0.0000
     18 C15        1.6902    2.8489    0.1786 C.ar      1 RES1    0.0000
     19 C16        2.4415    4.0095    0.2415 C.ar      1 RES1    0.0000
     20 C17        2.1474    5.0797   -0.5772 C.ar      1 RES1    0.0000
     21 C18        1.0893    5.0089   -1.4602 C.ar      1 RES1    0.0000
     22 C19        0.3277    3.8757   -1.5154 C.ar      1 RES1    0.0000
     23 C20        0.6136    2.7927   -0.6968 C.ar      1 RES1    0.0000
     24 H1         3.5125   -1.5135    0.4024 H         1 RES1    0.0000
     25 H2        -0.4834    2.2058    1.6810 H         1 RES1    0.0000
     26 H3        -1.9485    0.9500    2.9515 H         1 RES1    0.0000
     27 H4        -1.2455   -0.9950    3.9587 H         1 RES1    0.0000
     28 H5         0.9325   -1.7260    3.6793 H         1 RES1    0.0000
     29 H6         3.3790   -0.1304    4.5934 H         1 RES1    0.0000
     30 H7         4.3998   -1.3203    6.2916 H         1 RES1    0.0000
     31 H8         5.2394   -3.4247    5.8846 H         1 RES1    0.0000
     32 H9         5.0921   -4.3328    3.7747 H         1 RES1    0.0000
     33 H10        4.0484   -3.1655    2.0765 H         1 RES1    0.0000
     34 H11        3.1505    4.0671    0.8393 H         1 RES1    0.0000
     35 H12        2.6639    5.8527   -0.5335 H         1 RES1    0.0000
     36 H13        0.8954    5.7287   -2.0156 H         1 RES1    0.0000
     37 H14       -0.3888    3.8304   -2.1064 H         1 RES1    0.0000
     38 H15        0.0841    2.0287   -0.7347 H         1 RES1    0.0000
@<TRIPOS>BOND
     1    1    4 1
     2    2    3 1
     3    3    5 2
     4    4    2 1
     5    5    6 1
     6    6    7 ar
     7    7    8 ar
     8    8    9 ar
     9    9   10 ar
    10   10   11 ar
    11   11    4 1
    12   12    4 1
    13   13   12 ar
    14   14   13 ar
    15   15   14 ar
    16   16   15 ar
    17   17   12 ar
    18   18    5 1
    19   19   18 ar
    20   20   19 ar
    21   21   20 ar
    22   22   21 ar
    23   23   18 ar
    24   24    1 1
    25   25    7 1
    26   26    8 1
    27   27    9 1
    28   28   10 1
    29   29   13 1
    30   30   14 1
    31   31   15 1
    32   32   16 1
    33   33   17 1
    34   34   19 1
    35   35   20 1
    36   36   21 1
    37   37   22 1
    38   38   23 1
    39    6   11 ar
    40   16   17 ar
    41   22   23 ar
@<TRIPOS>SUBSTRUCTURE
     1 RES1 1

@<TRIPOS>CRYSIN
   8.1860   16.1010   11.8880  90.0000 104.7200  90.0000 231 1

