# MOL2 file generated by ConQuest
# Please check atom types

@<TRIPOS>MOLECULE
BEKLAE
    24    25     1
SMALL
NO_CHARGES
****
Generated from CSD

@<TRIPOS>ATOM
      1 O1        -1.8181   -0.0472    1.1888 O.3       1 RES1    0.0000
      2 O2         0.1593   -1.0836    1.4699 O.2       1 RES1    0.0000
      3 N1        -0.4633   -0.0577    1.6441 N.pl3     1 RES1    0.0000
      4 N2        -2.3601    1.1855    1.5102 N.2       1 RES1    0.0000
      5 C1        -0.2285    1.1078    2.1813 C.2       1 RES1    0.0000
      6 C2        -1.3953    1.8543    2.0904 C.2       1 RES1    0.0000
      7 C3        -1.6135    3.2403    2.5796 C.3       1 RES1    0.0000
      8 C4        -0.9402    4.3113    1.7427 C.3       1 RES1    0.0000
      9 C5         0.5576    4.3596    1.7579 C.3       1 RES1    0.0000
     10 C6         1.2757    3.2876    0.9328 C.3       1 RES1    0.0000
     11 C7         1.9571    2.2029    1.7170 C.3       1 RES1    0.0000
     12 C8         1.0847    1.4816    2.7261 C.3       1 RES1    0.0000
     13 H1        -2.6009    3.2865    2.6719 H         1 RES1    0.0000
     14 H2        -1.2319    3.2235    3.4978 H         1 RES1    0.0000
     15 H3        -1.2787    5.1870    2.0820 H         1 RES1    0.0000
     16 H4        -1.2760    4.2525    0.8259 H         1 RES1    0.0000
     17 H5         0.7665    5.2185    1.2631 H         1 RES1    0.0000
     18 H6         0.8295    4.2630    2.7136 H         1 RES1    0.0000
     19 H7         2.0093    3.6120    0.3123 H         1 RES1    0.0000
     20 H8         0.6347    2.8455    0.2845 H         1 RES1    0.0000
     21 H9         2.7126    2.5725    2.2555 H         1 RES1    0.0000
     22 H10        2.2465    1.4910    1.1035 H         1 RES1    0.0000
     23 H11        0.8800    1.9845    3.5186 H         1 RES1    0.0000
     24 H12        1.5407    0.7035    3.1369 H         1 RES1    0.0000
@<TRIPOS>BOND
     1    1    3 1
     2    2    3 1
     3    3    5 2
     4    4    1 1
     5    5    6 1
     6    6    4 2
     7    7    6 1
     8    8    7 1
     9    9    8 1
    10   10    9 1
    11   11   10 1
    12   12    5 1
    13   13    7 1
    14   14    7 1
    15   15    8 1
    16   16    8 1
    17   17    9 1
    18   18    9 1
    19   19   10 1
    20   20   10 1
    21   21   11 1
    22   22   11 1
    23   23   12 1
    24   24   12 1
    25   11   12 1
@<TRIPOS>SUBSTRUCTURE
     1 RES1 1

@<TRIPOS>CRYSIN
  11.5000   10.5000    7.0700  90.0000 101.0000  90.0000 231 1

