# MOL2 file generated by ConQuest
# Please check atom types

@<TRIPOS>MOLECULE
BEKMIN
    22    24     1
SMALL
NO_CHARGES
****
Generated from CSD

@<TRIPOS>ATOM
      1 O1         4.3153    3.4271    8.5891 O.2       1 RES1    0.0000
      2 C1         3.5292    2.8748    7.8708 C.2       1 RES1    0.0000
      3 O2         2.9121    1.7045    8.1945 O.3       1 RES1    0.0000
      4 N1         2.0483    1.2880    7.1118 N.2       1 RES1    0.0000
      5 C2         2.1911    2.2105    6.2258 C.2       1 RES1    0.0000
      6 N2         3.0550    3.1988    6.6177 N.am      1 RES1    0.0000
      7 C3         3.3113    4.3668    5.8379 C.ar      1 RES1    0.0000
      8 C4         4.3693    5.2048    6.1235 C.ar      1 RES1    0.0000
      9 C5         4.5524    6.3389    5.3618 C.ar      1 RES1    0.0000
     10 C6         3.6977    6.6227    4.3193 C.ar      1 RES1    0.0000
     11 C7         2.6676    5.7625    4.0237 C.ar      1 RES1    0.0000
     12 C8         2.4375    4.6203    4.7780 C.ar      1 RES1    0.0000
     13 C9         1.2716    3.7030    4.5092 C.3       1 RES1    0.0000
     14 C10        1.5685    2.2556    4.8857 C.3       1 RES1    0.0000
     15 H1         4.9269    4.9931    6.8477 H         1 RES1    0.0000
     16 H2         5.2570    6.9320    5.5771 H         1 RES1    0.0000
     17 H3         3.8267    7.4127    3.8050 H         1 RES1    0.0000
     18 H4         2.0739    5.9355    3.2901 H         1 RES1    0.0000
     19 H5         0.4540    4.0302    5.0422 H         1 RES1    0.0000
     20 H6         1.0247    3.7169    3.5710 H         1 RES1    0.0000
     21 H7         0.7802    1.7065    4.8750 H         1 RES1    0.0000
     22 H8         2.1839    1.8669    4.2397 H         1 RES1    0.0000
@<TRIPOS>BOND
     1    1    2 2
     2    2    3 1
     3    3    4 1
     4    4    5 2
     5    5    6 1
     6    6    2 1
     7    7    6 1
     8    8    7 ar
     9    9    8 ar
    10   10    9 ar
    11   11   10 ar
    12   12    7 ar
    13   13   12 1
    14   14    5 1
    15   15    8 1
    16   16    9 1
    17   17   10 1
    18   18   11 1
    19   19   13 1
    20   20   13 1
    21   21   14 1
    22   22   14 1
    23   11   12 ar
    24   13   14 1
@<TRIPOS>SUBSTRUCTURE
     1 RES1 1

@<TRIPOS>CRYSIN
   8.0080    8.8620    7.8480  92.1100 118.9300  63.5200   2 1

