# MOL2 file generated by ConQuest
# Please check atom types

@<TRIPOS>MOLECULE
BEKVOC01
    27    29     1
SMALL
NO_CHARGES
****
Generated from CSD

@<TRIPOS>ATOM
      1 O1        12.9719   -0.9989    6.1878 O.2       1 RES1    0.0000
      2 O2        14.6070   -0.7649    3.1207 O.3       1 RES1    0.0000
      3 N1        13.6191   -0.4793    4.0879 N.am      1 RES1    0.0000
      4 C1        11.7854    1.0578    4.6730 C.ar      1 RES1    0.0000
      5 C2        12.9046    0.7378    3.8933 C.ar      1 RES1    0.0000
      6 C3        13.3075    1.5873    2.8582 C.ar      1 RES1    0.0000
      7 C4        12.6111    2.7555    2.5797 C.ar      1 RES1    0.0000
      8 C5        11.4936    3.0867    3.3429 C.ar      1 RES1    0.0000
      9 C6        10.5568    4.2119    3.2729 C.ar      1 RES1    0.0000
     10 C7        10.4993    5.2921    2.3916 C.ar      1 RES1    0.0000
     11 C8         9.4617    6.2196    2.5427 C.ar      1 RES1    0.0000
     12 C9         8.5020    6.0550    3.5469 C.ar      1 RES1    0.0000
     13 C10        8.5753    4.9854    4.4304 C.ar      1 RES1    0.0000
     14 C11        9.5993    4.0625    4.2870 C.ar      1 RES1    0.0000
     15 C12        9.8620    2.7753    5.0546 C.3       1 RES1    0.0000
     16 C13       11.1085    2.2391    4.3912 C.ar      1 RES1    0.0000
     17 C14       13.6883   -1.2581    5.2156 C.2       1 RES1    0.0000
     18 C15       14.6604   -2.4137    5.2217 C.3       1 RES1    0.0000
     19 H1        11.4859    0.4449    5.3518 H         1 RES1    0.0000
     20 H2        14.0688    1.4141    2.3100 H         1 RES1    0.0000
     21 H3        12.8911    3.3101    1.8562 H         1 RES1    0.0000
     22 H4        11.1593    5.4468    1.6908 H         1 RES1    0.0000
     23 H5         9.4336    7.0652    1.9532 H         1 RES1    0.0000
     24 H6         7.7239    6.7730    3.6468 H         1 RES1    0.0000
     25 H7         7.8449    4.8353    5.1467 H         1 RES1    0.0000
     26 H8        10.0159    2.9465    6.0423 H         1 RES1    0.0000
     27 H9         9.0870    2.1327    4.9669 H         1 RES1    0.0000
@<TRIPOS>BOND
     1    1   17 2
     2    2    3 1
     3    3    5 1
     4    4    5 ar
     5    5    6 ar
     6    6    7 ar
     7    7    8 ar
     8    8    9 1
     9    9   10 ar
    10   10   11 ar
    11   11   12 ar
    12   12   13 ar
    13   13   14 ar
    14   14    9 ar
    15   15   14 1
    16   16    4 ar
    17   17    3 1
    18   18   17 1
    19   19    4 1
    20   20    6 1
    21   21    7 1
    22   22   10 1
    23   23   11 1
    24   24   12 1
    25   25   13 1
    26   26   15 1
    27   27   15 1
    28    8   16 ar
    29   15   16 1
@<TRIPOS>SUBSTRUCTURE
     1 RES1 1

@<TRIPOS>CRYSIN
  15.9980    6.6110    5.5430  90.0000  95.8100  90.0000   4 1

