# MOL2 file generated by ConQuest
# Please check atom types

@<TRIPOS>MOLECULE
BELBUP01
    14    15     1
SMALL
NO_CHARGES
****
Generated from CSD

@<TRIPOS>ATOM
      1 O1         6.5704    0.5028    7.9819 O.3       1 RES1    0.0000
      2 H1         7.2463    0.0275    8.4757 H         1 RES1    0.0000
      3 N1         5.5683   -0.3939    7.7697 N.pl3     1 RES1    0.0000
      4 N2         5.2388   -0.7453    6.5181 N.2       1 RES1    0.0000
      5 N3         4.1535   -1.4812    6.5596 N.2       1 RES1    0.0000
      6 N4         4.6707   -0.7740   10.0033 N.ar      1 RES1    0.0000
      7 C1         4.6860   -0.8947    8.6668 C.ar      1 RES1    0.0000
      8 C2         3.7737   -1.5941    7.8774 C.ar      1 RES1    0.0000
      9 C3         2.6865   -2.2187    8.5066 C.ar      1 RES1    0.0000
     10 H2         1.9941   -2.7007    7.9993 H         1 RES1    0.0000
     11 C4         2.6356   -2.0866    9.8775 C.ar      1 RES1    0.0000
     12 H3         1.9412   -2.5120   10.3751 H         1 RES1    0.0000
     13 C5         3.6326   -1.3790   10.5828 C.ar      1 RES1    0.0000
     14 H4         3.6192   -1.3208   11.5192 H         1 RES1    0.0000
@<TRIPOS>BOND
     1    1    2 1
     2    3    1 1
     3    4    3 1
     4    5    4 2
     5    6    7 ar
     6    7    3 1
     7    8    5 1
     8    9    8 ar
     9   10    9 1
    10   11    9 ar
    11   12   11 1
    12   13    6 ar
    13   14   13 1
    14    7    8 ar
    15   11   13 ar
@<TRIPOS>SUBSTRUCTURE
     1 RES1 1

@<TRIPOS>CRYSIN
  22.0427    3.9311   14.2340  90.0000 114.8850  90.0000  15 1

