# MOL2 file generated by ConQuest
# Please check atom types

@<TRIPOS>MOLECULE
BELBUP02
    14    15     1
SMALL
NO_CHARGES
****
Generated from CSD

@<TRIPOS>ATOM
      1 O1         0.9073   16.2117   -0.6263 O.3       1 RES1    0.0000
      2 H1         1.5410   15.5783   -0.9596 H         1 RES1    0.0000
      3 N1         1.6206   17.3369   -0.3419 N.pl3     1 RES1    0.0000
      4 N2         1.8005   18.2886   -1.2756 N.2       1 RES1    0.0000
      5 N3         2.4241   19.2998   -0.7234 N.2       1 RES1    0.0000
      6 N4         2.0975   17.0752    2.0369 N.ar      1 RES1    0.0000
      7 C1         2.1075   17.7240    0.8615 C.ar      1 RES1    0.0000
      8 C2         2.6328   18.9940    0.6041 C.ar      1 RES1    0.0000
      9 C3         3.2357   19.6994    1.6564 C.ar      1 RES1    0.0000
     10 H2         3.6469   20.5790    1.5100 H         1 RES1    0.0000
     11 C4         3.2465   19.0520    2.8742 C.ar      1 RES1    0.0000
     12 H3         3.6524   19.4364    3.6479 H         1 RES1    0.0000
     13 C5         2.6786   17.7697    3.0213 C.ar      1 RES1    0.0000
     14 H4         2.6928   17.3559    3.8525 H         1 RES1    0.0000
@<TRIPOS>BOND
     1    1    2 1
     2    3    1 1
     3    4    3 1
     4    5    4 2
     5    6    7 ar
     6    7    3 1
     7    8    5 1
     8    9    8 ar
     9   10    9 1
    10   11    9 ar
    11   12   11 1
    12   13    6 ar
    13   14   13 1
    14    7    8 ar
    15   11   13 ar
@<TRIPOS>SUBSTRUCTURE
     1 RES1 1

@<TRIPOS>CRYSIN
   3.7487   20.8881    7.0982  90.0000  96.2570  90.0000  14 1

