# MOL2 file generated by ConQuest
# Please check atom types

@<TRIPOS>MOLECULE
BELBUP03
    14    15     1
SMALL
NO_CHARGES
****
Generated from CSD

@<TRIPOS>ATOM
      1 O1         5.8501    5.2715    6.9207 O.3       1 RES1    0.0000
      2 N1         6.2846    3.7173    4.3350 N.ar      1 RES1    0.0000
      3 N2         8.8333    3.5725    6.8046 N.2       1 RES1    0.0000
      4 N3         7.9380    4.3257    7.3993 N.2       1 RES1    0.0000
      5 N4         6.8827    4.4477    6.5800 N.pl3     1 RES1    0.0000
      6 C1         6.8166    2.9795    3.3579 C.ar      1 RES1    0.0000
      7 C2         8.0713    2.3576    3.4159 C.ar      1 RES1    0.0000
      8 C3         8.8663    2.4616    4.5309 C.ar      1 RES1    0.0000
      9 C4         8.3440    3.2308    5.5715 C.ar      1 RES1    0.0000
     10 C5         7.0818    3.8017    5.4144 C.ar      1 RES1    0.0000
     11 H1         6.3168    2.8702    2.5809 H         1 RES1    0.0000
     12 H2         8.3711    1.8658    2.6854 H         1 RES1    0.0000
     13 H3         9.6961    2.0473    4.5890 H         1 RES1    0.0000
     14 H4         5.1904    4.8204    7.1023 H         1 RES1    0.0000
@<TRIPOS>BOND
     1    1    5 1
     2    2    6 ar
     3    3    4 2
     4    4    5 1
     5    5   10 1
     6    6    7 ar
     7    7    8 ar
     8    8    9 ar
     9    9    3 1
    10   10    2 ar
    11   11    6 1
    12   12    7 1
    13   13    8 1
    14   14    1 1
    15    9   10 ar
@<TRIPOS>SUBSTRUCTURE
     1 RES1 1

@<TRIPOS>CRYSIN
  20.2593    4.0782    6.8278  90.0000  90.0000  90.0000  29 1

