# MOL2 file generated by ConQuest
# Please check atom types

@<TRIPOS>MOLECULE
BELQUE
    54    56     1
SMALL
NO_CHARGES
****
Generated from CSD

@<TRIPOS>ATOM
      1 O1        11.9279    2.6451    3.2463 O.3       1 RES1    0.0000
      2 O2         7.5339    2.5334    4.2826 O.3       1 RES1    0.0000
      3 O3         6.4880   -0.0557    4.9754 O.3       1 RES1    0.0000
      4 O4         6.3449   -2.8596    4.3691 O.3       1 RES1    0.0000
      5 O5         8.8858   -6.1779    2.8324 O.3       1 RES1    0.0000
      6 O6        11.7456   -5.6288    3.7677 O.3       1 RES1    0.0000
      7 O7        13.4585   -2.5188    4.0280 O.3       1 RES1    0.0000
      8 O8        12.8866   -0.0157    2.7702 O.3       1 RES1    0.0000
      9 N1        10.9242    3.3982    3.8938 N.2       1 RES1    0.0000
     10 N2         7.6469   -5.5621    2.5333 N.2       1 RES1    0.0000
     11 C1        11.3404    1.6998    2.4873 C.2       1 RES1    0.0000
     12 C2        10.0069    1.8279    2.5891 C.2       1 RES1    0.0000
     13 C3         9.7949    2.8948    3.4783 C.2       1 RES1    0.0000
     14 C4         8.5093    3.5054    3.9463 C.3       1 RES1    0.0000
     15 C5         7.8030    1.8736    5.5000 C.3       1 RES1    0.0000
     16 C6         6.6166    1.0290    5.8750 C.3       1 RES1    0.0000
     17 C7         5.4004   -0.8956    5.3456 C.3       1 RES1    0.0000
     18 C8         5.2291   -1.9874    4.3489 C.3       1 RES1    0.0000
     19 C9         6.1413   -3.9996    3.5551 C.3       1 RES1    0.0000
     20 C10        7.4072   -4.7802    3.5203 C.2       1 RES1    0.0000
     21 C11        8.4298   -4.8338    4.4394 C.2       1 RES1    0.0000
     22 C12        9.3301   -5.6968    3.9787 C.2       1 RES1    0.0000
     23 C13       10.6528   -6.2224    4.4507 C.3       1 RES1    0.0000
     24 C14       11.9948   -4.3095    4.1929 C.3       1 RES1    0.0000
     25 C15       13.1728   -3.7748    3.4508 C.3       1 RES1    0.0000
     26 C16       14.4019   -1.7468    3.2883 C.3       1 RES1    0.0000
     27 C17       13.7883   -0.9545    2.1987 C.3       1 RES1    0.0000
     28 C18       12.2444    0.7753    1.7687 C.3       1 RES1    0.0000
     29 H1         9.4228    1.3036    2.1623 H         1 RES1    0.0000
     30 H2         8.6860    4.0585    4.7231 H         1 RES1    0.0000
     31 H3         8.1573    4.0781    3.2471 H         1 RES1    0.0000
     32 H4         7.9761    2.5248    6.1968 H         1 RES1    0.0000
     33 H5         8.5888    1.3140    5.4046 H         1 RES1    0.0000
     34 H6         6.7280    0.6917    6.7771 H         1 RES1    0.0000
     35 H7         5.8120    1.5690    5.8516 H         1 RES1    0.0000
     36 H8         4.5864   -0.3700    5.3957 H         1 RES1    0.0000
     37 H9         5.5675   -1.2774    6.2218 H         1 RES1    0.0000
     38 H10        4.4225   -2.4882    4.5510 H         1 RES1    0.0000
     39 H11        5.1320   -1.6056    3.4621 H         1 RES1    0.0000
     40 H12        5.8920   -3.7277    2.6578 H         1 RES1    0.0000
     41 H13        5.4235   -4.5436    3.9188 H         1 RES1    0.0000
     42 H14        8.4968   -4.4599    5.1879 H         1 RES1    0.0000
     43 H15       10.7430   -6.0498    5.4013 H         1 RES1    0.0000
     44 H16       10.6809   -7.1821    4.3182 H         1 RES1    0.0000
     45 H17       12.1723   -4.2978    5.1459 H         1 RES1    0.0000
     46 H18       11.2171   -3.7551    4.0215 H         1 RES1    0.0000
     47 H19       13.9304   -4.3723    3.5414 H         1 RES1    0.0000
     48 H20       12.9644   -3.6767    2.5083 H         1 RES1    0.0000
     49 H21       15.0647   -2.3443    2.9076 H         1 RES1    0.0000
     50 H22       14.8603   -1.1454    3.8954 H         1 RES1    0.0000
     51 H23       14.4772   -0.4890    1.6991 H         1 RES1    0.0000
     52 H24       13.3138   -1.5402    1.5892 H         1 RES1    0.0000
     53 H25       11.7393    0.2105    1.1616 H         1 RES1    0.0000
     54 H26       12.8995    1.2735    1.2562 H         1 RES1    0.0000
@<TRIPOS>BOND
     1    1    9 1
     2    2   14 1
     3    3   16 1
     4    4   18 1
     5    5   10 1
     6    6   23 1
     7    7   25 1
     8    8   27 1
     9    9   13 2
    10   10   20 2
    11   11    1 1
    12   12   11 2
    13   13   12 1
    14   14   13 1
    15   15    2 1
    16   16   15 1
    17   17    3 1
    18   18   17 1
    19   19    4 1
    20   20   19 1
    21   21   20 1
    22   22    5 1
    23   23   22 1
    24   24    6 1
    25   25   24 1
    26   26    7 1
    27   27   26 1
    28   28    8 1
    29   29   12 1
    30   30   14 1
    31   31   14 1
    32   32   15 1
    33   33   15 1
    34   34   16 1
    35   35   16 1
    36   36   17 1
    37   37   17 1
    38   38   18 1
    39   39   18 1
    40   40   19 1
    41   41   19 1
    42   42   21 1
    43   43   23 1
    44   44   23 1
    45   45   24 1
    46   46   24 1
    47   47   25 1
    48   48   25 1
    49   49   26 1
    50   50   26 1
    51   51   27 1
    52   52   27 1
    53   53   28 1
    54   54   28 1
    55   11   28 1
    56   21   22 2
@<TRIPOS>SUBSTRUCTURE
     1 RES1 1

@<TRIPOS>CRYSIN
  18.6920   13.0750    8.4000  90.0000 105.7800  90.0000   9 1

