# MOL2 file generated by ConQuest
# Please check atom types

@<TRIPOS>MOLECULE
BEMPUE
    53    56     1
SMALL
NO_CHARGES
****
Generated from CSD

@<TRIPOS>ATOM
      1 C1         4.7448    3.8325   14.3195 C.3       1 RES1    0.0000
      2 C2         5.0966    2.4811   14.8124 C.3       1 RES1    0.0000
      3 C3         4.4223    2.6417   13.4570 C.3       1 RES1    0.0000
      4 C4         5.2235    2.7728   12.1986 C.3       1 RES1    0.0000
      5 C5         6.1512    3.9651   12.3117 C.3       1 RES1    0.0000
      6 C6         5.7459    4.6927   13.5883 C.3       1 RES1    0.0000
      7 C7         4.6849    5.8007   13.5984 C.3       1 RES1    0.0000
      8 C8         3.9223    5.0623   14.7316 C.3       1 RES1    0.0000
      9 C9         3.0438    2.0395   13.3176 C.3       1 RES1    0.0000
     10 C10        6.5348    2.0942   15.0023 C.3       1 RES1    0.0000
     11 C11        2.4070    5.0025   14.6003 C.3       1 RES1    0.0000
     12 C12        4.3106    5.5658   16.1032 C.3       1 RES1    0.0000
     13 C13        6.3771    1.3255   10.6998 C.2       1 RES1    0.0000
     14 C14        7.0896    0.0382   10.5563 C.3       1 RES1    0.0000
     15 C15        7.0558    2.2570   17.3394 C.2       1 RES1    0.0000
     16 C16        7.4205    3.2072   18.4221 C.ar      1 RES1    0.0000
     17 C17        7.6275    4.5486   18.1777 C.ar      1 RES1    0.0000
     18 C18        7.9392    5.4095   19.2038 C.ar      1 RES1    0.0000
     19 C19        8.0503    4.8901   20.4703 C.ar      1 RES1    0.0000
     20 C20        7.8453    3.5703   20.7450 C.ar      1 RES1    0.0000
     21 C21        7.5265    2.7260   19.7128 C.ar      1 RES1    0.0000
     22 N1         8.4135    5.8028   21.5732 N.pl3     1 RES1    0.0000
     23 O1         5.9473    1.5294   11.9420 O.3       1 RES1    0.0000
     24 O2         6.2405    2.1475    9.8251 O.2       1 RES1    0.0000
     25 O3         7.0659    2.8405   16.1395 O.3       1 RES1    0.0000
     26 O4         6.7663    1.1145   17.5171 O.2       1 RES1    0.0000
     27 O5         8.3419    6.9929   21.3753 O.2       1 RES1    0.0000
     28 O6         8.7756    5.3086   22.6357 O.2       1 RES1    0.0000
     29 H1         4.5195    2.0992   15.4346 H         1 RES1    0.0000
     30 H2         4.5803    2.8910   11.4189 H         1 RES1    0.0000
     31 H3         7.0891    3.6459   12.3884 H         1 RES1    0.0000
     32 H4         6.1540    4.5371   11.5805 H         1 RES1    0.0000
     33 H5         6.5048    4.9153   14.1317 H         1 RES1    0.0000
     34 H6         4.9441    6.7163   13.8489 H         1 RES1    0.0000
     35 H7         4.1354    5.7978   12.7662 H         1 RES1    0.0000
     36 H8         2.5822    2.0322   14.1983 H         1 RES1    0.0000
     37 H9         3.1133    1.1145   13.0187 H         1 RES1    0.0000
     38 H10        2.6103    2.5005   12.5440 H         1 RES1    0.0000
     39 H11        7.1448    2.3989   14.1963 H         1 RES1    0.0000
     40 H12        6.6234    1.1627   15.2043 H         1 RES1    0.0000
     41 H13        2.1125    4.7057   13.6893 H         1 RES1    0.0000
     42 H14        2.0369    5.8871   14.7680 H         1 RES1    0.0000
     43 H15        2.0612    4.3541   15.3235 H         1 RES1    0.0000
     44 H16        5.3360    5.6148   16.2102 H         1 RES1    0.0000
     45 H17        4.0478    5.0212   16.7980 H         1 RES1    0.0000
     46 H18        3.9412    6.4800   16.2143 H         1 RES1    0.0000
     47 H19        7.4177   -0.3364   11.3199 H         1 RES1    0.0000
     48 H20        6.6033   -0.4005   10.0150 H         1 RES1    0.0000
     49 H21        7.6541    0.0411    9.8756 H         1 RES1    0.0000
     50 H22        7.5514    4.8569   17.2970 H         1 RES1    0.0000
     51 H23        8.0620    6.3467   19.0321 H         1 RES1    0.0000
     52 H24        7.9429    3.2713   21.5954 H         1 RES1    0.0000
     53 H25        7.3706    1.8161   19.8583 H         1 RES1    0.0000
@<TRIPOS>BOND
     1    1    2 1
     2    2    3 1
     3    3    1 1
     4    4    3 1
     5    5    4 1
     6    6    1 1
     7    7    6 1
     8    8    1 1
     9    9    3 1
    10   10    2 1
    11   11    8 1
    12   12    8 1
    13   13   14 1
    14   14   47 1
    15   15   16 1
    16   16   17 ar
    17   17   18 ar
    18   18   19 ar
    19   19   20 ar
    20   20   21 ar
    21   21   16 ar
    22   22   19 1
    23   23    4 1
    24   24   13 2
    25   25   10 1
    26   26   15 2
    27   27   22 2
    28   28   22 2
    29   29    2 1
    30   30    4 1
    31   31    5 1
    32   32    5 1
    33   33    6 1
    34   34    7 1
    35   35    7 1
    36   36    9 1
    37   37    9 1
    38   38    9 1
    39   39   10 1
    40   40   10 1
    41   41   11 1
    42   42   11 1
    43   43   11 1
    44   44   12 1
    45   45   12 1
    46   46   12 1
    47   48   14 1
    48   49   14 1
    49   50   17 1
    50   51   18 1
    51   52   20 1
    52   53   21 1
    53    5    6 1
    54    7    8 1
    55   13   23 1
    56   15   25 1
@<TRIPOS>SUBSTRUCTURE
     1 RES1 1

@<TRIPOS>CRYSIN
  13.7870    7.2040   20.6380  90.0000 101.8300  90.0000  14 2

