# MOL2 file generated by ConQuest
# Please check atom types

@<TRIPOS>MOLECULE
BEMZID
    66    69     1
SMALL
NO_CHARGES
****
Generated from CSD

@<TRIPOS>ATOM
      1 O1        -2.4743   -3.0093    1.8152 O.2       1 RES1    0.0000
      2 O2        -1.7025    2.2423    5.2514 O.3       1 RES1    0.0000
      3 O3        -0.6056   -0.0250    5.5913 O.3       1 RES1    0.0000
      4 O4         1.1608   -3.6246    5.8982 O.2       1 RES1    0.0000
      5 O5         2.3756   -4.3287    7.5325 O.2       1 RES1    0.0000
      6 O6         1.9046    1.5492    9.4015 O.3       1 RES1    0.0000
      7 O7         1.3883    6.7944   12.7387 O.3       1 RES1    0.0000
      8 O8        -0.3161    4.8821   13.0034 O.3       1 RES1    0.0000
      9 N1         1.7493   -3.4416    6.9648 N.pl3     1 RES1    0.0000
     10 C1        -2.9182   -1.8917    1.6777 C.2       1 RES1    0.0000
     11 H1        -3.5590   -1.6754    0.9461 H         1 RES1    0.0000
     12 C2        -2.5723   -0.7670    2.5513 C.ar      1 RES1    0.0000
     13 C3        -1.7065   -0.9762    3.6397 C.ar      1 RES1    0.0000
     14 H2        -1.3317   -1.8647    3.7758 H         1 RES1    0.0000
     15 C4        -1.4258    0.0509    4.5036 C.ar      1 RES1    0.0000
     16 C5        -2.0199    1.3204    4.3148 C.ar      1 RES1    0.0000
     17 C6        -2.8586    1.5235    3.2330 C.ar      1 RES1    0.0000
     18 H3        -3.2938    2.3891    3.1150 H         1 RES1    0.0000
     19 C7        -3.1365    0.4813    2.3519 C.ar      1 RES1    0.0000
     20 H4        -3.7404    0.5961    1.5843 H         1 RES1    0.0000
     21 C8        -2.1898    3.5737    5.0566 C.3       1 RES1    0.0000
     22 H5        -1.8499    3.9259    4.1910 H         1 RES1    0.0000
     23 H6        -1.8227    4.0854    5.8247 H         1 RES1    0.0000
     24 H7        -3.1568    3.6029    5.1046 H         1 RES1    0.0000
     25 C9         0.0955   -1.2467    5.7757 C.3       1 RES1    0.0000
     26 H8         0.6397   -1.4446    4.9916 H         1 RES1    0.0000
     27 H9        -0.5386   -1.9985    5.8855 H         1 RES1    0.0000
     28 C10        0.9746   -1.0812    6.9907 C.ar      1 RES1    0.0000
     29 C11        1.7231   -2.1160    7.5602 C.ar      1 RES1    0.0000
     30 C12        2.4837   -1.9225    8.7120 C.ar      1 RES1    0.0000
     31 H10        2.9810   -2.6883    9.0725 H         1 RES1    0.0000
     32 C13        2.5273   -0.6887    9.3117 C.ar      1 RES1    0.0000
     33 H11        3.0395   -0.5250   10.1230 H         1 RES1    0.0000
     34 C14        1.8085    0.3703    8.7490 C.ar      1 RES1    0.0000
     35 C15        1.0488    0.1718    7.5993 C.ar      1 RES1    0.0000
     36 H12        0.5386    0.8893    7.2057 H         1 RES1    0.0000
     37 C16        1.2177    2.6946    8.8573 C.3       1 RES1    0.0000
     38 H13        0.2662    2.4476    8.7279 H         1 RES1    0.0000
     39 H14        1.6423    2.9492    7.9965 H         1 RES1    0.0000
     40 C17        1.3154    3.8008    9.8629 C.ar      1 RES1    0.0000
     41 C18        0.4805    3.7677   10.9869 C.ar      1 RES1    0.0000
     42 H15       -0.1146    3.0273   11.1115 H         1 RES1    0.0000
     43 C19        0.5125    4.7818   11.9234 C.ar      1 RES1    0.0000
     44 C20        1.4245    5.8469   11.7593 C.ar      1 RES1    0.0000
     45 C21        2.2534    5.8695   10.6540 C.ar      1 RES1    0.0000
     46 H16        2.8722    6.6080   10.5495 H         1 RES1    0.0000
     47 C22        2.1940    4.8521    9.7061 C.ar      1 RES1    0.0000
     48 H17        2.7854    4.8825    8.9171 H         1 RES1    0.0000
     49 C23        2.2473    7.9164   12.5947 C.3       1 RES1    0.0000
     50 H18        2.0444    8.4818   13.3623 H         1 RES1    0.0000
     51 H19        3.2162    7.6326   12.5814 H         1 RES1    0.0000
     52 H20        2.0594    8.3956   11.7413 H         1 RES1    0.0000
     53 C24       -1.2269    3.7866   13.2107 C.3       1 RES1    0.0000
     54 H21       -0.6937    3.0173   13.5021 H         1 RES1    0.0000
     55 H22       -1.6985    3.5845   12.3273 H         1 RES1    0.0000
     56 C25       -2.2404    4.1742   14.2431 C.ar      1 RES1    0.0000
     57 C26       -2.0178    3.9354   15.5936 C.ar      1 RES1    0.0000
     58 H23       -1.1860    3.5600   15.8715 H         1 RES1    0.0000
     59 C27       -3.0110    4.2034   16.5266 C.ar      1 RES1    0.0000
     60 H24       -2.8532    3.9892   17.4686 H         1 RES1    0.0000
     61 C28       -4.2233    4.7093   16.1095 C.ar      1 RES1    0.0000
     62 H25       -4.9219    4.8782   16.7512 H         1 RES1    0.0000
     63 C29       -4.4508    4.9690   14.7706 C.ar      1 RES1    0.0000
     64 H26       -5.3303    5.3066   14.4665 H         1 RES1    0.0000
     65 C30       -3.4596    4.7008   13.8425 C.ar      1 RES1    0.0000
     66 H27       -3.6437    4.8610   12.8554 H         1 RES1    0.0000
@<TRIPOS>BOND
     1    1   10 2
     2    2   16 1
     3    3   15 1
     4    4    9 2
     5    5    9 2
     6    6   34 1
     7    7   44 1
     8    8   43 1
     9    9   29 1
    10   10   11 1
    11   12   10 1
    12   13   12 ar
    13   14   13 1
    14   15   13 ar
    15   16   15 ar
    16   17   16 ar
    17   18   17 1
    18   19   12 ar
    19   20   19 1
    20   21    2 1
    21   22   21 1
    22   23   21 1
    23   24   21 1
    24   25    3 1
    25   26   25 1
    26   27   25 1
    27   28   25 1
    28   29   28 ar
    29   30   29 ar
    30   31   30 1
    31   32   30 ar
    32   33   32 1
    33   34   32 ar
    34   35   28 ar
    35   36   35 1
    36   37    6 1
    37   38   37 1
    38   39   37 1
    39   40   37 1
    40   41   40 ar
    41   42   41 1
    42   43   41 ar
    43   44   43 ar
    44   45   44 ar
    45   46   45 1
    46   47   40 ar
    47   48   47 1
    48   49    7 1
    49   50   49 1
    50   51   49 1
    51   52   49 1
    52   53    8 1
    53   54   53 1
    54   55   53 1
    55   56   53 1
    56   57   56 ar
    57   58   57 1
    58   59   57 ar
    59   60   59 1
    60   61   59 ar
    61   62   61 1
    62   63   61 ar
    63   64   63 1
    64   65   56 ar
    65   66   65 1
    66   17   19 ar
    67   34   35 ar
    68   45   47 ar
    69   63   65 ar
@<TRIPOS>SUBSTRUCTURE
     1 RES1 1

@<TRIPOS>CRYSIN
   8.7426   10.6484   14.4952  96.1220  99.5550 104.5290   2 1

