# MOL2 file generated by ConQuest
# Please check atom types

@<TRIPOS>MOLECULE
BEMZEZ
    68    71     1
SMALL
NO_CHARGES
****
Generated from CSD

@<TRIPOS>ATOM
      1 O1        11.8977   -0.4276   13.7917 O.2       1 RES1    0.0000
      2 O2         7.2857    2.8882   10.8873 O.3       1 RES1    0.0000
      3 O3         9.2091    3.8221   12.3277 O.3       1 RES1    0.0000
      4 O4         3.9531    6.9870    7.6129 O.3       1 RES1    0.0000
      5 O5         1.4280   11.9489    4.7408 O.3       1 RES1    0.0000
      6 O6         0.4482    9.8503    8.0414 O.2       1 RES1    0.0000
      7 O7         0.1097   11.5776    6.8667 O.2       1 RES1    0.0000
      8 N1         0.7326   10.5712    7.1043 N.pl3     1 RES1    0.0000
      9 C1        10.9262   -0.7259   13.1286 C.2       1 RES1    0.0000
     10 H1        10.7225   -1.6895   12.9565 H         1 RES1    0.0000
     11 C2         9.9736    0.2143   12.5462 C.ar      1 RES1    0.0000
     12 C3        10.0950    1.5971   12.7588 C.ar      1 RES1    0.0000
     13 H2        10.8522    1.9310   13.2890 H         1 RES1    0.0000
     14 C4         9.1839    2.4673   12.2012 C.ar      1 RES1    0.0000
     15 C5         8.1201    1.9570   11.4099 C.ar      1 RES1    0.0000
     16 C6         8.0057    0.5891   11.2099 C.ar      1 RES1    0.0000
     17 H3         7.2732    0.2261   10.6860 H         1 RES1    0.0000
     18 C7         8.9319   -0.2765   11.7753 C.ar      1 RES1    0.0000
     19 H4         8.8654   -1.2501   11.6105 H         1 RES1    0.0000
     20 C8         6.2000    2.4106   10.0440 C.3       1 RES1    0.0000
     21 H5         5.5196    1.9153   10.6266 H         1 RES1    0.0000
     22 H6         6.5488    1.8203    9.3684 H         1 RES1    0.0000
     23 C9         5.5832    3.6024    9.3862 C.ar      1 RES1    0.0000
     24 C10        4.4280    4.2075    9.8717 C.ar      1 RES1    0.0000
     25 H7         4.0131    3.8270   10.6455 H         1 RES1    0.0000
     26 C11        3.8806    5.3358    9.2736 C.ar      1 RES1    0.0000
     27 C12        4.5319    5.8685    8.1591 C.ar      1 RES1    0.0000
     28 C13        5.6816    5.2797    7.6516 C.ar      1 RES1    0.0000
     29 H8         6.1129    5.6353    6.8884 H         1 RES1    0.0000
     30 C14        6.1881    4.1451    8.2631 C.ar      1 RES1    0.0000
     31 H9         6.9683    3.7121    7.9345 H         1 RES1    0.0000
     32 C15        2.6431    5.9911    9.8233 C.3       1 RES1    0.0000
     33 H10        1.9803    6.1264    9.1224 H         1 RES1    0.0000
     34 H11        2.8165    6.8914   10.0873 H         1 RES1    0.0000
     35 H12        2.2518    5.4483   10.5144 H         1 RES1    0.0000
     36 C16        4.6355    7.6278    6.5400 C.3       1 RES1    0.0000
     37 H13        5.5406    7.9627    6.8614 H         1 RES1    0.0000
     38 H14        4.8136    6.9827    5.7843 H         1 RES1    0.0000
     39 C17        3.7780    8.7593    6.0458 C.ar      1 RES1    0.0000
     40 C18        2.6443    9.1477    6.7296 C.ar      1 RES1    0.0000
     41 H15        2.3680    8.6990    7.5371 H         1 RES1    0.0000
     42 C19        1.8819   10.2161    6.2818 C.ar      1 RES1    0.0000
     43 C20        2.2226   10.9268    5.1199 C.ar      1 RES1    0.0000
     44 C21        3.3616   10.5171    4.4324 C.ar      1 RES1    0.0000
     45 H16        3.6228   11.0324    3.6476 H         1 RES1    0.0000
     46 C22        4.1220    9.4541    4.8889 C.ar      1 RES1    0.0000
     47 H17        4.9059    9.2098    4.3923 H         1 RES1    0.0000
     48 C23        1.7653   12.7286    3.5981 C.3       1 RES1    0.0000
     49 H18        2.6782   13.1350    3.7300 H         1 RES1    0.0000
     50 H19        1.7581   12.1390    2.7989 H         1 RES1    0.0000
     51 C24        0.7168   13.8103    3.4664 C.ar      1 RES1    0.0000
     52 C25       -0.4777   13.7521    4.1659 C.ar      1 RES1    0.0000
     53 H20       -0.6455   13.0027    4.7626 H         1 RES1    0.0000
     54 C26       -1.4245   14.7603    4.0078 C.ar      1 RES1    0.0000
     55 H21       -2.2323   14.6918    4.4869 H         1 RES1    0.0000
     56 C27       -1.1761   15.8319    3.1759 C.ar      1 RES1    0.0000
     57 H22       -1.8193   16.5468    3.0935 H         1 RES1    0.0000
     58 C28        0.0139   15.8943    2.4771 C.ar      1 RES1    0.0000
     59 H23        0.1675   16.6529    1.8691 H         1 RES1    0.0000
     60 C29        0.9518   14.8854    2.6168 C.ar      1 RES1    0.0000
     61 H24        1.7511   14.9251    2.1650 H         1 RES1    0.0000
     62 C30       10.2348    4.3766   13.1672 C.3       1 RES1    0.0000
     63 H25       11.1338    4.1504   12.8187 H         1 RES1    0.0000
     64 H26       10.1800    3.9296   14.0809 H         1 RES1    0.0000
     65 C31       10.0158    5.8607   13.2325 C.3       1 RES1    0.0000
     66 H27       10.1254    6.3132   12.3267 H         1 RES1    0.0000
     67 H28        9.0712    6.0747   13.5309 H         1 RES1    0.0000
     68 H29       10.6664    6.2497   13.8309 H         1 RES1    0.0000
@<TRIPOS>BOND
     1    1    9 2
     2    2   15 1
     3    3   14 1
     4    4   27 1
     5    5   43 1
     6    6    8 2
     7    7    8 2
     8    8   42 1
     9    9   10 1
    10   11    9 1
    11   12   11 ar
    12   13   12 1
    13   14   12 ar
    14   15   14 ar
    15   16   15 ar
    16   17   16 1
    17   18   11 ar
    18   19   18 1
    19   20    2 1
    20   21   20 1
    21   22   20 1
    22   23   20 1
    23   24   23 ar
    24   25   24 1
    25   26   24 ar
    26   27   26 ar
    27   28   27 ar
    28   29   28 1
    29   30   23 ar
    30   31   30 1
    31   32   26 1
    32   33   32 1
    33   34   32 1
    34   35   32 1
    35   36    4 1
    36   37   36 1
    37   38   36 1
    38   39   36 1
    39   40   39 ar
    40   41   40 1
    41   42   40 ar
    42   43   42 ar
    43   44   43 ar
    44   45   44 1
    45   46   39 ar
    46   47   46 1
    47   48    5 1
    48   49   48 1
    49   50   48 1
    50   51   48 1
    51   52   51 ar
    52   53   52 1
    53   54   52 ar
    54   55   54 1
    55   56   54 ar
    56   57   56 1
    57   58   56 ar
    58   59   58 1
    59   60   51 ar
    60   61   60 1
    61   62    3 1
    62   63   62 1
    63   64   62 1
    64   65   62 1
    65   66   65 1
    66   67   65 1
    67   68   65 1
    68   16   18 ar
    69   28   30 ar
    70   44   46 ar
    71   58   60 ar
@<TRIPOS>SUBSTRUCTURE
     1 RES1 1

@<TRIPOS>CRYSIN
   9.5168   10.0609   14.1030  77.4310  77.1780  79.4790   2 1

