# MOL2 file generated by ConQuest
# Please check atom types

@<TRIPOS>MOLECULE
BENHEK
    30    32     1
SMALL
NO_CHARGES
****
Generated from CSD

@<TRIPOS>ATOM
      1 O1         0.4304    1.3203    2.7782 O.3       1 RES1    0.0000
      2 O2         1.5595    4.5681    0.4853 O.2       1 RES1    0.0000
      3 O3         4.0915    1.4948    1.0113 O.3       1 RES1    0.0000
      4 N1         3.2474    2.5585    0.7908 N.2       1 RES1    0.0000
      5 C1        -2.6267    3.2188    2.9306 C.ar      1 RES1    0.0000
      6 H1        -3.4736    3.1270    3.3054 H         1 RES1    0.0000
      7 C2        -2.3245    4.3621    2.1853 C.ar      1 RES1    0.0000
      8 H2        -2.9647    5.0252    2.0624 H         1 RES1    0.0000
      9 C3        -1.0669    4.4977    1.6342 C.ar      1 RES1    0.0000
     10 H3        -0.8623    5.2555    1.1354 H         1 RES1    0.0000
     11 C4        -1.6911    2.2278    3.1200 C.ar      1 RES1    0.0000
     12 H4        -1.9072    1.4700    3.6144 H         1 RES1    0.0000
     13 C5        -0.4144    2.3646    2.5661 C.ar      1 RES1    0.0000
     14 C6        -0.0945    3.5039    1.8177 C.ar      1 RES1    0.0000
     15 C7         1.2243    3.6291    1.1929 C.2       1 RES1    0.0000
     16 C8         2.1537    2.5043    1.4631 C.2       1 RES1    0.0000
     17 C9         1.8359    1.4140    2.4477 C.3       1 RES1    0.0000
     18 H5         2.1009    0.5621    2.0413 H         1 RES1    0.0000
     19 C10        2.6301    1.5745    3.7263 C.ar      1 RES1    0.0000
     20 C11        2.4702    2.7086    4.5241 C.ar      1 RES1    0.0000
     21 H6         1.8810    3.3786    4.2628 H         1 RES1    0.0000
     22 C12        3.1874    2.8390    5.7049 C.ar      1 RES1    0.0000
     23 H7         3.0749    3.5951    6.2363 H         1 RES1    0.0000
     24 C13        4.0711    1.8440    6.0942 C.ar      1 RES1    0.0000
     25 H8         4.5516    1.9317    6.8847 H         1 RES1    0.0000
     26 C14        4.2375    0.7174    5.3018 C.ar      1 RES1    0.0000
     27 H9         4.8319    0.0508    5.5597 H         1 RES1    0.0000
     28 C15        3.5167    0.5841    4.1222 C.ar      1 RES1    0.0000
     29 H10        3.6288   -0.1737    3.5957 H         1 RES1    0.0000
     30 H11        4.8050    1.7603    0.4190 H         1 RES1    0.0000
@<TRIPOS>BOND
     1    1   13 1
     2    2   15 2
     3    3    4 1
     4    4   16 2
     5    5    6 1
     6    7    5 ar
     7    8    7 1
     8    9    7 ar
     9   10    9 1
    10   11    5 ar
    11   12   11 1
    12   13   11 ar
    13   14    9 ar
    14   15   14 1
    15   16   15 1
    16   17    1 1
    17   18   17 1
    18   19   17 1
    19   20   19 ar
    20   21   20 1
    21   22   20 ar
    22   23   22 1
    23   24   22 ar
    24   25   24 1
    25   26   24 ar
    26   27   26 1
    27   28   19 ar
    28   29   28 1
    29   30    3 1
    30   13   14 ar
    31   16   17 1
    32   26   28 ar
@<TRIPOS>SUBSTRUCTURE
     1 RES1 1

@<TRIPOS>CRYSIN
   8.6182    5.7715   23.4684  90.0000  94.0640  90.0000 231 1

