# MOL2 file generated by ConQuest
# Please check atom types

@<TRIPOS>MOLECULE
BENVIA
    50    51     1
SMALL
NO_CHARGES
****
Generated from CSD

@<TRIPOS>ATOM
      1 O1        -0.4740   -0.5276    0.9641 O.3       1 RES1    0.0000
      2 O2         1.0611    2.1701    2.6769 O.3       1 RES1    0.0000
      3 O3        -0.8064    5.1482    5.2876 O.2       1 RES1    0.0000
      4 O4        -0.5989    3.8709    6.9742 O.2       1 RES1    0.0000
      5 O5        -0.8062   -2.0951   -0.5870 O.2       1 RES1    0.0000
      6 O6        -1.0890    1.8493    2.1266 O.2       1 RES1    0.0000
      7 O7         1.9503    1.2315    6.0816 O.2       1 RES1    0.0000
      8 O8        -0.0300    1.5744    5.4126 O.2       1 RES1    0.0000
      9 N1         1.1422    1.8827    5.4746 N.pl3     1 RES1    0.0000
     10 N2        -0.1325    4.4748    6.0354 N.pl3     1 RES1    0.0000
     11 C1         0.6231    0.3999    1.2413 C.3       1 RES1    0.0000
     12 C2         1.3693    4.3540    5.7602 C.3       1 RES1    0.0000
     13 C3         3.0533    3.0253    4.3992 C.3       1 RES1    0.0000
     14 C4         2.1730   -1.2884    0.6564 C.3       1 RES1    0.0000
     15 C5         2.4485    1.5022   -0.2216 C.3       1 RES1    0.0000
     16 C6         1.2839   -0.7858   -0.5051 C.3       1 RES1    0.0000
     17 C7         1.1408    0.7192   -0.1890 C.3       1 RES1    0.0000
     18 C8         1.7387   -0.4360    1.8483 C.3       1 RES1    0.0000
     19 C9         0.0938    1.4314   -1.0512 C.3       1 RES1    0.0000
     20 C10       -0.0832   -1.2593   -0.1197 C.2       1 RES1    0.0000
     21 C11        0.0635    1.5189    2.0373 C.2       1 RES1    0.0000
     22 C12        1.5924    3.1642    4.7678 C.3       1 RES1    0.0000
     23 C13        2.0500    4.1360    7.1128 C.3       1 RES1    0.0000
     24 C14        0.7311    3.2947    3.5160 C.3       1 RES1    0.0000
     25 C15        1.8146    5.6813    5.1396 C.3       1 RES1    0.0000
     26 C16        1.7415   -1.2149   -1.8725 C.3       1 RES1    0.0000
     27 H1         3.5758    2.9212    5.1984 H         1 RES1    0.0000
     28 H2         3.3412    3.8112    3.9298 H         1 RES1    0.0000
     29 H3         3.1705    2.2562    3.8373 H         1 RES1    0.0000
     30 H4         2.0189   -2.2312    0.8286 H         1 RES1    0.0000
     31 H5         3.1129   -1.1538    0.4579 H         1 RES1    0.0000
     32 H6         3.0845    1.0885    0.3665 H         1 RES1    0.0000
     33 H7         2.2886    2.4047    0.0630 H         1 RES1    0.0000
     34 H8         2.7966    1.5064   -1.1163 H         1 RES1    0.0000
     35 H9         1.4125   -0.9872    2.5771 H         1 RES1    0.0000
     36 H10        2.4652    0.1208    2.1686 H         1 RES1    0.0000
     37 H11        0.0136    2.3450   -0.7677 H         1 RES1    0.0000
     38 H12       -0.7534    0.9899   -0.9536 H         1 RES1    0.0000
     39 H13        0.3654    1.4037   -1.9712 H         1 RES1    0.0000
     40 H14        1.7399    3.3141    7.4982 H         1 RES1    0.0000
     41 H15        1.8372    4.8650    7.6999 H         1 RES1    0.0000
     42 H16        3.0011    4.0930    6.9889 H         1 RES1    0.0000
     43 H17       -0.2104    3.2794    3.7491 H         1 RES1    0.0000
     44 H18        0.9238    4.1277    3.0571 H         1 RES1    0.0000
     45 H19        1.3286    5.8327    4.3257 H         1 RES1    0.0000
     46 H20        2.7549    5.6466    4.9495 H         1 RES1    0.0000
     47 H21        1.6396    6.3977    5.7550 H         1 RES1    0.0000
     48 H22        2.6590   -0.9622   -1.9964 H         1 RES1    0.0000
     49 H23        1.1988   -0.7900   -2.5404 H         1 RES1    0.0000
     50 H24        1.6590   -2.1687   -1.9523 H         1 RES1    0.0000
@<TRIPOS>BOND
     1    1   11 1
     2    2   21 1
     3    3   10 2
     4    4   10 2
     5    5   20 2
     6    6   21 2
     7    7    9 2
     8    8    9 2
     9    9   22 1
    10   10   12 1
    11   11   17 1
    12   12   22 1
    13   13   22 1
    14   14   16 1
    15   15   17 1
    16   16   17 1
    17   17   19 1
    18   18   11 1
    19   19   37 1
    20   20    1 1
    21   21   11 1
    22   22   24 1
    23   23   12 1
    24   24    2 1
    25   25   12 1
    26   26   16 1
    27   27   13 1
    28   28   13 1
    29   29   13 1
    30   30   14 1
    31   31   14 1
    32   32   15 1
    33   33   15 1
    34   34   15 1
    35   35   18 1
    36   36   18 1
    37   38   19 1
    38   39   19 1
    39   40   23 1
    40   41   23 1
    41   42   23 1
    42   43   24 1
    43   44   24 1
    44   45   25 1
    45   46   25 1
    46   47   25 1
    47   48   26 1
    48   49   26 1
    49   50   26 1
    50   14   18 1
    51   16   20 1
@<TRIPOS>SUBSTRUCTURE
     1 RES1 1

@<TRIPOS>CRYSIN
   6.3253   13.8840   10.5060  90.0000  91.6300  90.0000   4 1

