# MOL2 file generated by ConQuest
# Please check atom types

@<TRIPOS>MOLECULE
BENWEY
    60    62     1
SMALL
NO_CHARGES
****
Generated from CSD

@<TRIPOS>ATOM
      1 C1        -3.3375    7.6302    5.1933 C.2       1 RES1    0.0000
      2 C2        -3.3731    7.5624    3.6954 C.3       1 RES1    0.0000
      3 C3        -3.5526    8.9157    3.0076 C.3       1 RES1    0.0000
      4 C4        -3.9516   10.0061    4.0026 C.3       1 RES1    0.0000
      5 C5        -5.0124    9.4082    4.9764 C.3       1 RES1    0.0000
      6 C6        -6.0823   10.2560    5.7013 C.3       1 RES1    0.0000
      7 C7        -5.4250   11.2092    6.6878 C.3       1 RES1    0.0000
      8 C8        -4.3575   12.0888    6.0279 C.3       1 RES1    0.0000
      9 C9        -3.0175   11.4027    5.9553 C.3       1 RES1    0.0000
     10 C10       -2.9451   10.0653    5.1941 C.3       1 RES1    0.0000
     11 C11       -3.7981    8.9099    5.7992 C.3       1 RES1    0.0000
     12 C12       -6.9560   10.9825    4.6785 C.3       1 RES1    0.0000
     13 H1        -6.4136   11.5847    4.1638 H         1 RES1    0.0000
     14 H2        -7.6397   11.4779    5.1359 H         1 RES1    0.0000
     15 H3        -7.3644   10.3397    4.0937 H         1 RES1    0.0000
     16 C13       -6.9604    9.2753    6.5072 C.3       1 RES1    0.0000
     17 H4        -6.4206    8.8232    7.1596 H         1 RES1    0.0000
     18 H5        -7.3494    8.6311    5.9114 H         1 RES1    0.0000
     19 H6        -7.6589    9.7620    6.9520 H         1 RES1    0.0000
     20 C14       -1.4567    9.7794    4.9562 C.3       1 RES1    0.0000
     21 H7        -1.3606    8.9373    4.5038 H         1 RES1    0.0000
     22 H8        -0.9991    9.7432    5.7992 H         1 RES1    0.0000
     23 H9        -1.0790   10.4770    4.4169 H         1 RES1    0.0000
     24 C15       -4.4835    8.8579    1.8388 C.3       1 RES1    0.0000
     25 H10       -4.2017    8.1646    1.2388 H         1 RES1    0.0000
     26 H11       -4.4739    9.7014    1.3806 H         1 RES1    0.0000
     27 H12       -5.3739    8.6716    2.1477 H         1 RES1    0.0000
     28 C16       -6.4058   12.1928    8.6119 C.2       1 RES1    0.0000
     29 C17       -7.2923   13.3020    9.0862 C.3       1 RES1    0.0000
     30 H13       -7.7279   13.7079    8.3326 H         1 RES1    0.0000
     31 H14       -6.7643   13.9606    9.5427 H         1 RES1    0.0000
     32 H15       -7.9531   12.9496    9.6862 H         1 RES1    0.0000
     33 C18       -4.2664   14.4560    6.2507 C.2       1 RES1    0.0000
     34 C19       -3.9214   15.5551    7.1908 C.3       1 RES1    0.0000
     35 H16       -3.6507   15.1825    8.0330 H         1 RES1    0.0000
     36 H17       -4.6890   16.1169    7.3216 H         1 RES1    0.0000
     37 H18       -3.2026   16.0751    6.8245 H         1 RES1    0.0000
     38 C20       -1.7630   12.0382    7.9098 C.2       1 RES1    0.0000
     39 C21       -1.7102   11.8678    9.3782 C.3       1 RES1    0.0000
     40 H19       -2.2845   11.1428    9.6372 H         1 RES1    0.0000
     41 H20       -2.0045   12.6752    9.8052 H         1 RES1    0.0000
     42 H21       -0.8092   11.6743    9.6465 H         1 RES1    0.0000
     43 N1        -2.9317    6.7146    5.9882 N.2       1 RES1    0.0000
     44 O1        -2.5152    5.5620    5.2760 O.3       1 RES1    0.0000
     45 H22       -2.2611    4.9901    5.8060 H         1 RES1    0.0000
     46 O2        -6.4253   12.0758    7.2853 O.3       1 RES1    0.0000
     47 O3        -4.1602   13.2717    6.8212 O.3       1 RES1    0.0000
     48 O4        -2.6009   11.1630    7.3250 O.3       1 RES1    0.0000
     49 O5        -5.7378   11.5038    9.3309 O.2       1 RES1    0.0000
     50 O6        -4.5974   14.5918    5.1249 O.2       1 RES1    0.0000
     51 O7        -1.1409   12.8673    7.3123 O.2       1 RES1    0.0000
     52 H23       -2.6255    7.0626    3.4262 H         1 RES1    0.0000
     53 H24       -4.2552    6.9904    3.4599 H         1 RES1    0.0000
     54 H25       -2.7419    9.2580    2.6751 H         1 RES1    0.0000
     55 H26       -4.1850   10.9478    3.5950 H         1 RES1    0.0000
     56 H27       -5.4886    8.7958    4.5317 H         1 RES1    0.0000
     57 H28       -4.9939   10.7311    7.4262 H         1 RES1    0.0000
     58 H29       -4.6715   12.3777    5.1477 H         1 RES1    0.0000
     59 H30       -2.3025   12.0166    5.5275 H         1 RES1    0.0000
     60 H31       -3.8950    8.8247    6.7511 H         1 RES1    0.0000
@<TRIPOS>BOND
     1    1    2 1
     2    2    3 1
     3    3    4 1
     4    4    5 1
     5    5    6 1
     6    6    7 1
     7    7    8 1
     8    8    9 1
     9    9   10 1
    10   10    4 1
    11   11    1 1
    12   12    6 1
    13   13   12 1
    14   14   12 1
    15   15   12 1
    16   16    6 1
    17   17   16 1
    18   18   16 1
    19   19   16 1
    20   20   10 1
    21   21   20 1
    22   22   20 1
    23   23   20 1
    24   24    3 1
    25   25   24 1
    26   26   24 1
    27   27   24 1
    28   28   29 1
    29   29   30 1
    30   31   29 1
    31   32   29 1
    32   33   34 1
    33   34   35 1
    34   36   34 1
    35   37   34 1
    36   38   39 1
    37   39   40 1
    38   41   39 1
    39   42   39 1
    40   43    1 2
    41   44   43 1
    42   45   44 1
    43   46    7 1
    44   47    8 1
    45   48    9 1
    46   49   28 2
    47   50   33 2
    48   51   38 2
    49   52    2 1
    50   53    2 1
    51   54    3 1
    52   55    4 1
    53   56    5 1
    54   57    7 1
    55   58    8 1
    56   59    9 1
    57   60   11 1
    58    5   11 1
    59   10   11 1
    60   28   46 1
    61   33   47 1
    62   38   48 1
@<TRIPOS>SUBSTRUCTURE
     1 RES1 1

@<TRIPOS>CRYSIN
   9.1770   14.4430    9.1910  90.0000 113.3400  90.0000   4 1

