# MOL2 file generated by ConQuest
# Please check atom types

@<TRIPOS>MOLECULE
BENZEB
    43    43     1
SMALL
NO_CHARGES
****
Generated from CSD

@<TRIPOS>ATOM
      1 N1        -2.2746   -0.6603   10.1534 N.pl3     1 RES1    0.0000
      2 O1         6.3724    2.9245    5.0337 O.2       1 RES1    0.0000
      3 O2         5.5473    3.7064    3.1277 O.3       1 RES1    0.0000
      4 O3         3.7510    1.0954    2.4233 O.2       1 RES1    0.0000
      5 O4         2.2137    2.4072    1.4696 O.3       1 RES1    0.0000
      6 O5        -2.1457   -1.4015   11.1039 O.2       1 RES1    0.0000
      7 O6        -3.3585   -0.3278    9.7338 O.2       1 RES1    0.0000
      8 C1         2.3756    1.2966    7.5699 C.2       1 RES1    0.0000
      9 H1         3.1619    1.1812    8.0533 H         1 RES1    0.0000
     10 C2         2.5041    1.8752    6.3864 C.2       1 RES1    0.0000
     11 H2         1.7361    2.0243    5.8837 H         1 RES1    0.0000
     12 C3         3.7683    2.2870    5.8363 C.2       1 RES1    0.0000
     13 H3         4.5039    2.1831    6.3947 H         1 RES1    0.0000
     14 C4         4.0231    2.7961    4.6353 C.2       1 RES1    0.0000
     15 C5         2.9752    3.0382    3.5840 C.3       1 RES1    0.0000
     16 H4         2.0976    2.9789    3.9938 H         1 RES1    0.0000
     17 H5         3.0792    3.9372    3.2359 H         1 RES1    0.0000
     18 C6         1.1592    0.8167    8.2118 C.ar      1 RES1    0.0000
     19 C7        -0.1132    1.1306    7.7494 C.ar      1 RES1    0.0000
     20 H6        -0.2066    1.6699    6.9971 H         1 RES1    0.0000
     21 C8        -1.2251    0.6624    8.3786 C.ar      1 RES1    0.0000
     22 H7        -2.0725    0.8790    8.0619 H         1 RES1    0.0000
     23 C9        -1.0769   -0.1383    9.4931 C.ar      1 RES1    0.0000
     24 C10        0.1501   -0.4845    9.9773 C.ar      1 RES1    0.0000
     25 H8         0.2314   -1.0400   10.7183 H         1 RES1    0.0000
     26 C11        1.2616    0.0063    9.3435 C.ar      1 RES1    0.0000
     27 H9         2.1042   -0.2052    9.6763 H         1 RES1    0.0000
     28 C12        5.4306    3.1322    4.3243 C.2       1 RES1    0.0000
     29 C13        6.8814    4.0389    2.6963 C.3       1 RES1    0.0000
     30 H10        7.2891    4.6222    3.3401 H         1 RES1    0.0000
     31 H11        6.8409    4.4806    1.8456 H         1 RES1    0.0000
     32 H12        7.4012    3.2360    2.6164 H         1 RES1    0.0000
     33 C14        3.0512    2.0594    2.4461 C.2       1 RES1    0.0000
     34 C15        2.1481    1.5185    0.3060 C.3       1 RES1    0.0000
     35 H13        2.1967    0.5855    0.6024 H         1 RES1    0.0000
     36 C16        3.3056    1.8192   -0.6061 C.3       1 RES1    0.0000
     37 H14        3.2460    2.7272   -0.9092 H         1 RES1    0.0000
     38 H15        3.2799    1.2269   -1.3617 H         1 RES1    0.0000
     39 H16        4.1295    1.6943   -0.1299 H         1 RES1    0.0000
     40 C17        0.7938    1.7843   -0.3126 C.3       1 RES1    0.0000
     41 H17        0.1059    1.6156    0.3354 H         1 RES1    0.0000
     42 H18        0.6685    1.2076   -1.0705 H         1 RES1    0.0000
     43 H19        0.7462    2.7004   -0.5981 H         1 RES1    0.0000
@<TRIPOS>BOND
     1    1    6 2
     2    2   28 2
     3    3   28 1
     4    4   33 2
     5    5   33 1
     6    7    1 2
     7    8    9 1
     8   10    8 2
     9   11   10 1
    10   12   10 1
    11   13   12 1
    12   14   12 2
    13   15   14 1
    14   16   15 1
    15   17   15 1
    16   18    8 1
    17   19   18 ar
    18   20   19 1
    19   21   19 ar
    20   22   21 1
    21   23    1 1
    22   24   23 ar
    23   25   24 1
    24   26   18 ar
    25   27   26 1
    26   28   14 1
    27   29    3 1
    28   30   29 1
    29   31   29 1
    30   32   29 1
    31   33   15 1
    32   34    5 1
    33   35   34 1
    34   36   34 1
    35   37   36 1
    36   38   36 1
    37   39   36 1
    38   40   34 1
    39   41   40 1
    40   42   40 1
    41   43   40 1
    42   21   23 ar
    43   24   26 ar
@<TRIPOS>SUBSTRUCTURE
     1 RES1 1

@<TRIPOS>CRYSIN
   7.9346    8.2991   14.4490  90.7870  97.9430 112.0110   2 1

