# MOL2 file generated by ConQuest
# Please check atom types

@<TRIPOS>MOLECULE
BENZIF
    47    43     2
SMALL
NO_CHARGES
****
Generated from CSD

@<TRIPOS>ATOM
      1 N1         3.9047    3.5734    8.2671 N.pl3     1 RES1    0.0000
      2 O1         2.8029    3.1138    8.0487 O.2       1 RES1    0.0000
      3 O2         4.1467    4.2837    9.2293 O.2       1 RES1    0.0000
      4 O3        11.8210    2.6392    1.1780 O.2       1 RES1    0.0000
      5 O4        13.6437    2.6083    2.4725 O.3       1 RES1    0.0000
      6 O5        12.8057    5.3228    3.7570 O.2       1 RES1    0.0000
      7 O6        13.9406    4.8153    5.5188 O.3       1 RES1    0.0000
      8 C1        11.5991    2.8261    3.5564 C.2       1 RES1    0.0000
      9 C2        10.2825    2.6124    3.5475 C.2       1 RES1    0.0000
     10 H1         9.9204    2.3200    2.7423 H         1 RES1    0.0000
     11 C3         9.3578    2.7803    4.6349 C.2       1 RES1    0.0000
     12 H2         9.6936    3.0392    5.4624 H         1 RES1    0.0000
     13 C4         8.0434    2.5816    4.5131 C.2       1 RES1    0.0000
     14 H3         7.7493    2.2611    3.6916 H         1 RES1    0.0000
     15 C5         7.0176    2.8097    5.5172 C.ar      1 RES1    0.0000
     16 C6         5.6868    2.5145    5.1979 C.ar      1 RES1    0.0000
     17 H4         5.4858    2.1686    4.3586 H         1 RES1    0.0000
     18 C7         4.6764    2.7261    6.0997 C.ar      1 RES1    0.0000
     19 H5         3.7969    2.5111    5.8828 H         1 RES1    0.0000
     20 C8         4.9792    3.2604    7.3267 C.ar      1 RES1    0.0000
     21 C9         6.2801    3.5652    7.6788 C.ar      1 RES1    0.0000
     22 H6         6.4687    3.9303    8.5122 H         1 RES1    0.0000
     23 C10        7.2843    3.3248    6.7875 C.ar      1 RES1    0.0000
     24 H7         8.1627    3.5077    7.0296 H         1 RES1    0.0000
     25 C11       12.3236    2.6802    2.2699 C.2       1 RES1    0.0000
     26 C12       14.5346    2.6213    1.3117 C.3       1 RES1    0.0000
     27 H8        14.0397    2.2885    0.5333 H         1 RES1    0.0000
     28 C13       14.9601    4.0104    1.0458 C.3       1 RES1    0.0000
     29 H9        14.1997    4.5338    0.7844 H         1 RES1    0.0000
     30 H10       15.6113    4.0159    0.3387 H         1 RES1    0.0000
     31 H11       15.3502    4.3844    1.8391 H         1 RES1    0.0000
     32 C14       15.6292    1.6727    1.6222 C.3       1 RES1    0.0000
     33 H12       16.1083    1.9782    2.3962 H         1 RES1    0.0000
     34 H13       16.2273    1.6206    0.8750 H         1 RES1    0.0000
     35 H14       15.2599    0.8041    1.7975 H         1 RES1    0.0000
     36 C15       12.3937    3.2186    4.7790 C.3       1 RES1    0.0000
     37 H15       13.0657    2.5412    4.9513 H         1 RES1    0.0000
     38 H16       11.8010    3.2495    5.5456 H         1 RES1    0.0000
     39 C16       13.0707    4.5570    4.6260 C.2       1 RES1    0.0000
     40 C17       14.4132    6.3215    5.4564 C.3       1 RES1    0.0000
     41 H17       15.1365    6.4044    4.8295 H         1 RES1    0.0000
     42 H18       14.7061    6.6010    6.3255 H         1 RES1    0.0000
     43 H19       13.6808    6.8743    5.1742 H         1 RES1    0.0000
     44 C18       13.4565    6.4694    4.0348 Du        2 SUP2    0.0000
     45 H20       13.0442    6.8969    4.7894 Du        2 SUP2    0.0000
     46 H21       13.4173    7.0537    3.2742 Du        2 SUP2    0.0000
     47 H22       14.3748    6.2749    4.2398 Du        2 SUP2    0.0000
@<TRIPOS>BOND
     1    1    2 2
     2    3    1 2
     3    4   25 2
     4    5   25 1
     5    6   39 2
     6    7   39 1
     7    8    9 2
     8    9   10 1
     9   11    9 1
    10   12   11 1
    11   13   11 2
    12   14   13 1
    13   15   13 1
    14   16   15 ar
    15   17   16 1
    16   18   16 ar
    17   19   18 1
    18   20    1 1
    19   21   20 ar
    20   22   21 1
    21   23   15 ar
    22   24   23 1
    23   25    8 1
    24   26    5 1
    25   27   26 1
    26   28   26 1
    27   29   28 1
    28   30   28 1
    29   31   28 1
    30   32   26 1
    31   33   32 1
    32   34   32 1
    33   35   32 1
    34   36    8 1
    35   37   36 1
    36   38   36 1
    37   39   36 1
    38   40    7 1
    39   41   40 1
    40   42   40 1
    41   43   40 1
    42   18   20 ar
    43   21   23 ar
@<TRIPOS>SUBSTRUCTURE
     1 RES1 1
     2 SUP2 44

@<TRIPOS>CRYSIN
  34.0430    6.8496   15.1600  90.0000 101.5030  90.0000  15 1

