# MOL2 file generated by ConQuest
# Please check atom types

@<TRIPOS>MOLECULE
BENZOK
    18    18     1
SMALL
NO_CHARGES
****
Generated from CSD

@<TRIPOS>ATOM
      1 C1         0.1292    0.6782    3.7417 C.2       1 RES1    0.0000
      2 C2         1.3555    0.0639    3.4501 C.2       1 RES1    0.0000
      3 H1         1.7879   -0.4165    4.1629 H         1 RES1    0.0000
      4 C3         1.8862    0.1133    2.1765 C.2       1 RES1    0.0000
      5 C4         1.1934    0.7980    1.1696 C.2       1 RES1    0.0000
      6 H2         1.5430    0.8479    0.3469 H         1 RES1    0.0000
      7 C5         0.0029    1.3802    1.4686 C.2       1 RES1    0.0000
      8 H3        -0.5301    1.8369    0.8012 H         1 RES1    0.0000
      9 C6         3.1997   -0.5549    1.8741 C.3       1 RES1    0.0000
     10 H4         3.5055   -1.1051    2.6266 H         1 RES1    0.0000
     11 H5         3.1265   -1.1578    1.1398 H         1 RES1    0.0000
     12 H6         3.8446    0.0954    1.6354 H         1 RES1    0.0000
     13 N1        -0.5004    1.3108    2.7125 N.pl3     1 RES1    0.0000
     14 H7        -1.3137    1.7059    2.8744 H         1 RES1    0.0000
     15 N2        -0.6068    0.8092    4.8914 N.2       1 RES1    0.0000
     16 N3        -0.1531    0.2696    6.0313 N.pl3     1 RES1    0.0000
     17 O1        -0.8658    0.5047    7.0283 O.2       1 RES1    0.0000
     18 O2         0.8771   -0.4189    6.1176 O.2       1 RES1    0.0000
@<TRIPOS>BOND
     1    1    2 1
     2    2    3 1
     3    4    2 2
     4    5    4 1
     5    6    5 1
     6    7    5 2
     7    8    7 1
     8    9    4 1
     9   10    9 1
    10   11    9 1
    11   12    9 1
    12   13    1 1
    13   14   13 1
    14   15    1 2
    15   16   15 1
    16   17   16 2
    17   18   16 2
    18    7   13 1
@<TRIPOS>SUBSTRUCTURE
     1 RES1 1

@<TRIPOS>CRYSIN
   7.0275    6.8034    8.6086 103.6200  90.3090 122.2150   2 1

