# MOL2 file generated by ConQuest
# Please check atom types

@<TRIPOS>MOLECULE
BEOXAZ
     9    10     1
SMALL
NO_CHARGES
****
Generated from CSD

@<TRIPOS>ATOM
      1 O1         0.0218    2.2815   -0.0105 O.3       1 RES1    0.0000
      2 N1         0.3230    1.2344    0.4742 N.2       1 RES1    0.0000
      3 N2         0.9573    2.8490   -0.4988 N.2       1 RES1    0.0000
      4 C1         1.6146    0.9477    0.3337 C.2       1 RES1    0.0000
      5 C2         2.5212   -0.0994    0.7342 C.2       1 RES1    0.0000
      6 C3         3.8609    0.0351    0.3583 C.2       1 RES1    0.0000
      7 C4         4.3246    1.1993   -0.3267 C.2       1 RES1    0.0000
      8 C5         3.4519    2.2523   -0.6850 C.2       1 RES1    0.0000
      9 C6         2.0666    2.1353   -0.3478 C.2       1 RES1    0.0000
@<TRIPOS>BOND
     1    1    2 1
     2    2    4 2
     3    3    1 1
     4    4    5 1
     5    5    6 2
     6    6    7 1
     7    7    8 2
     8    8    9 1
     9    9    3 2
    10    4    9 1
@<TRIPOS>SUBSTRUCTURE
     1 RES1 1

@<TRIPOS>CRYSIN
  13.4600    5.8500    3.9000  90.0000  64.2500  90.0000   7 2

