# MOL2 file generated by ConQuest
# Please check atom types

@<TRIPOS>MOLECULE
BERCOT
    31    32     1
SMALL
NO_CHARGES
****
Generated from CSD

@<TRIPOS>ATOM
      1 C1         1.7015    6.0849    2.1650 C.2       1 RES1    0.0000
      2 O1         1.2026    4.9754    1.9929 O.2       1 RES1    0.0000
      3 N1         0.9024    7.2051    2.0028 N.am      1 RES1    0.0000
      4 C2        -0.5040    6.9700    1.6479 C.3       1 RES1    0.0000
      5 H1        -0.9517    7.8297    1.5011 H         1 RES1    0.0000
      6 H2        -0.9492    6.4905    2.3771 H         1 RES1    0.0000
      7 H3        -0.5492    6.4344    0.8286 H         1 RES1    0.0000
      8 C3         1.3671    8.4912    2.1416 C.2       1 RES1    0.0000
      9 H4         0.7737    9.2169    1.9856 H         1 RES1    0.0000
     10 C4         2.6404    8.7506    2.4930 C.2       1 RES1    0.0000
     11 H5         2.9378    9.6487    2.5826 H         1 RES1    0.0000
     12 C5         3.5408    7.6697    2.7304 C.ar      1 RES1    0.0000
     13 C6         4.8688    7.9153    3.1668 C.ar      1 RES1    0.0000
     14 O2         5.1929    9.2370    3.3028 O.3       1 RES1    0.0000
     15 C7         6.5688    9.5445    3.5727 C.3       1 RES1    0.0000
     16 H6         6.8312    9.1445    4.4279 H         1 RES1    0.0000
     17 H7         6.6836   10.5165    3.6174 H         1 RES1    0.0000
     18 H8         7.1310    9.1817    2.8564 H         1 RES1    0.0000
     19 C8         5.7270    6.8831    3.4324 C.ar      1 RES1    0.0000
     20 H9         6.5988    7.0465    3.7732 H         1 RES1    0.0000
     21 C9         5.2792    5.5789    3.1859 C.ar      1 RES1    0.0000
     22 N2         6.2653    4.5108    3.4388 N.pl3     1 RES1    0.0000
     23 O3         6.8916    4.5711    4.4951 O.2       1 RES1    0.0000
     24 O4         6.4285    3.6400    2.5951 O.2       1 RES1    0.0000
     25 C10        4.0229    5.2645    2.7339 C.ar      1 RES1    0.0000
     26 O5         3.6650    3.9537    2.5993 O.3       1 RES1    0.0000
     27 C11        3.6980    3.4522    1.2540 C.3       1 RES1    0.0000
     28 H10        3.0231    3.9164    0.7155 H         1 RES1    0.0000
     29 H11        3.5062    2.4907    1.2588 H         1 RES1    0.0000
     30 H12        4.5856    3.6061    0.8689 H         1 RES1    0.0000
     31 C12        3.0964    6.3369    2.5327 C.ar      1 RES1    0.0000
@<TRIPOS>BOND
     1    1    2 2
     2    3    1 1
     3    4    3 1
     4    5    4 1
     5    6    4 1
     6    7    4 1
     7    8    3 1
     8    9    8 1
     9   10    8 2
    10   11   10 1
    11   12   10 1
    12   13   12 ar
    13   14   13 1
    14   15   14 1
    15   16   15 1
    16   17   15 1
    17   18   15 1
    18   19   13 ar
    19   20   19 1
    20   21   19 ar
    21   22   21 1
    22   23   22 2
    23   24   22 2
    24   25   21 ar
    25   26   25 1
    26   27   26 1
    27   28   27 1
    28   29   27 1
    29   30   27 1
    30   31    1 1
    31   12   31 ar
    32   25   31 ar
@<TRIPOS>SUBSTRUCTURE
     1 RES1 1

@<TRIPOS>CRYSIN
  15.7383   10.5862    7.0845  90.0000  90.0230  90.0000  14 1

