# MOL2 file generated by ConQuest
# Please check atom types

@<TRIPOS>MOLECULE
BERDAG
    33    34     1
SMALL
NO_CHARGES
****
Generated from CSD

@<TRIPOS>ATOM
      1 C1         7.6938    4.2994   12.9184 C.2       1 RES1    0.0000
      2 O1         8.5982    3.5082   13.1721 O.2       1 RES1    0.0000
      3 N1         7.8631    5.1645   11.8502 N.am      1 RES1    0.0000
      4 C2         9.1357    5.0621   11.1329 C.3       1 RES1    0.0000
      5 H1         9.1980    5.7841   10.4724 H         1 RES1    0.0000
      6 H2         9.1843    4.1967   10.6750 H         1 RES1    0.0000
      7 H3         9.8774    5.1370   11.7688 H         1 RES1    0.0000
      8 C3         6.9511    6.1079   11.4949 C.2       1 RES1    0.0000
      9 H4         7.1459    6.7130   10.7894 H         1 RES1    0.0000
     10 C4         5.7654    6.1860   12.1427 C.2       1 RES1    0.0000
     11 N2         4.9945    7.3871   11.8303 N.pl3     1 RES1    0.0000
     12 O2         4.9120    7.7241   10.6548 O.2       1 RES1    0.0000
     13 O3         4.5190    8.0368   12.7635 O.2       1 RES1    0.0000
     14 C5         5.4126    5.2850   13.1976 C.ar      1 RES1    0.0000
     15 C6         4.1107    5.1593   13.7687 C.ar      1 RES1    0.0000
     16 O4         3.1259    5.8353   13.1124 O.3       1 RES1    0.0000
     17 C7         1.8675    5.9748   13.7921 C.3       1 RES1    0.0000
     18 H5         1.4341    5.0989   13.8605 H         1 RES1    0.0000
     19 H6         1.2905    6.5870   13.2897 H         1 RES1    0.0000
     20 H7         2.0201    6.3347   14.6915 H         1 RES1    0.0000
     21 C8         3.8968    4.3522   14.8504 C.ar      1 RES1    0.0000
     22 H8         3.0279    4.3038   15.2311 H         1 RES1    0.0000
     23 C9         4.9381    3.5937   15.4100 C.ar      1 RES1    0.0000
     24 N3         4.7318    2.7909   16.5015 N.3       1 RES1    0.0000
     25 C10        6.1704    3.5726   14.7571 C.ar      1 RES1    0.0000
     26 O5         7.1335    2.7296   15.2857 O.3       1 RES1    0.0000
     27 C11        7.0977    1.4282   14.6906 C.3       1 RES1    0.0000
     28 H9         6.2901    0.9570   14.9839 H         1 RES1    0.0000
     29 H10        7.8899    0.9216   14.9662 H         1 RES1    0.0000
     30 H11        7.0888    1.5157   13.7147 H         1 RES1    0.0000
     31 C12        6.4169    4.4008   13.6537 C.ar      1 RES1    0.0000
     32 H12        5.4723    2.5564   16.9133 H         1 RES1    0.0000
     33 H13        4.0825    3.0001   17.0481 H         1 RES1    0.0000
@<TRIPOS>BOND
     1    1    2 2
     2    3    1 1
     3    4    3 1
     4    5    4 1
     5    6    4 1
     6    7    4 1
     7    8    3 1
     8    9    8 1
     9   10    8 2
    10   11   10 1
    11   12   11 2
    12   13   11 2
    13   14   10 1
    14   15   14 ar
    15   16   15 1
    16   17   16 1
    17   18   17 1
    18   19   17 1
    19   20   17 1
    20   21   15 ar
    21   22   21 1
    22   23   21 ar
    23   24   23 1
    24   25   23 ar
    25   26   25 1
    26   27   26 1
    27   28   27 1
    28   29   27 1
    29   30   27 1
    30   31    1 1
    31   32   24 1
    32   33   24 1
    33   14   31 ar
    34   25   31 ar
@<TRIPOS>SUBSTRUCTURE
     1 RES1 1

@<TRIPOS>CRYSIN
  10.8577   10.5636   21.3930  90.0000  90.0000  90.0000  61 1

