# MOL2 file generated by ConQuest
# Please check atom types

@<TRIPOS>MOLECULE
BERMAM
    11    10     1
SMALL
NO_CHARGES
****
Generated from CSD

@<TRIPOS>ATOM
      1 O1         1.4711    1.3925    1.9274 O.2       1 RES1    0.0000
      2 O2         1.3330    2.7728    3.6753 O.3       1 RES1    0.0000
      3 O3         1.5064    5.9264    1.0872 O.2       1 RES1    0.0000
      4 O4         1.4393    5.2985    3.1447 O.2       1 RES1    0.0000
      5 N1         1.4427    5.0172    1.9405 N.pl3     1 RES1    0.0000
      6 N2         1.6547    4.2315   -0.8966 N.3       1 RES1    0.0000
      7 C1         1.4813    3.6898    1.4685 C.2       1 RES1    0.0000
      8 C2         1.5699    3.4095    0.1079 C.2       1 RES1    0.0000
      9 C3         1.4308    2.5102    2.3802 C.2       1 RES1    0.0000
     10 C4         1.3443    1.6021    4.5063 C.3       1 RES1    0.0000
     11 C5         1.7405    3.7979   -2.2814 C.3       1 RES1    0.0000
@<TRIPOS>BOND
     1    1    9 2
     2    2    9 1
     3    3    5 2
     4    4    5 2
     5    5    7 1
     6    6    8 1
     7    7    8 2
     8    9    7 1
     9   10    2 1
    10   11    6 1
@<TRIPOS>SUBSTRUCTURE
     1 RES1 1

@<TRIPOS>CRYSIN
   6.3360   11.0340   10.0950  90.0000  92.4500  90.0000  14 2

