# MOL2 file generated by ConQuest
# Please check atom types

@<TRIPOS>MOLECULE
BERYIJ
    64    67     1
SMALL
NO_CHARGES
****
Generated from CSD

@<TRIPOS>ATOM
      1 O1         4.4931    2.5323   -0.6122 O.2       1 RES1    0.0000
      2 O2         6.2538    2.3161   -1.8636 O.2       1 RES1    0.0000
      3 O3         4.3118    6.3602    2.5736 O.2       1 RES1    0.0000
      4 N1         5.6251    2.8498   -0.9604 N.pl3     1 RES1    0.0000
      5 N2         6.2327    6.6113    3.7605 N.am      1 RES1    0.0000
      6 N3         7.4998    5.9716    1.2014 N.ar      1 RES1    0.0000
      7 C1         5.5298    6.2088    2.6740 C.2       1 RES1    0.0000
      8 C2         6.2703    5.5471    1.5299 C.ar      1 RES1    0.0000
      9 C3         6.2727    3.9552   -0.2185 C.ar      1 RES1    0.0000
     10 C4         7.6031    6.2474    4.0049 C.ar      1 RES1    0.0000
     11 C5         5.5948    4.5450    0.8295 C.ar      1 RES1    0.0000
     12 H1         4.7122    4.2822    1.0623 H         1 RES1    0.0000
     13 C6         8.1184    5.3808    0.1661 C.ar      1 RES1    0.0000
     14 C7         7.5476    4.3470   -0.5829 C.ar      1 RES1    0.0000
     15 H2         8.0114    3.9365   -1.3039 H         1 RES1    0.0000
     16 C8         8.5901    7.2290    4.0406 C.ar      1 RES1    0.0000
     17 H3         8.3599    8.1444    3.9295 H         1 RES1    0.0000
     18 C9         7.9281    4.9130    4.2289 C.ar      1 RES1    0.0000
     19 H4         7.2466    4.2518    4.2465 H         1 RES1    0.0000
     20 C10        9.2597    4.5530    4.4269 C.ar      1 RES1    0.0000
     21 H5         9.4875    3.6415    4.5661 H         1 RES1    0.0000
     22 C11        5.4901    7.2311    4.8795 C.3       1 RES1    0.0000
     23 H6         5.9694    7.0465    5.7255 H         1 RES1    0.0000
     24 H7         4.5947    6.8146    4.9419 H         1 RES1    0.0000
     25 C12        9.9188    6.8579    4.2407 C.ar      1 RES1    0.0000
     26 H8        10.5974    7.5228    4.2529 H         1 RES1    0.0000
     27 C13       10.2563    5.5237    4.4211 C.ar      1 RES1    0.0000
     28 H9        11.1652    5.2742    4.5405 H         1 RES1    0.0000
     29 C14        5.3278    8.7308    4.7204 C.3       1 RES1    0.0000
     30 H10        4.8981    9.0992    5.5197 H         1 RES1    0.0000
     31 H11        4.7717    8.9179    3.9346 H         1 RES1    0.0000
     32 H12        6.2082    9.1442    4.6032 H         1 RES1    0.0000
     33 O1B       13.1083    8.7277    0.6122 O.2       1 RES1    0.0000
     34 O2B       11.3476    8.9439    1.8636 O.2       1 RES1    0.0000
     35 O3B       13.2896    4.8998   -2.5736 O.2       1 RES1    0.0000
     36 N1B       11.9763    8.4102    0.9604 N.pl3     1 RES1    0.0000
     37 N2B       11.3687    4.6487   -3.7605 N.am      1 RES1    0.0000
     38 N3B       10.1016    5.2884   -1.2014 N.ar      1 RES1    0.0000
     39 C1B       12.0716    5.0512   -2.6740 C.2       1 RES1    0.0000
     40 C2B       11.3311    5.7129   -1.5299 C.ar      1 RES1    0.0000
     41 C3B       11.3287    7.3048    0.2185 C.ar      1 RES1    0.0000
     42 C4B        9.9983    5.0126   -4.0049 C.ar      1 RES1    0.0000
     43 C5B       12.0066    6.7150   -0.8295 C.ar      1 RES1    0.0000
     44 H1B       12.8892    6.9778   -1.0623 H         1 RES1    0.0000
     45 C6B        9.4830    5.8792   -0.1661 C.ar      1 RES1    0.0000
     46 C7B       10.0538    6.9130    0.5829 C.ar      1 RES1    0.0000
     47 H2B        9.5900    7.3235    1.3039 H         1 RES1    0.0000
     48 C8B        9.0113    4.0310   -4.0406 C.ar      1 RES1    0.0000
     49 H3B        9.2415    3.1156   -3.9295 H         1 RES1    0.0000
     50 C9B        9.6733    6.3470   -4.2289 C.ar      1 RES1    0.0000
     51 H4B       10.3548    7.0082   -4.2465 H         1 RES1    0.0000
     52 C10B       8.3417    6.7070   -4.4269 C.ar      1 RES1    0.0000
     53 H5B        8.1139    7.6185   -4.5661 H         1 RES1    0.0000
     54 C11B      12.1113    4.0289   -4.8795 C.3       1 RES1    0.0000
     55 H6B       11.6320    4.2135   -5.7255 H         1 RES1    0.0000
     56 H7B       13.0067    4.4454   -4.9419 H         1 RES1    0.0000
     57 C12B       7.6826    4.4021   -4.2407 C.ar      1 RES1    0.0000
     58 H8B        7.0040    3.7372   -4.2529 H         1 RES1    0.0000
     59 C13B       7.3451    5.7363   -4.4211 C.ar      1 RES1    0.0000
     60 H9B        6.4362    5.9858   -4.5405 H         1 RES1    0.0000
     61 C14B      12.2736    2.5292   -4.7204 C.3       1 RES1    0.0000
     62 H10B      12.7033    2.1608   -5.5197 H         1 RES1    0.0000
     63 H11B      12.8297    2.3421   -3.9346 H         1 RES1    0.0000
     64 H12B      11.3932    2.1158   -4.6032 H         1 RES1    0.0000
@<TRIPOS>BOND
     1    1    4 2
     2    2    4 2
     3    3    7 2
     4    4    9 1
     5    5    7 1
     6    6    8 ar
     7    7    8 1
     8    8   11 ar
     9    9   11 ar
    10   10    5 1
    11   11   12 1
    12   13    6 ar
    13   14    9 ar
    14   15   14 1
    15   16   10 ar
    16   17   16 1
    17   18   10 ar
    18   19   18 1
    19   20   18 ar
    20   21   20 1
    21   22    5 1
    22   23   22 1
    23   24   22 1
    24   25   16 ar
    25   26   25 1
    26   27   20 ar
    27   28   27 1
    28   29   22 1
    29   30   29 1
    30   31   29 1
    31   32   29 1
    32   33   36 2
    33   34   36 2
    34   35   39 2
    35   36   41 1
    36   37   39 1
    37   38   40 ar
    38   39   40 1
    39   40   43 ar
    40   41   43 ar
    41   42   37 1
    42   43   44 1
    43   45   13 1
    44   46   41 ar
    45   47   46 1
    46   48   42 ar
    47   49   48 1
    48   50   42 ar
    49   51   50 1
    50   52   50 ar
    51   53   52 1
    52   54   37 1
    53   55   54 1
    54   56   54 1
    55   57   48 ar
    56   58   57 1
    57   59   52 ar
    58   60   59 1
    59   61   54 1
    60   62   61 1
    61   63   61 1
    62   64   61 1
    63   13   14 ar
    64   25   27 ar
    65   38   45 ar
    66   45   46 ar
    67   57   59 ar
@<TRIPOS>SUBSTRUCTURE
     1 RES1 1

@<TRIPOS>CRYSIN
   8.8007   11.2600   13.0799  90.0000 102.2300  90.0000  14 1

