# MOL2 file generated by ConQuest
# Please check atom types

@<TRIPOS>MOLECULE
BESGUB
    32    33     1
SMALL
NO_CHARGES
****
Generated from CSD

@<TRIPOS>ATOM
      1 O1         4.0304    4.1926   -0.2796 O.2       1 RES1    0.0000
      2 O2         5.3994    3.6238    1.2823 O.2       1 RES1    0.0000
      3 O3         1.3161    7.3168    0.0974 O.2       1 RES1    0.0000
      4 O4         2.6583    1.5464    1.1118 O.2       1 RES1    0.0000
      5 O5         0.8842    0.7343    2.1953 O.3       1 RES1    0.0000
      6 N1         4.3093    4.0055    0.9003 N.pl3     1 RES1    0.0000
      7 C1         3.5838    5.7682    2.4613 C.3       1 RES1    0.0000
      8 C2         3.2922    4.3472    1.9614 C.3       1 RES1    0.0000
      9 C3         1.8481    4.2207    1.4742 C.3       1 RES1    0.0000
     10 C4         1.1063    5.5595    1.7110 C.3       1 RES1    0.0000
     11 C5         1.8378    6.6257    0.9471 C.2       1 RES1    0.0000
     12 C6         3.2656    6.7804    1.3651 C.3       1 RES1    0.0000
     13 C7         2.6543    5.9931    3.6530 C.3       1 RES1    0.0000
     14 C8         1.2012    5.9553    3.1989 C.3       1 RES1    0.0000
     15 C9         1.1008    3.0614    2.1388 C.3       1 RES1    0.0000
     16 C10        1.6627    1.7238    1.7471 C.2       1 RES1    0.0000
     17 C11        1.3444   -0.6110    1.9429 C.3       1 RES1    0.0000
     18 H1         4.4517    5.8071    2.6698 H         1 RES1    0.0000
     19 H2         3.5307    3.7525    2.6601 H         1 RES1    0.0000
     20 H3         1.9846    4.0120    0.5457 H         1 RES1    0.0000
     21 H4         0.3048    5.4503    1.3836 H         1 RES1    0.0000
     22 H5         3.6946    6.6182    0.5651 H         1 RES1    0.0000
     23 H6         3.3541    7.7320    1.7344 H         1 RES1    0.0000
     24 H7         2.6999    5.2989    4.2970 H         1 RES1    0.0000
     25 H8         2.7773    6.8993    4.0534 H         1 RES1    0.0000
     26 H9         0.7138    6.8669    3.3129 H         1 RES1    0.0000
     27 H10        0.5561    5.2989    3.7709 H         1 RES1    0.0000
     28 H11        1.3702    3.0604    3.2447 H         1 RES1    0.0000
     29 H12        0.0833    3.0928    1.7929 H         1 RES1    0.0000
     30 H13        0.8212   -1.0922    2.4749 H         1 RES1    0.0000
     31 H14        2.2670   -0.7354    2.1729 H         1 RES1    0.0000
     32 H15        1.1625   -0.8435    1.1011 H         1 RES1    0.0000
@<TRIPOS>BOND
     1    1    6 2
     2    2    6 2
     3    3   11 2
     4    4   16 2
     5    5   16 1
     6    6    8 1
     7    7    8 1
     8    8    9 1
     9    9   10 1
    10   10   11 1
    11   11   12 1
    12   12    7 1
    13   13    7 1
    14   14   10 1
    15   15    9 1
    16   16   15 1
    17   17    5 1
    18   18    7 1
    19   19    8 1
    20   20    9 1
    21   21   10 1
    22   22   12 1
    23   23   12 1
    24   24   13 1
    25   25   13 1
    26   26   14 1
    27   27   14 1
    28   28   15 1
    29   29   15 1
    30   30   17 1
    31   31   17 1
    32   32   17 1
    33   13   14 1
@<TRIPOS>SUBSTRUCTURE
     1 RES1 1

@<TRIPOS>CRYSIN
  10.9960   10.8140   10.0990  90.0000 105.2400  90.0000  14 1

