# MOL2 file generated by ConQuest
# Please check atom types

@<TRIPOS>MOLECULE
BETBAF
    38    40     1
SMALL
NO_CHARGES
****
Generated from CSD

@<TRIPOS>ATOM
      1 C1         7.0368   13.6351    2.8456 C.3       1 RES1    0.0000
      2 H1         6.1067   13.6674    3.1378 H         1 RES1    0.0000
      3 C2         7.2386   13.1442    1.4052 C.3       1 RES1    0.0000
      4 H2         7.9305   12.5020    1.3715 H         1 RES1    0.0000
      5 C3         7.8392   14.3694    0.6505 C.3       1 RES1    0.0000
      6 H3         8.3180   14.1030   -0.1292 H         1 RES1    0.0000
      7 C4         6.7839   15.3760    0.2528 C.2       1 RES1    0.0000
      8 O1         6.6227   15.7293   -0.9075 O.2       1 RES1    0.0000
      9 C5         5.9177   15.8996    1.3707 C.3       1 RES1    0.0000
     10 H4         5.5178   16.7223    1.0842 H         1 RES1    0.0000
     11 H5         5.1974   15.2351    1.5007 H         1 RES1    0.0000
     12 C6         6.6970   16.1176    2.6848 C.3       1 RES1    0.0000
     13 H6         7.1194   17.0107    2.6496 H         1 RES1    0.0000
     14 H7         6.1067   16.1415    3.4681 H         1 RES1    0.0000
     15 C7         7.7488   15.0308    2.9310 C.3       1 RES1    0.0000
     16 O2         8.4492   15.2459    4.1385 O.3       1 RES1    0.0000
     17 H8         7.8840   15.3901    4.7462 H         1 RES1    0.0000
     18 C8         8.7244   14.9922    1.7499 C.3       1 RES1    0.0000
     19 H9         9.5269   14.4012    1.9387 H         1 RES1    0.0000
     20 H10        9.0516   15.9277    1.5151 H         1 RES1    0.0000
     21 N1         7.6772   12.7092    3.8480 N.pl3     1 RES1    0.0000
     22 O3         7.0904   12.5722    4.9064 O.2       1 RES1    0.0000
     23 O4         8.7570   12.2002    3.5952 O.2       1 RES1    0.0000
     24 C9         6.0639   12.4669    0.7604 C.2       1 RES1    0.0000
     25 H11        6.1274   12.3509   -0.1292 H         1 RES1    0.0000
     26 C10        5.0341   11.9254    1.3952 C.2       1 RES1    0.0000
     27 H12        4.9805   12.0036    2.3049 H         1 RES1    0.0000
     28 C11        3.9275   11.1570    0.7985 C.ar      1 RES1    0.0000
     29 C12        3.8759   10.8484   -0.5716 C.ar      1 RES1    0.0000
     30 H13        4.6291   11.1560   -1.1560 H         1 RES1    0.0000
     31 C13        2.8178   10.0903   -1.0778 C.ar      1 RES1    0.0000
     32 H14        2.7868    9.8866   -2.0055 H         1 RES1    0.0000
     33 C14        1.8186    9.6337   -0.2456 C.ar      1 RES1    0.0000
     34 H15        1.0953    9.1175   -0.6391 H         1 RES1    0.0000
     35 C15        1.8579    9.9339    1.1029 C.ar      1 RES1    0.0000
     36 H16        1.2399    9.6728    1.6946 H         1 RES1    0.0000
     37 C16        2.9077   10.6924    1.6256 C.ar      1 RES1    0.0000
     38 H17        2.9035   10.9775    2.5921 H         1 RES1    0.0000
@<TRIPOS>BOND
     1    1    2 1
     2    3    1 1
     3    4    3 1
     4    5    3 1
     5    6    5 1
     6    7    5 1
     7    8    7 2
     8    9    7 1
     9   10    9 1
    10   11    9 1
    11   12    9 1
    12   13   12 1
    13   14   12 1
    14   15    1 1
    15   16   15 1
    16   17   16 1
    17   18    5 1
    18   19   18 1
    19   20   18 1
    20   21    1 1
    21   22   21 2
    22   23   21 2
    23   24    3 1
    24   25   24 1
    25   26   24 2
    26   27   26 1
    27   28   26 1
    28   29   28 ar
    29   30   29 1
    30   31   29 ar
    31   32   31 1
    32   33   31 ar
    33   34   33 1
    34   35   33 ar
    35   36   35 1
    36   37   28 ar
    37   38   37 1
    38   12   15 1
    39   15   18 1
    40   35   37 ar
@<TRIPOS>SUBSTRUCTURE
     1 RES1 1

@<TRIPOS>CRYSIN
  10.3329   19.6202    7.1804  90.0000  90.0000  90.0000  18 1

