# MOL2 file generated by ConQuest
# Please check atom types

@<TRIPOS>MOLECULE
BETDIN
    27    28     1
SMALL
NO_CHARGES
****
Generated from CSD

@<TRIPOS>ATOM
      1 C1         4.1530    7.4040    7.1560 C.ar      1 RES1    0.0000
      2 C2         3.0281    3.8199   10.2499 C.3       1 RES1    0.0000
      3 C3         4.0853    6.8533    8.4539 C.ar      1 RES1    0.0000
      4 C4         4.5375    7.6182    9.5244 C.ar      1 RES1    0.0000
      5 C5         5.0617    8.8837    9.3424 C.ar      1 RES1    0.0000
      6 C6         5.1363    9.4074    8.0635 C.ar      1 RES1    0.0000
      7 C7         4.6891    8.6641    6.9830 C.ar      1 RES1    0.0000
      8 C8         3.6334    6.6940    5.9577 C.2       1 RES1    0.0000
      9 O1         2.3051    6.7353    5.8309 O.3       1 RES1    0.0000
     10 C9         1.7750    5.8651    4.8066 C.3       1 RES1    0.0000
     11 C10        2.6780    5.8886    3.6482 C.3       1 RES1    0.0000
     12 O2         3.9950    5.5768    3.9697 O.3       1 RES1    0.0000
     13 N1         4.4895    6.1993    5.1480 N.2       1 RES1    0.0000
     14 C11        0.3810    6.3235    4.5113 C.3       1 RES1    0.0000
     15 O3        -0.3889    6.2503    5.6380 O.3       1 RES1    0.0000
     16 C12        3.5461    5.4785    8.6522 C.2       1 RES1    0.0000
     17 O4         3.1649    4.7515    7.7927 O.2       1 RES1    0.0000
     18 O5         3.5443    5.1351    9.9456 O.3       1 RES1    0.0000
     19 H1         4.5223    7.2445   10.4066 H         1 RES1    0.0000
     20 H2         5.3594    9.3779   10.0986 H         1 RES1    0.0000
     21 H3         5.5165   10.3174    7.9249 H         1 RES1    0.0000
     22 H4         4.7505    9.0134    6.0501 H         1 RES1    0.0000
     23 H5         1.7979    4.8622    5.1806 H         1 RES1    0.0000
     24 H6         2.4280    5.2154    3.0251 H         1 RES1    0.0000
     25 H7         2.6373    6.8767    3.3058 H         1 RES1    0.0000
     26 H8         0.3573    7.2742    4.2387 H         1 RES1    0.0000
     27 H9        -0.0768    5.7178    3.8764 H         1 RES1    0.0000
@<TRIPOS>BOND
     1    1    3 ar
     2    2   18 1
     3    3    4 ar
     4    4    5 ar
     5    5    6 ar
     6    6    7 ar
     7    7    1 ar
     8    8    1 1
     9    9    8 1
    10   10    9 1
    11   11   10 1
    12   12   11 1
    13   13    8 2
    14   14   10 1
    15   15   14 1
    16   16    3 1
    17   17   16 2
    18   18   16 1
    19   19    4 1
    20   20    5 1
    21   21    6 1
    22   22    7 1
    23   23   10 1
    24   24   11 1
    25   25   11 1
    26   26   14 1
    27   27   14 1
    28   12   13 1
@<TRIPOS>SUBSTRUCTURE
     1 RES1 1

@<TRIPOS>CRYSIN
   7.6380    9.1510    9.6240  84.6800  70.3500  68.0400   2 1

