# MOL2 file generated by ConQuest
# Please check atom types

@<TRIPOS>MOLECULE
BETJIW
    36    40     1
SMALL
NO_CHARGES
****
Generated from CSD

@<TRIPOS>ATOM
      1 O1        16.4153    0.1662   11.7159 O.3       1 RES1    0.0000
      2 O2        15.4861    3.0478   15.3988 O.2       1 RES1    0.0000
      3 N1        12.8659   -0.6242   16.0182 N.pl3     1 RES1    0.0000
      4 H1        12.4154   -0.9547   16.6725 H         1 RES1    0.0000
      5 N2        13.7567   -1.3445   15.2822 N.2       1 RES1    0.0000
      6 N3        15.1608   -0.7635   13.4380 N.pl3     1 RES1    0.0000
      7 H2        15.4935   -1.5488   13.3272 H         1 RES1    0.0000
      8 N4        16.5241    1.4360   11.0549 N.2       1 RES1    0.0000
      9 N5        13.7292    4.2344   14.5220 N.am      1 RES1    0.0000
     10 H3        13.8537    4.9779   14.9364 H         1 RES1    0.0000
     11 C1        15.5137    3.6332   11.1950 C.3       1 RES1    0.0000
     12 H4        16.1479    3.8114   10.4950 H         1 RES1    0.0000
     13 H5        15.6639    4.2399   11.9235 H         1 RES1    0.0000
     14 H6        14.6236    3.7529   10.8580 H         1 RES1    0.0000
     15 C2        15.6805    2.2358   11.6707 C.2       1 RES1    0.0000
     16 C3        15.0117    1.5720   12.7309 C.2       1 RES1    0.0000
     17 C4        13.9718    2.0265   13.7305 C.3       1 RES1    0.0000
     18 C5        12.7656    2.7164   13.1154 C.ar      1 RES1    0.0000
     19 C6        12.6770    3.9990   13.6199 C.ar      1 RES1    0.0000
     20 C7        11.6519    4.8616   13.2492 C.ar      1 RES1    0.0000
     21 H7        11.5932    5.7234   13.5940 H         1 RES1    0.0000
     22 C8        10.7244    4.3771   12.3448 C.ar      1 RES1    0.0000
     23 H8        10.0221    4.9285   12.0824 H         1 RES1    0.0000
     24 C9        14.2077   -0.4577   14.4067 C.2       1 RES1    0.0000
     25 C10       15.5078    0.3096   12.6893 C.2       1 RES1    0.0000
     26 C11       13.6314    0.8071   14.5583 C.2       1 RES1    0.0000
     27 C12       12.7616    0.6582   15.6198 C.2       1 RES1    0.0000
     28 C13       11.8761    1.6434   16.2967 C.3       1 RES1    0.0000
     29 H9        11.4866    1.2418   17.0777 H         1 RES1    0.0000
     30 H10       11.1788    1.9137   15.6944 H         1 RES1    0.0000
     31 H11       12.3913    2.4115   16.5544 H         1 RES1    0.0000
     32 C14       14.5210    3.1466   14.6567 C.2       1 RES1    0.0000
     33 C15       11.8366    2.2509   12.2042 C.ar      1 RES1    0.0000
     34 H12       11.8978    1.3907   11.8564 H         1 RES1    0.0000
     35 C16       10.8044    3.1086   11.8212 C.ar      1 RES1    0.0000
     36 H13       10.1679    2.8207   11.2078 H         1 RES1    0.0000
@<TRIPOS>BOND
     1    1    8 1
     2    2   32 2
     3    3    4 1
     4    5    3 1
     5    6    7 1
     6    8   15 2
     7    9   10 1
     8   11   12 1
     9   13   11 1
    10   14   11 1
    11   15   11 1
    12   16   15 1
    13   17   16 1
    14   18   17 1
    15   19    9 1
    16   20   19 ar
    17   21   20 1
    18   22   20 ar
    19   23   22 1
    20   24    5 2
    21   25    1 1
    22   26   17 1
    23   27    3 1
    24   28   27 1
    25   29   28 1
    26   30   28 1
    27   31   28 1
    28   32    9 1
    29   33   18 ar
    30   34   33 1
    31   35   22 ar
    32   36   35 1
    33    6   24 1
    34    6   25 1
    35   16   25 2
    36   17   32 1
    37   18   19 ar
    38   24   26 1
    39   26   27 2
    40   33   35 ar
@<TRIPOS>SUBSTRUCTURE
     1 RES1 1

@<TRIPOS>CRYSIN
  26.6376    8.3676   17.9706  90.0000 125.7940  90.0000  15 1

