# MOL2 file generated by ConQuest
# Please check atom types

@<TRIPOS>MOLECULE
BETVUR
    37    39     1
SMALL
NO_CHARGES
****
Generated from CSD

@<TRIPOS>ATOM
      1 O1        -0.2669    2.4054    4.5153 O.3       1 RES1    0.0000
      2 C1        -1.1459    1.4344    3.9516 C.3       1 RES1    0.0000
      3 N1        -2.3043    1.9926    3.3065 N.3       1 RES1    0.0000
      4 C2        -3.0161    2.9362    4.1761 C.3       1 RES1    0.0000
      5 C3        -2.0954    3.9620    4.8387 C.3       1 RES1    0.0000
      6 C4        -0.9312    3.2184    5.4949 C.3       1 RES1    0.0000
      7 C5        -1.5928    5.0298    3.8786 C.3       1 RES1    0.0000
      8 C6        -0.5759    5.9629    4.5227 C.3       1 RES1    0.0000
      9 C7         0.5805    5.1815    5.1012 C.3       1 RES1    0.0000
     10 C8         0.1138    4.1410    6.0845 C.3       1 RES1    0.0000
     11 C9        -0.3493    0.5982    2.9849 C.ar      1 RES1    0.0000
     12 C10       -0.9833   -0.3876    2.2364 C.ar      1 RES1    0.0000
     13 C11       -0.2836   -1.1858    1.3677 C.ar      1 RES1    0.0000
     14 C12        1.0731   -0.9857    1.2457 C.ar      1 RES1    0.0000
     15 C13        1.7320   -0.0105    1.9434 C.ar      1 RES1    0.0000
     16 C14        1.0170    0.7688    2.8241 C.ar      1 RES1    0.0000
     17 N2         1.8358   -1.8346    0.3253 N.pl3     1 RES1    0.0000
     18 O2         3.0431   -1.6745    0.2421 O.2       1 RES1    0.0000
     19 O3         1.2239   -2.6792   -0.3290 O.2       1 RES1    0.0000
     20 H1        -1.4772    0.8425    4.7223 H         1 RES1    0.0000
     21 H2        -2.0658    2.4222    2.5506 H         1 RES1    0.0000
     22 H3        -3.6599    3.4122    3.6226 H         1 RES1    0.0000
     23 H4        -3.4926    2.4012    4.8517 H         1 RES1    0.0000
     24 H5        -2.6056    4.4022    5.5355 H         1 RES1    0.0000
     25 H6        -1.3064    2.6118    6.1917 H         1 RES1    0.0000
     26 H7        -1.1654    4.5285    3.1051 H         1 RES1    0.0000
     27 H8        -2.3680    5.4974    3.6041 H         1 RES1    0.0000
     28 H9        -1.0501    6.4874    5.2121 H         1 RES1    0.0000
     29 H10       -0.2586    6.6980    3.9460 H         1 RES1    0.0000
     30 H11        1.2729    5.7713    5.5263 H         1 RES1    0.0000
     31 H12        1.0666    4.7602    4.3711 H         1 RES1    0.0000
     32 H13        0.9094    3.6018    6.3580 H         1 RES1    0.0000
     33 H14       -0.3098    4.6128    6.8755 H         1 RES1    0.0000
     34 H15       -1.9585   -0.5266    2.3473 H         1 RES1    0.0000
     35 H16       -0.7054   -1.8325    0.8040 H         1 RES1    0.0000
     36 H17        2.7053    0.1474    1.8113 H         1 RES1    0.0000
     37 H18        1.4363    1.4323    3.2807 H         1 RES1    0.0000
@<TRIPOS>BOND
     1    1    2 1
     2    2    3 1
     3    3    4 1
     4    4    5 1
     5    5    6 1
     6    6    1 1
     7    7    5 1
     8    8    7 1
     9    9    8 1
    10   10    6 1
    11   11    2 1
    12   12   11 ar
    13   13   12 ar
    14   14   13 ar
    15   15   14 ar
    16   16   11 ar
    17   17   14 1
    18   18   17 2
    19   19   17 2
    20   20    2 1
    21   21    3 1
    22   22    4 1
    23   23    4 1
    24   24    5 1
    25   25    6 1
    26   26    7 1
    27   27    7 1
    28   28    8 1
    29   29    8 1
    30   30    9 1
    31   31    9 1
    32   32   10 1
    33   33   10 1
    34   34   12 1
    35   35   13 1
    36   36   15 1
    37   37   16 1
    38    9   10 1
    39   15   16 ar
@<TRIPOS>SUBSTRUCTURE
     1 RES1 1

@<TRIPOS>CRYSIN
   6.8560   21.0630   10.4490  90.0000 117.8200  90.0000  14 1

