# MOL2 file generated by ConQuest
# Please check atom types

@<TRIPOS>MOLECULE
BETWAY
    37    39     1
SMALL
NO_CHARGES
****
Generated from CSD

@<TRIPOS>ATOM
      1 O1        -0.2993    4.7727    2.8228 O.3       1 RES1    0.0000
      2 C1         0.9895    4.1811    2.9127 C.3       1 RES1    0.0000
      3 N1         1.7925    4.7214    4.0039 N.3       1 RES1    0.0000
      4 C2         1.1244    4.5826    5.3054 C.3       1 RES1    0.0000
      5 C3        -0.3108    5.1766    5.2460 C.3       1 RES1    0.0000
      6 C4        -1.0433    4.5901    4.0392 C.3       1 RES1    0.0000
      7 C5        -0.2919    6.7013    5.2059 C.3       1 RES1    0.0000
      8 C6         0.5620    7.2978    6.3388 C.3       1 RES1    0.0000
      9 C7         1.9878    6.7200    6.3340 C.3       1 RES1    0.0000
     10 C8         1.9597    5.2029    6.3950 C.3       1 RES1    0.0000
     11 C9         1.6943    4.3199    1.5935 C.ar      1 RES1    0.0000
     12 C10        3.0181    3.8934    1.4924 C.ar      1 RES1    0.0000
     13 C11        3.7020    4.0223    0.3081 C.ar      1 RES1    0.0000
     14 C12        3.0497    4.5550   -0.7783 C.ar      1 RES1    0.0000
     15 C13        1.7440    4.9715   -0.7125 C.ar      1 RES1    0.0000
     16 C14        1.0544    4.8427    0.4878 C.ar      1 RES1    0.0000
     17 N2         3.7764    4.6964   -2.0364 N.pl3     1 RES1    0.0000
     18 O2         4.9738    4.4763   -2.0445 O.2       1 RES1    0.0000
     19 O3         3.1656    5.0403   -3.0282 O.2       1 RES1    0.0000
     20 H1         0.8536    3.1368    3.1550 H         1 RES1    0.0000
     21 H2         2.7617    5.1791    3.8691 H         1 RES1    0.0000
     22 H3         1.0251    3.5307    5.5348 H         1 RES1    0.0000
     23 H4        -0.8445    4.9127    6.1479 H         1 RES1    0.0000
     24 H5        -2.0033    5.0741    3.9397 H         1 RES1    0.0000
     25 H6        -1.1889    3.5320    4.2029 H         1 RES1    0.0000
     26 H7         0.1181    7.0189    4.2574 H         1 RES1    0.0000
     27 H8        -1.3034    7.0690    5.3021 H         1 RES1    0.0000
     28 H9         0.0942    7.0702    7.2856 H         1 RES1    0.0000
     29 H10        0.6163    8.3684    6.2121 H         1 RES1    0.0000
     30 H11        2.5227    7.0965    7.1926 H         1 RES1    0.0000
     31 H12        2.4932    7.0289    5.4305 H         1 RES1    0.0000
     32 H13        1.5484    4.9065    7.3482 H         1 RES1    0.0000
     33 H14        2.9716    4.8352    6.3099 H         1 RES1    0.0000
     34 H15        3.5140    3.4744    2.3558 H         1 RES1    0.0000
     35 H16        4.7300    3.6996    0.2359 H         1 RES1    0.0000
     36 H17        1.2480    5.3905   -1.5759 H         1 RES1    0.0000
     37 H18        0.0257    5.1704    0.5601 H         1 RES1    0.0000
@<TRIPOS>BOND
     1    1    2 1
     2    2    3 1
     3    3    4 1
     4    4    5 1
     5    5    6 1
     6    6    1 1
     7    7    5 1
     8    8    7 1
     9    9    8 1
    10   10    4 1
    11   11    2 1
    12   12   11 ar
    13   13   12 ar
    14   14   13 ar
    15   15   14 ar
    16   16   11 ar
    17   17   14 1
    18   18   17 2
    19   19   17 2
    20   20    2 1
    21   21    3 1
    22   22    4 1
    23   23    5 1
    24   24    6 1
    25   25    6 1
    26   26    7 1
    27   27    7 1
    28   28    8 1
    29   29    8 1
    30   30    9 1
    31   31    9 1
    32   32   10 1
    33   33   10 1
    34   34   12 1
    35   35   13 1
    36   36   15 1
    37   37   16 1
    38    9   10 1
    39   15   16 ar
@<TRIPOS>SUBSTRUCTURE
     1 RES1 1

@<TRIPOS>CRYSIN
   6.5850   12.5070   16.0540  90.0000  91.6100  90.0000  14 1

