# MOL2 file generated by ConQuest
# Please check atom types

@<TRIPOS>MOLECULE
BEVCEM
    29    31     1
SMALL
NO_CHARGES
****
Generated from CSD

@<TRIPOS>ATOM
      1 O1         4.4789    4.4761    2.2982 O.2       1 RES1    0.0000
      2 O2         2.6339    4.5583    1.1648 O.2       1 RES1    0.0000
      3 N1         0.5776    3.3819   11.1198 N.ar      1 RES1    0.0000
      4 N2        -1.4890    3.6004    8.1127 N.2       1 RES1    0.0000
      5 N3        -1.0562    3.8185    6.8987 N.2       1 RES1    0.0000
      6 N4         0.2960    3.9414    6.9689 N.pl3     1 RES1    0.0000
      7 N5         3.2556    4.4687    2.2195 N.pl3     1 RES1    0.0000
      8 C1         0.4816    3.1849   12.4342 C.ar      1 RES1    0.0000
      9 H1         1.2795    3.2210   12.9485 H         1 RES1    0.0000
     10 C2        -0.7019    2.9330   13.0966 C.ar      1 RES1    0.0000
     11 H2        -0.7143    2.7894   14.0362 H         1 RES1    0.0000
     12 C3        -1.8580    2.8949   12.3642 C.ar      1 RES1    0.0000
     13 H3        -2.6891    2.7230   12.7898 H         1 RES1    0.0000
     14 C4        -1.8052    3.1102   11.0003 C.ar      1 RES1    0.0000
     15 H4        -2.5965    3.0945   10.4753 H         1 RES1    0.0000
     16 C5        -0.5691    3.3487   10.4168 C.ar      1 RES1    0.0000
     17 C6        -0.4205    3.5776    8.9683 C.2       1 RES1    0.0000
     18 C7         0.7120    3.7929    8.2496 C.2       1 RES1    0.0000
     19 H5         1.6039    3.8313    8.5743 H         1 RES1    0.0000
     20 C8         1.0555    4.1077    5.7713 C.ar      1 RES1    0.0000
     21 C9         2.3919    3.7416    5.7553 C.ar      1 RES1    0.0000
     22 H6         2.8068    3.4067    6.5411 H         1 RES1    0.0000
     23 C10        3.1138    3.8681    4.5899 C.ar      1 RES1    0.0000
     24 H7         4.0327    3.6296    4.5636 H         1 RES1    0.0000
     25 C11        2.4804    4.3464    3.4587 C.ar      1 RES1    0.0000
     26 C12        1.1539    4.7250    3.4650 C.ar      1 RES1    0.0000
     27 H8         0.7415    5.0540    2.6752 H         1 RES1    0.0000
     28 C13        0.4370    4.6189    4.6375 C.ar      1 RES1    0.0000
     29 H9        -0.4722    4.8923    4.6694 H         1 RES1    0.0000
@<TRIPOS>BOND
     1    1    7 2
     2    2    7 2
     3    3    8 ar
     4    4    5 2
     5    5    6 1
     6    6   18 1
     7    7   25 1
     8    8    9 1
     9   10    8 ar
    10   11   10 1
    11   12   10 ar
    12   13   12 1
    13   14   12 ar
    14   15   14 1
    15   16    3 ar
    16   17    4 1
    17   18   17 2
    18   19   18 1
    19   20    6 1
    20   21   20 ar
    21   22   21 1
    22   23   21 ar
    23   24   23 1
    24   25   23 ar
    25   26   25 ar
    26   27   26 1
    27   28   20 ar
    28   29   28 1
    29   14   16 ar
    30   16   17 1
    31   26   28 ar
@<TRIPOS>SUBSTRUCTURE
     1 RES1 1

@<TRIPOS>CRYSIN
   6.4645    6.6032   14.0760  97.9780  91.0560 100.2230   2 1

