# MOL2 file generated by ConQuest
# Please check atom types

@<TRIPOS>MOLECULE
BEVJAP
    41    45     1
SMALL
NO_CHARGES
****
Generated from CSD

@<TRIPOS>ATOM
      1 O1         3.7376    9.4265    0.3456 O.2       1 RES1    0.0000
      2 O2         4.1639   10.4265    2.2110 O.2       1 RES1    0.0000
      3 N1         8.2359    4.6671    2.3191 N.ar      1 RES1    0.0000
      4 N2         4.4081    9.5740    1.3651 N.pl3     1 RES1    0.0000
      5 C1         9.1438    3.6696    2.6048 C.ar      1 RES1    0.0000
      6 C2         8.6767    2.3448    2.4706 C.ar      1 RES1    0.0000
      7 H1         7.7619    2.1825    2.2734 H         1 RES1    0.0000
      8 C3         9.5399    1.2906    2.6237 C.ar      1 RES1    0.0000
      9 H2         9.2204    0.3983    2.5559 H         1 RES1    0.0000
     10 C4        10.8895    1.5344    2.8794 C.ar      1 RES1    0.0000
     11 H3        11.4983    0.8067    2.9157 H         1 RES1    0.0000
     12 C5        11.3475    2.8098    3.0798 C.ar      1 RES1    0.0000
     13 H4        12.2686    2.9526    3.2645 H         1 RES1    0.0000
     14 C6        10.4692    3.9148    3.0143 C.ar      1 RES1    0.0000
     15 C7        10.8557    5.2952    3.2313 C.ar      1 RES1    0.0000
     16 C8        12.0743    5.7128    3.8879 C.ar      1 RES1    0.0000
     17 C9        12.8242    4.8888    4.7606 C.ar      1 RES1    0.0000
     18 H5        12.5216    4.0073    4.9397 H         1 RES1    0.0000
     19 C10       13.9754    5.3330    5.3532 C.ar      1 RES1    0.0000
     20 H6        14.4447    4.7653    5.9545 H         1 RES1    0.0000
     21 C11       14.4689    6.6149    5.0810 C.ar      1 RES1    0.0000
     22 H7        15.3106    6.8888    5.4258 H         1 RES1    0.0000
     23 C12       13.7289    7.4653    4.3155 C.ar      1 RES1    0.0000
     24 H8        14.0432    8.3499    4.1664 H         1 RES1    0.0000
     25 C13       12.5079    7.0601    3.7419 C.ar      1 RES1    0.0000
     26 C14       11.6866    7.9882    3.0443 C.ar      1 RES1    0.0000
     27 H9        12.0074    8.8681    2.8810 H         1 RES1    0.0000
     28 C15       10.4571    7.6356    2.6111 C.ar      1 RES1    0.0000
     29 H10        9.8929    8.2910    2.2166 H         1 RES1    0.0000
     30 C16        9.9932    6.2875    2.7397 C.ar      1 RES1    0.0000
     31 C17        8.6640    5.9061    2.3491 C.ar      1 RES1    0.0000
     32 C18        7.6146    6.9258    2.0437 C.ar      1 RES1    0.0000
     33 C19        7.3817    7.9916    2.9125 C.ar      1 RES1    0.0000
     34 H11        7.9488    8.1162    3.6645 H         1 RES1    0.0000
     35 C20        6.3411    8.8669    2.6940 C.ar      1 RES1    0.0000
     36 H12        6.1735    9.5834    3.2952 H         1 RES1    0.0000
     37 C21        5.5479    8.6783    1.5813 C.ar      1 RES1    0.0000
     38 C22        5.7676    7.6543    0.6873 C.ar      1 RES1    0.0000
     39 H13        5.2186    7.5574   -0.0813 H         1 RES1    0.0000
     40 C23        6.7999    6.7712    0.9303 C.ar      1 RES1    0.0000
     41 H14        6.9539    6.0516    0.3306 H         1 RES1    0.0000
@<TRIPOS>BOND
     1    1    4 2
     2    2    4 2
     3    3    5 ar
     4    4   37 1
     5    5    6 ar
     6    6    7 1
     7    8    6 ar
     8    9    8 1
     9   10    8 ar
    10   11   10 1
    11   12   10 ar
    12   13   12 1
    13   14    5 ar
    14   15   14 ar
    15   16   15 ar
    16   17   16 ar
    17   18   17 1
    18   19   17 ar
    19   20   19 1
    20   21   19 ar
    21   22   21 1
    22   23   21 ar
    23   24   23 1
    24   25   16 ar
    25   26   25 ar
    26   27   26 1
    27   28   26 ar
    28   29   28 1
    29   30   15 ar
    30   31    3 ar
    31   32   31 1
    32   33   32 ar
    33   34   33 1
    34   35   33 ar
    35   36   35 1
    36   37   35 ar
    37   38   37 ar
    38   39   38 1
    39   40   32 ar
    40   41   40 1
    41   12   14 ar
    42   23   25 ar
    43   28   30 ar
    44   30   31 ar
    45   38   40 ar
@<TRIPOS>SUBSTRUCTURE
     1 RES1 1

@<TRIPOS>CRYSIN
  10.3050   20.3210    7.9229  90.0000  95.1500  90.0000  14 1

