# MOL2 file generated by ConQuest
# Please check atom types

@<TRIPOS>MOLECULE
BEVYUY
    27    27     1
SMALL
NO_CHARGES
****
Generated from CSD

@<TRIPOS>ATOM
      1 N1        -3.4809    5.7560   10.0124 N.3       1 RES1    0.0000
      2 C1        -4.0291    6.8512   10.5862 C.2       1 RES1    0.0000
      3 H1        -3.9034    7.0961   11.4957 H         1 RES1    0.0000
      4 N2        -4.7603    7.5384    9.7290 N.2       1 RES1    0.0000
      5 C2        -4.6686    6.8563    8.5628 C.2       1 RES1    0.0000
      6 C3        -3.8870    5.7443    8.6946 C.2       1 RES1    0.0000
      7 N3        -2.6488    4.8681   10.7066 N.3       1 RES1    0.0000
      8 H2        -3.0531    4.0914   10.7511 H         1 RES1    0.0000
      9 C4        -1.2943    4.8086   10.1674 C.3       1 RES1    0.0000
     10 H3        -1.1071    5.6208    9.6336 H         1 RES1    0.0000
     11 H4        -1.1994    4.0193    9.5779 H         1 RES1    0.0000
     12 C5        -0.3164    4.7121   11.3245 C.3       1 RES1    0.0000
     13 N4        -0.2243    3.2925   11.8653 N.pl3     1 RES1    0.0000
     14 O1         0.8297    2.9450   12.3618 O.2       1 RES1    0.0000
     15 O2        -1.2250    2.6133   11.7242 O.2       1 RES1    0.0000
     16 N5         1.1002    5.0823   10.9095 N.pl3     1 RES1    0.0000
     17 O3         1.7133    5.8539   11.6082 O.2       1 RES1    0.0000
     18 O4         1.4821    4.5356    9.8948 O.2       1 RES1    0.0000
     19 N6        -0.6985    5.6244   12.4723 N.pl3     1 RES1    0.0000
     20 O5        -0.7527    5.1410   13.5788 O.2       1 RES1    0.0000
     21 O6        -0.9169    6.7782   12.1431 O.2       1 RES1    0.0000
     22 N7        -5.4154    7.3035    7.4009 N.pl3     1 RES1    0.0000
     23 O7        -5.7793    8.4674    7.3816 O.2       1 RES1    0.0000
     24 O8        -5.6314    6.4777    6.5253 O.2       1 RES1    0.0000
     25 N8        -3.4134    4.7515    7.7660 N.pl3     1 RES1    0.0000
     26 O9        -3.2358    3.6167    8.2002 O.2       1 RES1    0.0000
     27 O10       -3.2016    5.1148    6.6212 O.2       1 RES1    0.0000
@<TRIPOS>BOND
     1    1    2 1
     2    2    3 1
     3    4    2 2
     4    5    4 1
     5    6    1 1
     6    7    1 1
     7    8    7 1
     8    9    7 1
     9   10    9 1
    10   11    9 1
    11   12    9 1
    12   13   12 1
    13   14   13 2
    14   15   13 2
    15   16   12 1
    16   17   16 2
    17   18   16 2
    18   19   12 1
    19   20   19 2
    20   21   19 2
    21   22    5 1
    22   23   22 2
    23   24   22 2
    24   25    6 1
    25   26   25 2
    26   27   25 2
    27    5    6 2
@<TRIPOS>SUBSTRUCTURE
     1 RES1 1

@<TRIPOS>CRYSIN
   8.3893   10.0156   14.3147  90.0000 103.5320  90.0000 231 1

