# MOL2 file generated by ConQuest
# Please check atom types

@<TRIPOS>MOLECULE
BEVYOS
    27    27     1
SMALL
NO_CHARGES
****
Generated from CSD

@<TRIPOS>ATOM
      1 N1         2.2695   10.4366    9.2185 N.3       1 RES1    0.0000
      2 C1         1.5184   11.3556    8.5182 C.2       1 RES1    0.0000
      3 N2         0.2687   11.3594    8.8793 N.2       1 RES1    0.0000
      4 C2         0.2155   10.4213    9.8387 C.2       1 RES1    0.0000
      5 C3         1.4317    9.8280   10.0977 C.2       1 RES1    0.0000
      6 H1         1.6350    9.1557   10.7377 H         1 RES1    0.0000
      7 N3         3.6513   10.1766    9.1910 N.3       1 RES1    0.0000
      8 H2         4.2008   10.4194    9.8343 H         1 RES1    0.0000
      9 C4         4.0831    9.4681    8.0000 C.3       1 RES1    0.0000
     10 H3         4.6773   10.0509    7.4633 H         1 RES1    0.0000
     11 H4         3.2956    9.2376    7.4457 H         1 RES1    0.0000
     12 C5         4.8306    8.1900    8.3897 C.3       1 RES1    0.0000
     13 N4         5.7681    8.3691    9.5939 N.pl3     1 RES1    0.0000
     14 O1         5.8281    7.4644   10.3930 O.2       1 RES1    0.0000
     15 O2         6.4045    9.3966    9.5895 O.2       1 RES1    0.0000
     16 N5         5.7070    7.7396    7.2514 N.pl3     1 RES1    0.0000
     17 O3         6.7911    7.2539    7.5083 O.2       1 RES1    0.0000
     18 O4         5.2183    7.8672    6.1502 O.2       1 RES1    0.0000
     19 N6         3.9376    7.0320    8.7377 N.pl3     1 RES1    0.0000
     20 O5         4.1153    5.9759    8.1581 O.2       1 RES1    0.0000
     21 O6         3.0979    7.2653    9.5884 O.2       1 RES1    0.0000
     22 N7         2.0582   12.2251    7.4951 N.pl3     1 RES1    0.0000
     23 O7         1.3262   13.0774    7.0417 O.2       1 RES1    0.0000
     24 O8         3.2123   12.0527    7.1460 O.2       1 RES1    0.0000
     25 N8        -1.0139   10.1595   10.5489 N.pl3     1 RES1    0.0000
     26 O9        -2.0114   10.7956   10.2306 O.2       1 RES1    0.0000
     27 O10       -0.9663    9.3395   11.4556 O.2       1 RES1    0.0000
@<TRIPOS>BOND
     1    1    2 1
     2    2    3 2
     3    3    4 1
     4    4    5 2
     5    5    1 1
     6    6    5 1
     7    7    1 1
     8    8    7 1
     9    9    7 1
    10   10    9 1
    11   11    9 1
    12   12    9 1
    13   13   12 1
    14   14   13 2
    15   15   13 2
    16   16   12 1
    17   17   16 2
    18   18   16 2
    19   19   12 1
    20   20   19 2
    21   21   19 2
    22   22    2 1
    23   23   22 2
    24   24   22 2
    25   25    4 1
    26   26   25 2
    27   27   25 2
@<TRIPOS>SUBSTRUCTURE
     1 RES1 1

@<TRIPOS>CRYSIN
  11.1074    9.5233   10.9770  90.0000  90.0000  90.0000  33 1

