# MOL2 file generated by ConQuest
# Please check atom types

@<TRIPOS>MOLECULE
BEXDUD01
    64    65     1
SMALL
NO_CHARGES
****
Generated from CSD

@<TRIPOS>ATOM
      1 O1        -0.1413    1.8010    9.8435 O.2       1 RES1    0.0000
      2 O2        -0.1724    1.9103   12.0096 O.2       1 RES1    0.0000
      3 O3         3.6776    1.8396   14.6449 O.2       1 RES1    0.0000
      4 O4         5.6524    1.8524   13.7567 O.2       1 RES1    0.0000
      5 N1         2.9030    1.9746    7.4282 N.2       1 RES1    0.0000
      6 N2         0.4353    1.8010   10.9391 N.pl3     1 RES1    0.0000
      7 N3         4.4125    1.8653   13.6435 N.pl3     1 RES1    0.0000
      8 N4         2.1188    1.8010    8.5573 N.3       1 RES1    0.0000
      9 C1         2.2988    1.8910    6.3096 C.2       1 RES1    0.0000
     10 C2         0.8370    1.4729    6.1609 C.3       1 RES1    0.0000
     11 H1         0.6596    0.7242    6.7851 H         1 RES1    0.0000
     12 H2         0.6981    1.1320    5.2412 H         1 RES1    0.0000
     13 C3        -0.2061    2.6114    6.4353 C.3       1 RES1    0.0000
     14 H3         0.0759    2.9433    7.3339 H         1 RES1    0.0000
     15 C4        -0.2391    3.8270    5.6476 C.3       1 RES1    0.0000
     16 H4         0.6937    4.1403    5.5136 H         1 RES1    0.0000
     17 H5        -0.7163    4.5236    6.1588 H         1 RES1    0.0000
     18 C5        -0.9025    3.6727    4.2860 C.3       1 RES1    0.0000
     19 H6        -1.7545    3.1806    4.3928 H         1 RES1    0.0000
     20 H7        -0.3142    3.1395    3.6932 H         1 RES1    0.0000
     21 C6        -1.1731    5.0363    3.6450 C.3       1 RES1    0.0000
     22 H8        -1.9950    5.0047    3.0919 H         1 RES1    0.0000
     23 H9        -1.2825    5.7335    4.3384 H         1 RES1    0.0000
     24 C7         0.0453    5.3257    2.7756 C.3       1 RES1    0.0000
     25 H10        0.8701    5.1282    3.2910 H         1 RES1    0.0000
     26 H11        0.0599    6.2866    2.5368 H         1 RES1    0.0000
     27 C8         0.0377    4.4831    1.4936 C.3       1 RES1    0.0000
     28 H12       -0.0185    3.5344    1.7659 H         1 RES1    0.0000
     29 H13       -0.8024    4.6941    1.0118 H         1 RES1    0.0000
     30 C9         1.1840    4.5989    0.4839 C.3       1 RES1    0.0000
     31 H14        1.0077    3.9840   -0.2702 H         1 RES1    0.0000
     32 H15        1.1954    5.5232    0.1215 H         1 RES1    0.0000
     33 C10        2.5472    4.2837    1.0788 C.3       1 RES1    0.0000
     34 H16        2.6601    4.7963    1.9168 H         1 RES1    0.0000
     35 H17        3.2493    4.5744    0.4462 H         1 RES1    0.0000
     36 C11        2.7239    2.7915    1.3742 C.3       1 RES1    0.0000
     37 H18        2.7967    2.2827    0.5300 H         1 RES1    0.0000
     38 H19        1.9422    2.4499    1.8811 H         1 RES1    0.0000
     39 C12        4.0182    2.6436    2.2121 C.3       1 RES1    0.0000
     40 H20        4.7930    2.7606    1.6109 H         1 RES1    0.0000
     41 H21        4.0422    3.3710    2.8804 H         1 RES1    0.0000
     42 C13        4.1568    1.3764    2.9034 C.3       1 RES1    0.0000
     43 H22        5.0704    1.3346    3.2847 H         1 RES1    0.0000
     44 H23        4.0819    0.6490    2.2373 H         1 RES1    0.0000
     45 C14        3.1525    1.1063    4.0304 C.3       1 RES1    0.0000
     46 H24        2.2498    1.0156    3.6345 H         1 RES1    0.0000
     47 H25        3.3801    0.2406    4.4557 H         1 RES1    0.0000
     48 C15        3.1090    2.1612    5.0841 C.3       1 RES1    0.0000
     49 H26        2.7648    2.9902    4.6672 H         1 RES1    0.0000
     50 H27        4.0395    2.3412    5.3690 H         1 RES1    0.0000
     51 C16        2.6682    1.8138    9.7828 C.ar      1 RES1    0.0000
     52 C17        1.8980    1.8396   10.9643 C.ar      1 RES1    0.0000
     53 C18        2.4767    1.8781   12.2128 C.ar      1 RES1    0.0000
     54 H28        1.9279    1.9450   12.9858 H         1 RES1    0.0000
     55 C19        3.8320    1.8267   12.3468 C.ar      1 RES1    0.0000
     56 C20        4.6462    1.8524   11.1905 C.ar      1 RES1    0.0000
     57 H29        5.5925    1.8601   11.2764 H         1 RES1    0.0000
     58 C21        4.0778    1.8653    9.9713 C.ar      1 RES1    0.0000
     59 H30        4.6388    1.9045    9.2067 H         1 RES1    0.0000
     60 C22       -1.5297    1.8717    6.7579 C.3       1 RES1    0.0000
     61 H31       -1.7896    1.3192    5.9933 H         1 RES1    0.0000
     62 H32       -2.2324    2.5323    6.9380 H         1 RES1    0.0000
     63 H33       -1.4038    1.3057    7.5455 H         1 RES1    0.0000
     64 H34        1.1606    1.6530    8.4421 H         1 RES1    0.0000
@<TRIPOS>BOND
     1    1    6 2
     2    2    6 2
     3    3    7 2
     4    4    7 2
     5    5    8 1
     6    6   52 1
     7    7   55 1
     8    8   51 1
     9    9    5 2
    10   10    9 1
    11   11   10 1
    12   12   10 1
    13   13   10 1
    14   14   13 1
    15   15   13 1
    16   16   15 1
    17   17   15 1
    18   18   15 1
    19   19   18 1
    20   20   18 1
    21   21   18 1
    22   22   21 1
    23   23   21 1
    24   24   21 1
    25   25   24 1
    26   26   24 1
    27   27   24 1
    28   28   27 1
    29   29   27 1
    30   30   27 1
    31   31   30 1
    32   32   30 1
    33   33   30 1
    34   34   33 1
    35   35   33 1
    36   36   33 1
    37   37   36 1
    38   38   36 1
    39   39   36 1
    40   40   39 1
    41   41   39 1
    42   42   39 1
    43   43   42 1
    44   44   42 1
    45   45   42 1
    46   46   45 1
    47   47   45 1
    48   48    9 1
    49   49   48 1
    50   50   48 1
    51   51   52 ar
    52   52   53 ar
    53   53   54 1
    54   55   53 ar
    55   56   55 ar
    56   57   56 1
    57   58   51 ar
    58   59   58 1
    59   60   13 1
    60   61   60 1
    61   62   60 1
    62   63   60 1
    63   64    8 1
    64   45   48 1
    65   56   58 ar
@<TRIPOS>SUBSTRUCTURE
     1 RES1 1

@<TRIPOS>CRYSIN
   8.2100    6.4320   20.9500  90.0000  90.7600  90.0000   4 1

