# MOL2 file generated by ConQuest
# Please check atom types

@<TRIPOS>MOLECULE
BEXTIK
    69    72     1
SMALL
NO_CHARGES
****
Generated from CSD

@<TRIPOS>ATOM
      1 N1         7.7589    0.7071   14.9486 N.am      1 RES1    0.0000
      2 N2         7.3222   -2.2117   10.1790 N.pl3     1 RES1    0.0000
      3 O1         6.0897   -0.6331   15.5633 O.3       1 RES1    0.0000
      4 O2         6.2100    1.4661   16.4030 O.2       1 RES1    0.0000
      5 O3        10.8949    2.6291   20.0933 O.3       1 RES1    0.0000
      6 O4         7.8391   -3.2922   10.0926 O.2       1 RES1    0.0000
      7 O5         7.5226   -1.3292    9.3804 O.2       1 RES1    0.0000
      8 C1         8.5479    1.9520   14.9702 C.3       1 RES1    0.0000
      9 H1         7.9667    2.7098   14.7520 H         1 RES1    0.0000
     10 C2         9.4851    1.6996   13.8294 C.2       1 RES1    0.0000
     11 H2        10.1076    2.3217   13.5279 H         1 RES1    0.0000
     12 C3         9.3347    0.5140   13.3041 C.2       1 RES1    0.0000
     13 H3         9.8363    0.1962   12.5890 H         1 RES1    0.0000
     14 C4         8.2644   -0.2726   13.9874 C.3       1 RES1    0.0000
     15 H4         7.5731   -0.5494   13.3655 H         1 RES1    0.0000
     16 H5         8.6260   -1.0542   14.4335 H         1 RES1    0.0000
     17 C5         9.2102    2.1958   16.3028 C.ar      1 RES1    0.0000
     18 C6         9.0014    3.3380   17.0209 C.ar      1 RES1    0.0000
     19 H6         8.4720    4.0091   16.6528 H         1 RES1    0.0000
     20 C7         9.5508    3.5336   18.2810 C.ar      1 RES1    0.0000
     21 H7         9.3897    4.3244   18.7430 H         1 RES1    0.0000
     22 C8        10.3258    2.5650   18.8367 C.ar      1 RES1    0.0000
     23 C9        10.5799    1.3928   18.1188 C.ar      1 RES1    0.0000
     24 H8        11.1197    0.7309   18.4869 H         1 RES1    0.0000
     25 C10       10.0377    1.2186   16.8822 C.ar      1 RES1    0.0000
     26 H9        10.2177    0.4370   16.4113 H         1 RES1    0.0000
     27 C11       10.6992    3.8184   20.8394 C.3       1 RES1    0.0000
     28 H10       11.0534    4.5646   20.3502 H         1 RES1    0.0000
     29 H11       11.1515    3.7451   21.6826 H         1 RES1    0.0000
     30 H12        9.7604    3.9510   20.9893 H         1 RES1    0.0000
     31 C12        6.6468    0.5904   15.7049 C.2       1 RES1    0.0000
     32 C13        4.9929   -0.9216   16.4881 C.3       1 RES1    0.0000
     33 H13        4.5273   -0.0874   16.7048 H         1 RES1    0.0000
     34 C14        4.0202   -1.8744   15.8009 C.3       1 RES1    0.0000
     35 H14        4.5054   -2.7074   15.6243 H         1 RES1    0.0000
     36 C15        2.9104   -2.1983   16.8220 C.3       1 RES1    0.0000
     37 H15        2.4205   -1.3879   17.0317 H         1 RES1    0.0000
     38 H16        2.2883   -2.8314   16.4300 H         1 RES1    0.0000
     39 C16        3.4870   -2.7807   18.0938 C.3       1 RES1    0.0000
     40 H17        3.9212   -3.6222   17.8873 H         1 RES1    0.0000
     41 H18        2.7633   -2.9653   18.7138 H         1 RES1    0.0000
     42 C17        4.4873   -1.8597   18.7655 C.3       1 RES1    0.0000
     43 H19        4.0241   -1.0347   19.0178 H         1 RES1    0.0000
     44 C18        5.5722   -1.5083   17.7474 C.3       1 RES1    0.0000
     45 H20        6.1869   -0.8703   18.1434 H         1 RES1    0.0000
     46 H21        6.0741   -2.3083   17.5251 H         1 RES1    0.0000
     47 C19        5.0885   -2.4739   20.0198 C.3       1 RES1    0.0000
     48 H22        4.3866   -2.6951   20.6354 H         1 RES1    0.0000
     49 H23        5.6871   -1.8444   20.4293 H         1 RES1    0.0000
     50 H24        5.5725   -3.2696   19.7860 H         1 RES1    0.0000
     51 C20        3.4839   -1.3494   14.4233 C.3       1 RES1    0.0000
     52 C21        3.0297    0.1167   14.5335 C.3       1 RES1    0.0000
     53 H25        3.7902    0.6741   14.7146 H         1 RES1    0.0000
     54 H26        2.3932    0.2017   15.2454 H         1 RES1    0.0000
     55 H27        2.6240    0.3887   13.7070 H         1 RES1    0.0000
     56 C22        2.2586   -2.1805   13.9636 C.3       1 RES1    0.0000
     57 H28        1.5208   -2.0155   14.5543 H         1 RES1    0.0000
     58 H29        2.4805   -3.1144   13.9818 H         1 RES1    0.0000
     59 H30        2.0170   -1.9257   13.0699 H         1 RES1    0.0000
     60 C23        4.5420   -1.5364   13.3204 C.ar      1 RES1    0.0000
     61 C24        5.2256   -2.7434   13.1996 C.ar      1 RES1    0.0000
     62 H31        5.0660   -3.4181   13.8194 H         1 RES1    0.0000
     63 C25        6.1372   -2.9671   12.1801 C.ar      1 RES1    0.0000
     64 H32        6.5950   -3.7750   12.1206 H         1 RES1    0.0000
     65 C26        6.3508   -1.9734   11.2595 C.ar      1 RES1    0.0000
     66 C27        5.6867   -0.7829   11.3203 C.ar      1 RES1    0.0000
     67 H33        5.8329   -0.1265   10.6778 H         1 RES1    0.0000
     68 C28        4.7908   -0.5671   12.3556 C.ar      1 RES1    0.0000
     69 H34        4.3437    0.2475   12.4058 H         1 RES1    0.0000
@<TRIPOS>BOND
     1    1    8 1
     2    2    6 2
     3    3   31 1
     4    4   31 2
     5    5   22 1
     6    7    2 2
     7    8    9 1
     8   10    8 1
     9   11   10 1
    10   12   10 2
    11   13   12 1
    12   14    1 1
    13   15   14 1
    14   16   14 1
    15   17    8 1
    16   18   17 ar
    17   19   18 1
    18   20   18 ar
    19   21   20 1
    20   22   20 ar
    21   23   22 ar
    22   24   23 1
    23   25   17 ar
    24   26   25 1
    25   27    5 1
    26   28   27 1
    27   29   27 1
    28   30   27 1
    29   31    1 1
    30   32    3 1
    31   33   32 1
    32   34   32 1
    33   35   34 1
    34   36   34 1
    35   37   36 1
    36   38   36 1
    37   39   36 1
    38   40   39 1
    39   41   39 1
    40   42   39 1
    41   43   42 1
    42   44   32 1
    43   45   44 1
    44   46   44 1
    45   47   42 1
    46   48   47 1
    47   49   47 1
    48   50   47 1
    49   51   34 1
    50   52   51 1
    51   53   52 1
    52   54   52 1
    53   55   52 1
    54   56   51 1
    55   57   56 1
    56   58   56 1
    57   59   56 1
    58   60   51 1
    59   61   60 ar
    60   62   61 1
    61   63   61 ar
    62   64   63 1
    63   65    2 1
    64   66   65 ar
    65   67   66 1
    66   68   60 ar
    67   69   68 1
    68   12   14 1
    69   23   25 ar
    70   42   44 1
    71   63   65 ar
    72   66   68 ar
@<TRIPOS>SUBSTRUCTURE
     1 RES1 1

@<TRIPOS>CRYSIN
  10.3142    6.1114   20.8440  90.0000  92.8300  90.0000   4 1

