# MOL2 file generated by ConQuest
# Please check atom types

@<TRIPOS>MOLECULE
BEXYIO
    55    59     1
SMALL
NO_CHARGES
****
Generated from CSD

@<TRIPOS>ATOM
      1 C1         2.8931    4.7902   11.2265 C.ar      1 RES1    0.0000
      2 C2         2.4077    5.4019   10.1438 C.ar      1 RES1    0.0000
      3 H1         1.8391    4.9414    9.5700 H         1 RES1    0.0000
      4 C3         2.7384    6.6955    9.8720 C.ar      1 RES1    0.0000
      5 H2         2.4075    7.1043    9.1047 H         1 RES1    0.0000
      6 C4         3.5701    7.4169   10.7366 C.ar      1 RES1    0.0000
      7 C5         4.0904    6.7670   11.8496 C.ar      1 RES1    0.0000
      8 H3         4.6621    7.2182   12.4290 H         1 RES1    0.0000
      9 C6         3.7512    5.4419   12.0934 C.ar      1 RES1    0.0000
     10 H4         4.0971    4.9974   12.8339 H         1 RES1    0.0000
     11 C7         3.0821    9.6923    9.8888 C.ar      1 RES1    0.0000
     12 C8         1.7019    9.6081    9.9582 C.ar      1 RES1    0.0000
     13 H5         1.3068    8.8665   10.3563 H         1 RES1    0.0000
     14 C9         0.9114   10.6086    9.4470 C.ar      1 RES1    0.0000
     15 H6        -0.0138   10.5076    9.4503 H         1 RES1    0.0000
     16 C10        1.4650   11.7532    8.9314 C.ar      1 RES1    0.0000
     17 H7         0.9211   12.4501    8.6428 H         1 RES1    0.0000
     18 C11        2.8266   11.8593    8.8452 C.ar      1 RES1    0.0000
     19 H8         3.2070   12.6162    8.4627 H         1 RES1    0.0000
     20 C12        3.6369   10.8532    9.3206 C.ar      1 RES1    0.0000
     21 C13        5.8309   10.2994    8.2323 C.3       1 RES1    0.0000
     22 H9         6.0126    9.3925    8.5253 H         1 RES1    0.0000
     23 H10        6.6798   10.7517    8.1092 H         1 RES1    0.0000
     24 C14        5.0670   10.2623    6.8867 C.ar      1 RES1    0.0000
     25 C15        4.5129    9.0520    6.4505 C.ar      1 RES1    0.0000
     26 C16        4.5684    7.7931    7.0366 C.ar      1 RES1    0.0000
     27 H11        5.0366    7.6697    7.8307 H         1 RES1    0.0000
     28 C17        3.9230    6.7184    6.4359 C.ar      1 RES1    0.0000
     29 H12        3.9596    5.8759    6.8274 H         1 RES1    0.0000
     30 C18        3.2232    6.9037    5.2492 C.ar      1 RES1    0.0000
     31 H13        2.7914    6.1835    4.8465 H         1 RES1    0.0000
     32 C19        3.1686    8.1626    4.6631 C.ar      1 RES1    0.0000
     33 H14        2.7004    8.2860    3.8689 H         1 RES1    0.0000
     34 C20        3.8140    9.2374    5.2637 C.ar      1 RES1    0.0000
     35 C21        3.5893   10.3874    4.5121 C.ar      1 RES1    0.0000
     36 H15        3.0856   10.4008    3.7303 H         1 RES1    0.0000
     37 C22        4.1993   11.5153    5.0557 C.ar      1 RES1    0.0000
     38 C23        4.0300   12.7085    4.3633 C.ar      1 RES1    0.0000
     39 H16        3.5109   12.7289    3.5916 H         1 RES1    0.0000
     40 C24        4.6373   13.8716    4.8230 C.ar      1 RES1    0.0000
     41 H17        4.5236   14.6700    4.3600 H         1 RES1    0.0000
     42 C25        5.4128   13.8408    5.9762 C.ar      1 RES1    0.0000
     43 H18        5.8181   14.6183    6.2838 H         1 RES1    0.0000
     44 C26        5.5821   12.6476    6.6686 C.ar      1 RES1    0.0000
     45 H19        6.1012   12.6272    7.4404 H         1 RES1    0.0000
     46 C27        4.9759   11.4851    6.2078 C.ar      1 RES1    0.0000
     47 C28        5.6501   11.8936   10.0174 C.2       1 RES1    0.0000
     48 H20        5.1207   12.3488   10.6315 H         1 RES1    0.0000
     49 N1         2.5482    3.3923   11.5386 N.pl3     1 RES1    0.0000
     50 N2         3.9126    8.7266   10.4771 N.pl3     1 RES1    0.0000
     51 H21        4.7076    8.9747   10.6953 H         1 RES1    0.0000
     52 N3         5.0538   10.9917    9.2490 N.am      1 RES1    0.0000
     53 O1         3.0086    2.8368   12.4927 O.2       1 RES1    0.0000
     54 O2         1.7622    2.8408   10.7165 O.2       1 RES1    0.0000
     55 O3         6.8468   12.1766    9.9839 O.2       1 RES1    0.0000
@<TRIPOS>BOND
     1    1    2 ar
     2    2    3 1
     3    4    2 ar
     4    5    4 1
     5    6    4 ar
     6    7    6 ar
     7    8    7 1
     8    9    1 ar
     9   10    9 1
    10   11   12 ar
    11   12   13 1
    12   14   12 ar
    13   15   14 1
    14   16   14 ar
    15   17   16 1
    16   18   16 ar
    17   19   18 1
    18   20   11 ar
    19   21   22 1
    20   23   21 1
    21   24   21 1
    22   25   24 ar
    23   26   25 ar
    24   27   26 1
    25   28   26 ar
    26   29   28 1
    27   30   28 ar
    28   31   30 1
    29   32   30 ar
    30   33   32 1
    31   34   25 ar
    32   35   34 ar
    33   36   35 1
    34   37   35 ar
    35   38   37 ar
    36   39   38 1
    37   40   38 ar
    38   41   40 1
    39   42   40 ar
    40   43   42 1
    41   44   42 ar
    42   45   44 1
    43   46   24 ar
    44   47   48 1
    45   49    1 1
    46   50    6 1
    47   51   50 1
    48   52   20 1
    49   53   49 2
    50   54   49 2
    51   55   47 2
    52    7    9 ar
    53   11   50 1
    54   18   20 ar
    55   21   52 1
    56   32   34 ar
    57   37   46 ar
    58   44   46 ar
    59   47   52 1
@<TRIPOS>SUBSTRUCTURE
     1 RES1 1

@<TRIPOS>CRYSIN
   8.7180   12.0360   12.2960  65.4980  86.4320  78.2230   2 1

