# MOL2 file generated by ConQuest
# Please check atom types

@<TRIPOS>MOLECULE
BEYZEK
    26    28     1
SMALL
NO_CHARGES
****
Generated from CSD

@<TRIPOS>ATOM
      1 O1        11.3221   -0.3717   15.9337 O.2       1 RES1    0.0000
      2 O2         8.1493    2.3251   10.7930 O.2       1 RES1    0.0000
      3 O3         7.5320    1.0886   12.4149 O.2       1 RES1    0.0000
      4 O4        17.9428    0.0379   15.8482 O.2       1 RES1    0.0000
      5 O5        16.5275   -0.7965   17.2093 O.2       1 RES1    0.0000
      6 N1         8.3950    1.6310   11.7750 N.pl3     1 RES1    0.0000
      7 N2        16.8068   -0.2390   16.2102 N.pl3     1 RES1    0.0000
      8 C1        10.0349    0.8724   13.4040 C.ar      1 RES1    0.0000
      9 C2         9.7683    1.4527   12.1869 C.ar      1 RES1    0.0000
     10 C3        10.7825    1.8927   11.3375 C.ar      1 RES1    0.0000
     11 C4        12.1095    1.7296   11.7037 C.ar      1 RES1    0.0000
     12 C5        14.9821    1.0734   13.2045 C.ar      1 RES1    0.0000
     13 C6        16.0026    0.7131   14.0952 C.ar      1 RES1    0.0000
     14 C7        15.6918    0.1517   15.2924 C.ar      1 RES1    0.0000
     15 C8        14.3941   -0.1100   15.7171 C.ar      1 RES1    0.0000
     16 C9        11.9185    0.1138   15.0316 C.2       1 RES1    0.0000
     17 C10       11.3389    0.7434   13.7760 C.ar      1 RES1    0.0000
     18 C11       12.3825    1.1569   12.9294 C.ar      1 RES1    0.0000
     19 C12       13.6697    0.8383   13.6121 C.ar      1 RES1    0.0000
     20 C13       13.4135    0.2731   14.8221 C.ar      1 RES1    0.0000
     21 H1         9.3315    0.5743   13.9684 H         1 RES1    0.0000
     22 H2        10.5641    2.3073   10.5094 H         1 RES1    0.0000
     23 H3        12.8109    2.0023   11.1265 H         1 RES1    0.0000
     24 H4        15.1753    1.4918   12.3679 H         1 RES1    0.0000
     25 H5        16.9118    0.8481   13.8501 H         1 RES1    0.0000
     26 H6        14.1988   -0.5181   16.5537 H         1 RES1    0.0000
@<TRIPOS>BOND
     1    1   16 2
     2    2    6 2
     3    3    6 2
     4    4    7 2
     5    5    7 2
     6    6    9 1
     7    7   14 1
     8    8    9 ar
     9    9   10 ar
    10   10   11 ar
    11   11   18 ar
    12   12   13 ar
    13   13   14 ar
    14   14   15 ar
    15   15   20 ar
    16   16   17 1
    17   17    8 ar
    18   18   17 ar
    19   19   12 ar
    20   20   16 1
    21   21    8 1
    22   22   10 1
    23   23   11 1
    24   24   12 1
    25   25   13 1
    26   26   15 1
    27   18   19 1
    28   19   20 ar
@<TRIPOS>SUBSTRUCTURE
     1 RES1 1

@<TRIPOS>CRYSIN
  20.9980    3.7930   14.2520  90.0000  90.0000  90.0000  29 1

