# MOL2 file generated by ConQuest
# Please check atom types

@<TRIPOS>MOLECULE
BEZZOX
    56    60     1
SMALL
NO_CHARGES
****
Generated from CSD

@<TRIPOS>ATOM
      1 O1         1.4747   -0.1797    9.6509 O.3       1 RES1    0.0000
      2 N1         0.3922   -1.1037    9.7253 N.3       1 RES1    0.0000
      3 C1         0.3385   -1.7568    8.4085 C.3       1 RES1    0.0000
      4 H1        -0.6004   -1.8723    8.1501 H         1 RES1    0.0000
      5 C2         1.0058   -3.0987    8.4263 C.ar      1 RES1    0.0000
      6 C3         1.5328   -3.6622    9.5500 C.ar      1 RES1    0.0000
      7 H2         1.4963   -3.1835   10.3465 H         1 RES1    0.0000
      8 C4         2.1172   -4.9089    9.5555 C.ar      1 RES1    0.0000
      9 H3         2.4466   -5.2828   10.3409 H         1 RES1    0.0000
     10 C5         2.1967   -5.5826    8.3586 C.ar      1 RES1    0.0000
     11 N2         2.8480   -6.8771    8.3109 N.pl3     1 RES1    0.0000
     12 O2         3.4103   -7.2719    9.2649 O.2       1 RES1    0.0000
     13 O3         2.8322   -7.5166    7.2493 O.2       1 RES1    0.0000
     14 C6         1.6901   -5.0302    7.1994 C.ar      1 RES1    0.0000
     15 H4         1.7484   -5.5000    6.3985 H         1 RES1    0.0000
     16 C7         1.1101   -3.8118    7.2216 C.ar      1 RES1    0.0000
     17 H5         0.7790   -3.4431    6.4351 H         1 RES1    0.0000
     18 C8        -0.8054   -0.5206   10.2111 C.ar      1 RES1    0.0000
     19 C9        -0.8364    0.7375   10.7614 C.ar      1 RES1    0.0000
     20 H6        -0.0723    1.2677   10.7713 H         1 RES1    0.0000
     21 C10       -2.0283    1.2059   11.3027 C.ar      1 RES1    0.0000
     22 H7        -2.0684    2.0690   11.6488 H         1 RES1    0.0000
     23 C11       -3.1332    0.4231   11.3327 C.ar      1 RES1    0.0000
     24 H8        -3.9204    0.7375   11.7165 H         1 RES1    0.0000
     25 C12       -3.0854   -0.7943   10.8135 C.ar      1 RES1    0.0000
     26 H9        -3.8550   -1.3166   10.8268 H         1 RES1    0.0000
     27 C13       -1.9266   -1.3250   10.2478 C.ar      1 RES1    0.0000
     28 H10       -1.9098   -2.1906    9.9072 H         1 RES1    0.0000
     29 C14        1.0092   -0.7633    7.4257 C.3       1 RES1    0.0000
     30 H11        1.8195   -1.1607    7.0452 H         1 RES1    0.0000
     31 C15        0.1065   -0.2660    6.3241 C.2       1 RES1    0.0000
     32 O4        -1.0766   -0.1798    6.5016 O.2       1 RES1    0.0000
     33 C16        0.7232    0.1956    5.0407 C.ar      1 RES1    0.0000
     34 C17        0.1274    1.1842    4.3285 C.ar      1 RES1    0.0000
     35 H12       -0.6445    1.5834    4.6580 H         1 RES1    0.0000
     36 C18        0.6468    1.6045    3.1282 C.ar      1 RES1    0.0000
     37 H13        0.2285    2.2889    2.6568 H         1 RES1    0.0000
     38 C19        1.7695    1.0237    2.6257 C.ar      1 RES1    0.0000
     39 H14        2.1124    1.2824    1.8015 H         1 RES1    0.0000
     40 C20        2.3481    0.1029    3.3224 C.ar      1 RES1    0.0000
     41 H15        3.1330   -0.2681    2.9896 H         1 RES1    0.0000
     42 C21        1.8763   -0.3590    4.5226 C.ar      1 RES1    0.0000
     43 H16        2.3244   -1.0348    4.9786 H         1 RES1    0.0000
     44 C22        1.3815    0.4383    8.3520 C.3       1 RES1    0.0000
     45 H17        0.6591    1.1014    8.3475 H         1 RES1    0.0000
     46 C23        2.6890    1.1043    8.0402 C.ar      1 RES1    0.0000
     47 C24        3.8778    0.4937    8.3775 C.ar      1 RES1    0.0000
     48 H18        3.8754   -0.3248    8.8190 H         1 RES1    0.0000
     49 C25        5.0845    1.1111    8.0513 C.ar      1 RES1    0.0000
     50 H19        5.8929    0.7160    8.2843 H         1 RES1    0.0000
     51 C26        5.0633    2.2783    7.4024 C.ar      1 RES1    0.0000
     52 H20        5.8734    2.6732    7.1739 H         1 RES1    0.0000
     53 C27        3.8726    2.9375    7.0474 C.ar      1 RES1    0.0000
     54 H21        3.8798    3.7520    6.6004 H         1 RES1    0.0000
     55 C28        2.6792    2.3070    7.4013 C.ar      1 RES1    0.0000
     56 H22        1.8672    2.7125    7.1983 H         1 RES1    0.0000
@<TRIPOS>BOND
     1    1    2 1
     2    2    3 1
     3    3    4 1
     4    5    3 1
     5    6    5 ar
     6    7    6 1
     7    8    6 ar
     8    9    8 1
     9   10    8 ar
    10   11   10 1
    11   12   11 2
    12   13   11 2
    13   14   10 ar
    14   15   14 1
    15   16    5 ar
    16   17   16 1
    17   18    2 1
    18   19   18 ar
    19   20   19 1
    20   21   19 ar
    21   22   21 1
    22   23   21 ar
    23   24   23 1
    24   25   23 ar
    25   26   25 1
    26   27   18 ar
    27   28   27 1
    28   29    3 1
    29   30   29 1
    30   31   29 1
    31   32   31 2
    32   33   31 1
    33   34   33 ar
    34   35   34 1
    35   36   34 ar
    36   37   36 1
    37   38   36 ar
    38   39   38 1
    39   40   38 ar
    40   41   40 1
    41   42   33 ar
    42   43   42 1
    43   44    1 1
    44   45   44 1
    45   46   44 1
    46   47   46 ar
    47   48   47 1
    48   49   47 ar
    49   50   49 1
    50   51   49 ar
    51   52   51 1
    52   53   51 ar
    53   54   53 1
    54   55   46 ar
    55   56   55 1
    56   14   16 ar
    57   25   27 ar
    58   29   44 1
    59   40   42 ar
    60   53   55 ar
@<TRIPOS>SUBSTRUCTURE
     1 RES1 1

@<TRIPOS>CRYSIN
   9.3900   11.5400   11.7000 100.7400 100.6600 108.5300   2 1

