# MOL2 file generated by ConQuest
# Please check atom types

@<TRIPOS>MOLECULE
BIBGAU
    45    45     2
SMALL
NO_CHARGES
****
Generated from CSD

@<TRIPOS>ATOM
      1 O1         0.2457    2.1319    5.8954 O.3       1 RES1    0.0000
      2 O2         6.0035    1.3925    3.5834 O.2       1 RES1    0.0000
      3 O3         6.0285    3.4706    3.9783 O.2       1 RES1    0.0000
      4 O4         0.5852    0.8426    8.6874 O.3       1 RES1    0.0000
      5 O5         6.2545   -1.0078    6.8087 O.2       1 RES1    0.0000
      6 O6         6.7775    0.1543    8.5006 O.2       1 RES1    0.0000
      7 N1         5.4626    2.4067    3.9842 N.pl3     1 RES1    0.0000
      8 N2         5.9595   -0.3027    7.7399 N.pl3     1 RES1    0.0000
      9 C1         2.4735    2.4120   10.0732 C.3       1 RES1    0.0000
     10 C2         3.1314    3.7477    9.7645 C.3       1 RES1    0.0000
     11 C3         1.9270    3.5961    9.1249 Du        2 SUP2    0.0000
     12 C4         3.0582    4.1950    8.3130 C.3       1 RES1    0.0000
     13 C5         1.6742    4.2926    7.8286 Du        2 SUP2    0.0000
     14 C6         2.2773    5.1305    7.2573 C.3       1 RES1    0.0000
     15 C7         1.5761    4.5827    6.2049 C.3       1 RES1    0.0000
     16 C8         2.2117    3.3890    5.5090 C.ar      1 RES1    0.0000
     17 C9         3.5119    3.4466    5.0272 C.ar      1 RES1    0.0000
     18 C10        4.0849    2.3265    4.4874 C.ar      1 RES1    0.0000
     19 C11        3.4207    1.1300    4.4226 C.ar      1 RES1    0.0000
     20 C12        2.1249    1.0230    4.9010 C.ar      1 RES1    0.0000
     21 C13        1.5169    2.1897    5.3965 C.ar      1 RES1    0.0000
     22 C14        1.4665   -0.3379    5.0170 C.3       1 RES1    0.0000
     23 C15        1.2121   -0.8100    6.4121 C.3       1 RES1    0.0000
     24 C16        2.2410   -0.3035    7.3963 C.ar      1 RES1    0.0000
     25 C17        3.5923   -0.6109    7.2069 C.ar      1 RES1    0.0000
     26 C18        4.5289    0.0054    7.9975 C.ar      1 RES1    0.0000
     27 C19        4.2091    0.9527    8.9338 C.ar      1 RES1    0.0000
     28 C20        2.8796    1.2810    9.1530 C.ar      1 RES1    0.0000
     29 C21        1.9224    0.5765    8.4230 C.ar      1 RES1    0.0000
     30 C22       -0.8139    2.1575    4.9880 C.3       1 RES1    0.0000
     31 C23        0.0179   -0.0164    9.6545 C.3       1 RES1    0.0000
     32 H1         4.0076    4.2583    5.0741 H         1 RES1    0.0000
     33 H2         3.8476    0.3648    4.0508 H         1 RES1    0.0000
     34 H3         2.0376   -0.9716    4.6051 H         1 RES1    0.0000
     35 H4         0.6444   -0.3027    4.5454 H         1 RES1    0.0000
     36 H5         1.2095   -1.7578    6.4215 H         1 RES1    0.0000
     37 H6         0.3574   -0.4892    6.6774 H         1 RES1    0.0000
     38 H7         3.8544   -1.2350    6.5409 H         1 RES1    0.0000
     39 H8         4.8979    1.3704    9.4404 H         1 RES1    0.0000
     40 H9        -1.6531    2.1056    5.4323 H         1 RES1    0.0000
     41 H10       -0.7640    2.9662    4.4857 H         1 RES1    0.0000
     42 H11       -0.7204    1.4222    4.4004 H         1 RES1    0.0000
     43 H12       -0.8935    0.2233    9.7815 H         1 RES1    0.0000
     44 H13        0.0722   -0.9149    9.3637 H         1 RES1    0.0000
     45 H14        0.4876    0.0859   10.4723 H         1 RES1    0.0000
@<TRIPOS>BOND
     1    1   21 1
     2    2    7 2
     3    3    7 2
     4    4   29 1
     5    5    8 2
     6    6    8 2
     7    7   18 1
     8    8   26 1
     9    9   10 1
    10   10   12 1
    11   12   14 1
    12   14   15 1
    13   15   16 1
    14   16   17 ar
    15   17   18 ar
    16   18   19 ar
    17   19   20 ar
    18   20   21 ar
    19   21   16 ar
    20   22   20 1
    21   23   22 1
    22   24   23 1
    23   25   24 ar
    24   26   25 ar
    25   27   26 ar
    26   28    9 1
    27   29   24 ar
    28   30    1 1
    29   31    4 1
    30   32   17 1
    31   33   19 1
    32   34   22 1
    33   35   22 1
    34   36   23 1
    35   37   23 1
    36   38   25 1
    37   39   27 1
    38   40   30 1
    39   41   30 1
    40   42   30 1
    41   43   31 1
    42   44   31 1
    43   45   31 1
    44   27   28 ar
    45   28   29 ar
@<TRIPOS>SUBSTRUCTURE
     1 RES1 1
     2 SUP2 11

@<TRIPOS>CRYSIN
   9.9628   12.0077    8.7512 102.6040  94.4450  83.3400   2 1

