# MOL2 file generated by ConQuest
# Please check atom types

@<TRIPOS>MOLECULE
BIBQAE
    45    46     1
SMALL
USER_CHARGES
****
Generated from CSD

@<TRIPOS>ATOM
      1 O1         4.2022    6.5658    4.3121 O.2       1 RES1   -1.0000
      2 O2         3.6008    5.4264    2.1744 O.3       1 RES1    0.0000
      3 O3         4.0529    3.8088    6.7621 O.3       1 RES1    0.0000
      4 N1         3.2597    6.1749    5.1862 N.pl3     1 RES1    1.0000
      5 N2        -0.2155    3.4847    0.1928 N.3       1 RES1    0.0000
      6 C1         2.1689    5.5544    4.8655 C.2       1 RES1    0.0000
      7 C2         1.6678    5.0958    3.6089 C.ar      1 RES1    0.0000
      8 C3         2.3387    5.0137    2.3583 C.ar      1 RES1    0.0000
      9 C4         1.7082    4.4731    1.2588 C.ar      1 RES1    0.0000
     10 C5         0.3934    3.9901    1.3041 C.ar      1 RES1    0.0000
     11 C6        -0.2798    4.0679    2.5461 C.ar      1 RES1    0.0000
     12 C7         0.3462    4.5990    3.6319 C.ar      1 RES1    0.0000
     13 C8         3.5617    6.5407    6.5830 C.3       1 RES1    0.0000
     14 C9         4.8647    5.9873    7.0803 C.ar      1 RES1    0.0000
     15 C10        5.0612    4.6139    7.1866 C.ar      1 RES1    0.0000
     16 C11        6.2420    4.1276    7.7257 C.ar      1 RES1    0.0000
     17 C12        7.2101    4.9924    8.1784 C.ar      1 RES1    0.0000
     18 C13        7.0227    6.3509    8.0878 C.ar      1 RES1    0.0000
     19 C14        5.8597    6.8403    7.5283 C.ar      1 RES1    0.0000
     20 C15        0.5258    3.3183   -1.0464 C.3       1 RES1    0.0000
     21 C16        1.4551    2.1283   -1.0608 C.3       1 RES1    0.0000
     22 C17       -1.5894    2.9899    0.2304 C.3       1 RES1    0.0000
     23 C18       -1.7078    1.5429    0.6670 C.3       1 RES1    0.0000
     24 H1         3.9186    5.8966    2.9547 H         1 RES1    0.0000
     25 H2         4.3115    2.9323    6.9383 H         1 RES1    0.0000
     26 H3         1.6100    5.3528    5.6431 H         1 RES1    0.0000
     27 H4         2.2203    4.4785    0.4689 H         1 RES1    0.0000
     28 H5        -1.2033    3.7427    2.6383 H         1 RES1    0.0000
     29 H6        -0.1426    4.6277    4.4935 H         1 RES1    0.0000
     30 H7         2.7995    6.1952    7.1409 H         1 RES1    0.0000
     31 H8         3.5779    7.5707    6.6242 H         1 RES1    0.0000
     32 H9         6.3757    3.2202    7.8147 H         1 RES1    0.0000
     33 H10        8.0362    4.6491    8.5522 H         1 RES1    0.0000
     34 H11        7.7025    6.9416    8.4065 H         1 RES1    0.0000
     35 H12        5.6912    7.8160    7.4414 H         1 RES1    0.0000
     36 H13        1.0530    4.1372   -1.2019 H         1 RES1    0.0000
     37 H14       -0.1393    3.2416   -1.7642 H         1 RES1    0.0000
     38 H15        0.9470    1.3542   -1.0221 H         1 RES1    0.0000
     39 H16        1.9065    2.0153   -1.9804 H         1 RES1    0.0000
     40 H17        2.0635    2.1326   -0.2458 H         1 RES1    0.0000
     41 H18       -2.1509    3.5614    0.8718 H         1 RES1    0.0000
     42 H19       -1.9459    3.0923   -0.7216 H         1 RES1    0.0000
     43 H20       -1.3234    1.4182    1.5843 H         1 RES1    0.0000
     44 H21       -1.2386    0.9383    0.0660 H         1 RES1    0.0000
     45 H22       -2.6883    1.3222    0.7512 H         1 RES1    0.0000
@<TRIPOS>BOND
     1    1    4 1
     2    2    8 1
     3    3   15 1
     4    4    6 2
     5    5   10 1
     6    6    7 1
     7    7    8 ar
     8    8    9 ar
     9    9   10 ar
    10   10   11 ar
    11   11   12 ar
    12   12    7 ar
    13   13    4 1
    14   14   13 1
    15   15   14 ar
    16   16   15 ar
    17   17   16 ar
    18   18   17 ar
    19   19   14 ar
    20   20    5 1
    21   21   20 1
    22   22    5 1
    23   23   22 1
    24   24    2 1
    25   25    3 1
    26   26    6 1
    27   27    9 1
    28   28   11 1
    29   29   12 1
    30   30   13 1
    31   31   13 1
    32   32   16 1
    33   33   17 1
    34   34   18 1
    35   35   19 1
    36   36   20 1
    37   37   20 1
    38   38   21 1
    39   39   21 1
    40   40   21 1
    41   41   22 1
    42   42   22 1
    43   43   23 1
    44   44   23 1
    45   45   23 1
    46   18   19 ar
@<TRIPOS>SUBSTRUCTURE
     1 RES1 1

@<TRIPOS>CRYSIN
   6.9110   10.6630   22.9510  90.0000  97.3300  90.0000 231 1

