# MOL2 file generated by ConQuest
# Please check atom types

@<TRIPOS>MOLECULE
BICNUW
    29    29     1
SMALL
NO_CHARGES
****
Generated from CSD

@<TRIPOS>ATOM
      1 O1         9.7836    1.1696    4.4014 O.2       1 RES1    0.0000
      2 O2        11.0226    0.7318    2.6999 O.2       1 RES1    0.0000
      3 O3         6.9166    3.7423   -2.2498 O.2       1 RES1    0.0000
      4 O4         6.9251    1.7668   -3.1224 O.2       1 RES1    0.0000
      5 O5         3.0092    1.9688   -1.5969 O.2       1 RES1    0.0000
      6 O6         4.1062    2.6626   -3.4243 O.3       1 RES1    0.0000
      7 N1         9.9583    1.0547    3.2067 N.pl3     1 RES1    0.0000
      8 N2         6.4864    2.6042   -2.3586 N.pl3     1 RES1    0.0000
      9 C1         6.7054    1.7164    0.5974 C.ar      1 RES1    0.0000
     10 C2         8.0227    1.7910    0.1333 C.ar      1 RES1    0.0000
     11 C3         9.0779    1.5870    0.9889 C.ar      1 RES1    0.0000
     12 C4         8.8241    1.3271    2.3138 C.ar      1 RES1    0.0000
     13 C5         7.5449    1.2644    2.8248 C.ar      1 RES1    0.0000
     14 C6         6.4914    1.4508    1.9543 C.ar      1 RES1    0.0000
     15 C7         5.5068    1.8573   -0.2411 C.2       1 RES1    0.0000
     16 C8         5.3504    2.2168   -1.5073 C.2       1 RES1    0.0000
     17 C9         4.0198    2.2606   -2.1719 C.2       1 RES1    0.0000
     18 C10        2.8568    2.7292   -4.1966 C.3       1 RES1    0.0000
     19 C11        2.5610    1.4094   -4.7940 C.3       1 RES1    0.0000
     20 H1         8.1926    1.9894   -0.8406 H         1 RES1    0.0000
     21 H2        10.0290    1.5887    0.6390 H         1 RES1    0.0000
     22 H3         7.3826    1.1104    3.8083 H         1 RES1    0.0000
     23 H4         5.5510    1.3710    2.2978 H         1 RES1    0.0000
     24 H5         4.6494    1.6383    0.2326 H         1 RES1    0.0000
     25 H6         2.9409    3.4382   -4.9220 H         1 RES1    0.0000
     26 H7         2.0959    3.0276   -3.5875 H         1 RES1    0.0000
     27 H8         1.6973    1.4354   -5.3284 H         1 RES1    0.0000
     28 H9         3.2993    1.1256   -5.4074 H         1 RES1    0.0000
     29 H10        2.4532    0.7143   -4.0729 H         1 RES1    0.0000
@<TRIPOS>BOND
     1    1    7 2
     2    2    7 2
     3    3    8 2
     4    4    8 2
     5    5   17 2
     6    6   17 1
     7    7   12 1
     8    8   16 1
     9    9   10 ar
    10   10   11 ar
    11   11   12 ar
    12   12   13 ar
    13   13   14 ar
    14   14    9 ar
    15   15    9 1
    16   16   15 2
    17   17   16 1
    18   18    6 1
    19   19   18 1
    20   20   10 1
    21   21   11 1
    22   22   13 1
    23   23   14 1
    24   24   15 1
    25   25   18 1
    26   26   18 1
    27   27   19 1
    28   28   19 1
    29   29   19 1
@<TRIPOS>SUBSTRUCTURE
     1 RES1 1

@<TRIPOS>CRYSIN
   7.8030    7.8600   10.9610  77.1900  82.1600  68.8900   2 1

