# MOL2 file generated by ConQuest
# Please check atom types

@<TRIPOS>MOLECULE
BICWEP
    26    26     1
SMALL
NO_CHARGES
****
Generated from CSD

@<TRIPOS>ATOM
      1 C1         6.3317    2.4117    3.6506 C.ar      1 RES1    0.0000
      2 C2         4.9763    2.4394    3.9902 C.ar      1 RES1    0.0000
      3 C3         3.9741    1.8780    3.1311 C.ar      1 RES1    0.0000
      4 C4         4.4400    1.0962    2.0292 C.ar      1 RES1    0.0000
      5 C5         5.8376    0.8391    1.8155 C.ar      1 RES1    0.0000
      6 C6         6.7368    1.6413    2.5832 C.ar      1 RES1    0.0000
      7 C7         7.3723    3.2027    4.4480 C.2       1 RES1    0.0000
      8 N1         7.3083    4.5274    4.2752 N.am      1 RES1    0.0000
      9 N2         4.6122    3.0797    5.2233 N.pl3     1 RES1    0.0000
     10 N3         2.6816    2.0900    3.3704 N.3       1 RES1    0.0000
     11 N4         3.5027    0.5604    1.1055 N.pl3     1 RES1    0.0000
     12 N5         6.2896   -0.0430    0.9416 N.3       1 RES1    0.0000
     13 N6         8.1294    1.7202    2.1664 N.pl3     1 RES1    0.0000
     14 O1         8.1811    2.6126    5.1455 O.2       1 RES1    0.0000
     15 O2         5.4772    3.2549    6.0765 O.2       1 RES1    0.0000
     16 O3         3.4464    3.4230    5.4353 O.2       1 RES1    0.0000
     17 O4         3.8981   -0.0246    0.0843 O.2       1 RES1    0.0000
     18 O5         2.2880    0.7049    1.2681 O.2       1 RES1    0.0000
     19 O6         8.7066    2.7898    2.2911 O.2       1 RES1    0.0000
     20 O7         8.6837    0.7192    1.6938 O.2       1 RES1    0.0000
     21 H1         6.7386    4.8563    3.6097 H         1 RES1    0.0000
     22 H2         7.9623    4.9997    4.6902 H         1 RES1    0.0000
     23 H3         2.4827    2.5613    4.1499 H         1 RES1    0.0000
     24 H4         2.1124    1.7315    2.7904 H         1 RES1    0.0000
     25 H5         7.2393   -0.1742    0.9084 H         1 RES1    0.0000
     26 H6         5.7180   -0.3893    0.3325 H         1 RES1    0.0000
@<TRIPOS>BOND
     1    1    2 ar
     2    2    3 ar
     3    3    4 ar
     4    4    5 ar
     5    5    6 ar
     6    6    1 ar
     7    7    1 1
     8    8    7 1
     9    9    2 1
    10   10    3 1
    11   11    4 1
    12   12    5 1
    13   13    6 1
    14   14    7 2
    15   15    9 2
    16   16    9 2
    17   17   11 2
    18   18   11 2
    19   19   13 2
    20   20   13 2
    21   21    8 1
    22   22    8 1
    23   23   10 1
    24   24   10 1
    25   25   12 1
    26   26   12 1
@<TRIPOS>SUBSTRUCTURE
     1 RES1 1

@<TRIPOS>CRYSIN
  16.5570   10.2453    5.9400  90.0000  91.8400  90.0000 231 1

