# MOL2 file generated by ConQuest
# Please check atom types

@<TRIPOS>MOLECULE
BIDGAZ
    77    80     2
SMALL
NO_CHARGES
****
Generated from CSD

@<TRIPOS>ATOM
      1 O1        -0.3905   11.1094    7.6601 O.2       1 RES1    0.0000
      2 O2         1.9221   11.4324   12.2774 O.2       1 RES1    0.0000
      3 O3         1.1019   13.1389    9.9615 O.3       1 RES1    0.0000
      4 N1        -2.0430   12.0293    8.9661 N.am      1 RES1    0.0000
      5 N2         2.2982   13.9035    9.6040 N.3       1 RES1    0.0000
      6 C1        -2.2000   12.3773   10.3200 C.ar      1 RES1    0.0000
      7 C2        -3.2606   13.0455   10.8943 C.ar      1 RES1    0.0000
      8 H1        -4.0221   13.2927   10.3823 H         1 RES1    0.0000
      9 C3        -3.1760   13.3448   12.2524 C.ar      1 RES1    0.0000
     10 H2        -3.8860   13.8147   12.6743 H         1 RES1    0.0000
     11 C4        -2.0721   12.9667   12.9934 C.ar      1 RES1    0.0000
     12 H3        -2.0267   13.1909   13.9154 H         1 RES1    0.0000
     13 C5        -1.0216   12.2572   12.4010 C.ar      1 RES1    0.0000
     14 H4        -0.2700   11.9887   12.9166 H         1 RES1    0.0000
     15 C6        -1.0927   11.9532   11.0542 C.ar      1 RES1    0.0000
     16 C7        -0.1584   11.1778   10.1258 C.3       1 RES1    0.0000
     17 C8        -0.8486   11.4166    8.7520 C.2       1 RES1    0.0000
     18 C9        -2.9456   12.4390    7.8980 C.3       1 RES1    0.0000
     19 H5        -3.8355   12.0619    8.0598 H         1 RES1    0.0000
     20 H6        -2.6041   12.1135    7.0390 H         1 RES1    0.0000
     21 H7        -3.0041   13.4170    7.8769 H         1 RES1    0.0000
     22 C10       -0.1213    9.6659   10.4104 C.ar      1 RES1    0.0000
     23 C11       -0.5476    9.1387   11.6193 C.ar      1 RES1    0.0000
     24 H8        -0.9135    9.7140   12.2808 H         1 RES1    0.0000
     25 C12       -0.4438    7.7753   11.8732 C.ar      1 RES1    0.0000
     26 H9        -0.7449    7.4361   12.7080 H         1 RES1    0.0000
     27 C13        0.0863    6.8998   10.9433 C.ar      1 RES1    0.0000
     28 C14        0.4853    7.4279    9.7267 C.ar      1 RES1    0.0000
     29 H10        0.8319    6.8475    9.0598 H         1 RES1    0.0000
     30 C15        0.3900    8.7896    9.4620 C.ar      1 RES1    0.0000
     31 H11        0.6782    9.1248    8.6213 H         1 RES1    0.0000
     32 C16        0.2365    5.4320   11.2533 C.3       1 RES1    0.0000
     33 H12        1.1791    5.2310   11.4331 H         1 RES1    0.0000
     34 H13       -0.0701    4.9031   10.4880 H         1 RES1    0.0000
     35 H14       -0.3007    5.2081   12.0420 H         1 RES1    0.0000
     36 C17        1.2842   11.7206    9.9892 C.3       1 RES1    0.0000
     37 H15        1.6567   11.4266    9.1092 H         1 RES1    0.0000
     38 C18        2.2191   11.2282   11.1151 C.2       1 RES1    0.0000
     39 C19        3.4771   10.4950   10.7818 C.ar      1 RES1    0.0000
     40 C20        4.3229   10.1513   11.8376 C.ar      1 RES1    0.0000
     41 H16        4.0871   10.3941   12.7253 H         1 RES1    0.0000
     42 C21        5.4963    9.4638   11.6086 C.ar      1 RES1    0.0000
     43 H17        6.0656    9.2430   12.3365 H         1 RES1    0.0000
     44 C22        5.8478    9.0947   10.3223 C.ar      1 RES1    0.0000
     45 H18        6.6528    8.6140   10.1688 H         1 RES1    0.0000
     46 C23        5.0292    9.4247    9.2633 C.ar      1 RES1    0.0000
     47 H19        5.2726    9.1761    8.3793 H         1 RES1    0.0000
     48 C24        3.8484   10.1205    9.4884 C.ar      1 RES1    0.0000
     49 H20        3.2876   10.3443    8.7550 H         1 RES1    0.0000
     50 C25        2.3374   15.0015   10.6252 C.3       1 RES1    0.0000
     51 C26        3.4580   15.9706   10.2243 C.3       1 RES1    0.0000
     52 H21        3.4519   16.7412   10.8463 H         1 RES1    0.0000
     53 H22        4.3294   15.5107   10.3244 H         1 RES1    0.0000
     54 C27        3.3360   16.4848    8.8064 C.3       1 RES1    0.0000
     55 H23        4.1054   17.0689    8.5908 H         1 RES1    0.0000
     56 H24        2.5051   17.0140    8.7089 H         1 RES1    0.0000
     57 C28        3.3078   15.2955    7.8670 C.3       1 RES1    0.0000
     58 H25        4.1750   14.8222    7.9277 H         1 RES1    0.0000
     59 H26        3.2100   15.6260    6.9394 H         1 RES1    0.0000
     60 C29        2.1745   14.2899    8.1562 C.3       1 RES1    0.0000
     61 C30        2.7234   14.3544   11.9547 C.3       1 RES1    0.0000
     62 H27        1.9714   13.8235   12.2901 H         1 RES1    0.0000
     63 H28        2.9466   15.0526   12.6053 H         1 RES1    0.0000
     64 H29        3.5007   13.7723   11.8212 H         1 RES1    0.0000
     65 C31        1.0147   15.7625   10.8265 C.3       1 RES1    0.0000
     66 H30        0.8295   16.3114   10.0365 H         1 RES1    0.0000
     67 H31        1.0863   16.3393   11.6158 H         1 RES1    0.0000
     68 H32        0.2852   15.1207   10.9567 H         1 RES1    0.0000
     69 C32        0.8026   14.8505    7.7531 C.3       1 RES1    0.0000
     70 H33        0.0956   14.3118    8.1657 H         1 RES1    0.0000
     71 H34        0.7106   14.8188    6.7780 H         1 RES1    0.0000
     72 H35        0.7265   15.7787    8.0584 H         1 RES1    0.0000
     73 C33        2.4442   13.0532    7.2962 C.3       1 RES1    0.0000
     74 H36        3.2513   12.6005    7.6192 H         1 RES1    0.0000
     75 H37        2.5738   13.3256    6.3637 H         1 RES1    0.0000
     76 H38        1.6810   12.4415    7.3548 H         1 RES1    0.0000
     77 H39        3.1035   13.3218    9.7188 Du        2 SUP2    0.0000
@<TRIPOS>BOND
     1    1   17 2
     2    2   38 2
     3    3    5 1
     4    4    6 1
     5    5   50 1
     6    6    7 ar
     7    7    8 1
     8    9    7 ar
     9   10    9 1
    10   11    9 ar
    11   12   11 1
    12   13   11 ar
    13   14   13 1
    14   15    6 ar
    15   16   15 1
    16   17    4 1
    17   18    4 1
    18   19   18 1
    19   20   18 1
    20   21   18 1
    21   22   16 1
    22   23   22 ar
    23   24   23 1
    24   25   23 ar
    25   26   25 1
    26   27   25 ar
    27   28   27 ar
    28   29   28 1
    29   30   22 ar
    30   31   30 1
    31   32   27 1
    32   33   32 1
    33   34   32 1
    34   35   32 1
    35   36    3 1
    36   37   36 1
    37   38   36 1
    38   39   38 1
    39   40   39 ar
    40   41   40 1
    41   42   40 ar
    42   43   42 1
    43   44   42 ar
    44   45   44 1
    45   46   44 ar
    46   47   46 1
    47   48   39 ar
    48   49   48 1
    49   50   51 1
    50   51   52 1
    51   53   51 1
    52   54   51 1
    53   55   54 1
    54   56   54 1
    55   57   54 1
    56   58   57 1
    57   59   57 1
    58   60    5 1
    59   61   50 1
    60   62   61 1
    61   63   61 1
    62   64   61 1
    63   65   50 1
    64   66   65 1
    65   67   65 1
    66   68   65 1
    67   69   60 1
    68   70   69 1
    69   71   69 1
    70   72   69 1
    71   73   60 1
    72   74   73 1
    73   75   73 1
    74   76   73 1
    75   13   15 ar
    76   16   17 1
    77   16   36 1
    78   28   30 ar
    79   46   48 ar
    80   57   60 1
@<TRIPOS>SUBSTRUCTURE
     1 RES1 1
     2 SUP2 77

@<TRIPOS>CRYSIN
   9.6830   21.3630   14.3860  90.0000 109.0970  90.0000 231 1

