# MOL2 file generated by ConQuest
# Please check atom types

@<TRIPOS>MOLECULE
BIDJED
    41    42     1
SMALL
NO_CHARGES
****
Generated from CSD

@<TRIPOS>ATOM
      1 C1        15.2245    2.2849    2.1865 C.ar      1 RES1    0.0000
      2 C2        14.4546    0.3563    0.9629 C.ar      1 RES1    0.0000
      3 C3        12.8784    1.8480    1.8537 C.ar      1 RES1    0.0000
      4 C4        16.3788    3.1606    2.6927 C.3       1 RES1    0.0000
      5 N1        14.8372   -0.8643    0.2574 N.pl3     1 RES1    0.0000
      6 O1        12.0679   -0.0218    0.6506 O.3       1 RES1    0.0000
      7 O2        13.9541   -1.5580   -0.2359 O.2       1 RES1    0.0000
      8 O3        10.7120    1.4405    2.5365 O.2       1 RES1    0.0000
      9 H1        13.7564    3.3075    2.8866 H         1 RES1    0.0000
     10 H2        15.4082    4.5490    3.6729 H         1 RES1    0.0000
     11 H3        12.3525   -0.6634    0.1077 H         1 RES1    0.0000
     12 C5        15.4805    1.1391    1.4670 C.ar      1 RES1    0.0000
     13 C6        13.1079    0.6710    1.1309 C.ar      1 RES1    0.0000
     14 C7        13.8886    2.6327    2.3642 C.ar      1 RES1    0.0000
     15 C8        15.9512    4.0400    3.8775 C.3       1 RES1    0.0000
     16 N2        11.4994    2.2707    2.1272 N.pl3     1 RES1    0.0000
     17 O4        16.0009   -1.1515    0.1702 O.2       1 RES1    0.0000
     18 O5        11.2338    3.4506    1.9721 O.2       1 RES1    0.0000
     19 H4        16.3669    0.8719    1.3248 H         1 RES1    0.0000
     20 H5        15.5829    3.4970    4.6207 H         1 RES1    0.0000
     21 H6        16.6197    4.4637    4.2114 H         1 RES1    0.0000
     22 C1B       17.5331    2.2849    3.1989 C.ar      1 RES1    0.0000
     23 C8B       16.8064    4.0400    1.5079 C.3       1 RES1    0.0000
     24 C5B       17.2770    1.1391    3.9184 C.ar      1 RES1    0.0000
     25 C7B       18.8689    2.6327    3.0212 C.ar      1 RES1    0.0000
     26 H2B       17.3493    4.5490    1.7126 H         1 RES1    0.0000
     27 H5B       17.1746    3.4970    0.7647 H         1 RES1    0.0000
     28 H6B       16.1378    4.4637    1.1740 H         1 RES1    0.0000
     29 C2B       18.3029    0.3563    4.4225 C.ar      1 RES1    0.0000
     30 H4B       16.3906    0.8719    4.0606 H         1 RES1    0.0000
     31 C3B       19.8791    1.8480    3.5318 C.ar      1 RES1    0.0000
     32 H1B       19.0011    3.3075    2.4988 H         1 RES1    0.0000
     33 N1B       17.9204   -0.8643    5.1280 N.pl3     1 RES1    0.0000
     34 C6B       19.6496    0.6710    4.2545 C.ar      1 RES1    0.0000
     35 N2B       21.2581    2.2707    3.2582 N.pl3     1 RES1    0.0000
     36 O2B       18.8034   -1.5580    5.6213 O.2       1 RES1    0.0000
     37 O4B       16.7566   -1.1515    5.2153 O.2       1 RES1    0.0000
     38 O1B       20.6897   -0.0218    4.7349 O.3       1 RES1    0.0000
     39 O3B       22.0455    1.4405    2.8489 O.2       1 RES1    0.0000
     40 O5B       21.5238    3.4506    3.4133 O.2       1 RES1    0.0000
     41 H3B       20.4050   -0.6634    5.2777 H         1 RES1    0.0000
@<TRIPOS>BOND
     1    1    4 1
     2    2    5 1
     3    3   13 ar
     4    4   15 1
     5    5    7 2
     6    6   11 1
     7    8   16 2
     8    9   14 1
     9   10   15 1
    10   12    1 ar
    11   13    2 ar
    12   14    1 ar
    13   15   20 1
    14   16    3 1
    15   17    5 2
    16   18   16 2
    17   19   12 1
    18   21   15 1
    19   22    4 1
    20   23    4 1
    21   24   22 ar
    22   25   22 ar
    23   26   23 1
    24   27   23 1
    25   28   23 1
    26   29   24 ar
    27   30   24 1
    28   31   25 ar
    29   32   25 1
    30   33   29 1
    31   34   29 ar
    32   35   31 1
    33   36   33 2
    34   37   33 2
    35   38   34 1
    36   39   35 2
    37   40   35 2
    38   41   38 1
    39    2   12 ar
    40    3   14 ar
    41    6   13 1
    42   31   34 ar
@<TRIPOS>SUBSTRUCTURE
     1 RES1 1

@<TRIPOS>CRYSIN
  17.2020    9.4770   11.2630  90.0000 107.0000  90.0000  15 1

