# MOL2 file generated by ConQuest
# Please check atom types

@<TRIPOS>MOLECULE
BIDJUT
    21    22     1
SMALL
NO_CHARGES
****
Generated from CSD

@<TRIPOS>ATOM
      1 C1         6.3302    0.1031    1.6745 C.2       1 RES1    0.0000
      2 C2         4.9622   -0.5322    1.6745 C.3       1 RES1    0.0000
      3 C3         4.8575   -1.4364    0.4267 C.3       1 RES1    0.0000
      4 C4         5.9956   -2.4625    0.4146 C.3       1 RES1    0.0000
      5 C5         6.8367   -2.3002    1.6745 C.3       1 RES1    0.0000
      6 N1         7.3136   -0.8944    1.6745 N.am      1 RES1    0.0000
      7 N2         8.6112   -0.5134    1.6745 N.2       1 RES1    0.0000
      8 O1         6.5866    1.2769    1.6745 O.2       1 RES1    0.0000
      9 O2         9.3960   -1.4559    1.6745 O.2       1 RES1    0.0000
     10 H1         4.2509    0.2243    1.6745 H         1 RES1    0.0000
     11 H2         3.9773   -1.8961    0.4488 H         1 RES1    0.0000
     12 H3         4.9028   -0.9077   -0.3443 H         1 RES1    0.0000
     13 H4         5.6142   -3.3827    0.3845 H         1 RES1    0.0000
     14 H5         6.5710   -2.3037   -0.3717 H         1 RES1    0.0000
     15 H6         7.6356   -2.9236    1.6745 H         1 RES1    0.0000
     16 C3G        4.8575   -1.4364    2.9223 C.3       1 RES1    0.0000
     17 C4G        5.9956   -2.4625    2.9344 C.3       1 RES1    0.0000
     18 H2G        3.9773   -1.8961    2.9002 H         1 RES1    0.0000
     19 H3G        4.9028   -0.9077    3.6933 H         1 RES1    0.0000
     20 H4G        5.6142   -3.3827    2.9645 H         1 RES1    0.0000
     21 H5G        6.5710   -2.3037    3.7207 H         1 RES1    0.0000
@<TRIPOS>BOND
     1    1    2 1
     2    2    3 1
     3    3    4 1
     4    4    5 1
     5    5    6 1
     6    6    1 1
     7    7    6 1
     8    8    1 2
     9    9    7 2
    10   10    2 1
    11   11    3 1
    12   12    3 1
    13   13    4 1
    14   14    4 1
    15   15    5 1
    16   16    2 1
    17   17    5 1
    18   18   16 1
    19   19   16 1
    20   20   17 1
    21   21   17 1
    22   16   17 1
@<TRIPOS>SUBSTRUCTURE
     1 RES1 1

@<TRIPOS>CRYSIN
  15.6340    6.9660    6.6980  90.0000  90.0000  90.0000  62 4

