# MOL2 file generated by ConQuest
# Please check atom types

@<TRIPOS>MOLECULE
BIDJON
    15    14     1
SMALL
NO_CHARGES
****
Generated from CSD

@<TRIPOS>ATOM
      1 O1         2.7786    0.2797    6.1907 O.2       1 RES1    0.0000
      2 O2         1.0469   -3.1919    4.0845 O.2       1 RES1    0.0000
      3 N1         3.2586   -1.8154    6.8957 N.am      1 RES1    0.0000
      4 N2         1.8288   -1.4631    5.0878 N.am      1 RES1    0.0000
      5 N3         1.7886   -2.7898    4.9760 N.2       1 RES1    0.0000
      6 C1         2.6675   -0.9306    6.1120 C.2       1 RES1    0.0000
      7 C2         1.0478   -0.6081    4.2084 C.3       1 RES1    0.0000
      8 C3         4.1890   -1.4044    7.9340 C.3       1 RES1    0.0000
      9 H1         3.1197   -2.6385    6.7469 H         1 RES1    0.0000
     10 H2         1.2388    0.2847    4.4993 H         1 RES1    0.0000
     11 H3         0.1377   -0.8301    4.2118 H         1 RES1    0.0000
     12 H4         1.1920   -0.8152    3.3129 H         1 RES1    0.0000
     13 H5         4.5242   -2.1051    8.4579 H         1 RES1    0.0000
     14 H6         3.8460   -0.7664    8.5266 H         1 RES1    0.0000
     15 H7         4.9323   -0.9286    7.6061 H         1 RES1    0.0000
@<TRIPOS>BOND
     1    1    6 2
     2    2    5 2
     3    3    6 1
     4    4    5 1
     5    6    4 1
     6    7    4 1
     7    8    3 1
     8    9    3 1
     9   10    7 1
    10   11    7 1
    11   12    7 1
    12   13    8 1
    13   14    8 1
    14   15    8 1
@<TRIPOS>SUBSTRUCTURE
     1 RES1 1

@<TRIPOS>CRYSIN
   8.4120    9.9530    7.4350  90.0000 115.0900  90.0000  14 2

