# MOL2 file generated by ConQuest
# Please check atom types

@<TRIPOS>MOLECULE
BIDKUV
    57    60     1
SMALL
NO_CHARGES
****
Generated from CSD

@<TRIPOS>ATOM
      1 C1         6.7556    4.0081    7.5397 C.3       1 RES1    0.0000
      2 H1         6.3507    3.9206    6.6632 H         1 RES1    0.0000
      3 H2         7.1674    4.8834    7.6052 H         1 RES1    0.0000
      4 C2         7.7909    2.9155    7.7583 C.3       1 RES1    0.0000
      5 H3         8.2227    2.6757    6.9232 H         1 RES1    0.0000
      6 H4         8.4673    3.2003    8.3933 H         1 RES1    0.0000
      7 C3         6.9957    1.7579    8.3047 C.3       1 RES1    0.0000
      8 H5         7.4604    1.0548    8.8046 H         1 RES1    0.0000
      9 C4         5.7073    1.4280    7.6081 C.3       1 RES1    0.0000
     10 H6         5.3698    0.5220    7.6901 H         1 RES1    0.0000
     11 H7         5.5355    1.8517    6.7534 H         1 RES1    0.0000
     12 C5         5.6820    2.3006    8.8423 C.3       1 RES1    0.0000
     13 C6         5.1095    1.7324   10.1121 C.3       1 RES1    0.0000
     14 H8         5.3499    0.7843   10.1739 H         1 RES1    0.0000
     15 O1         3.6764    1.8573   10.1943 O.3       1 RES1    0.0000
     16 C7         5.6758    2.4560   11.3038 C.3       1 RES1    0.0000
     17 H9         6.6275    2.2808   11.3654 H         1 RES1    0.0000
     18 H10        5.2563    2.1230   12.1137 H         1 RES1    0.0000
     19 C8         5.4413    3.9671   11.1916 C.3       1 RES1    0.0000
     20 H11        4.4856    4.0802   11.0071 H         1 RES1    0.0000
     21 C9         6.1853    4.5328    9.9645 C.3       1 RES1    0.0000
     22 H12        7.1352    4.3164   10.0731 H         1 RES1    0.0000
     23 C10        5.6881    3.8257    8.6491 C.3       1 RES1    0.0000
     24 C11        6.0754    6.0651    9.8114 C.3       1 RES1    0.0000
     25 H13        6.2441    6.2789    8.8816 H         1 RES1    0.0000
     26 H14        5.1559    6.3123    9.9961 H         1 RES1    0.0000
     27 C12        6.9819    6.9695   10.6680 C.3       1 RES1    0.0000
     28 H15        6.9021    7.8746   10.3278 H         1 RES1    0.0000
     29 H16        6.6268    6.9722   11.5697 H         1 RES1    0.0000
     30 C13        8.4750    6.6357   10.7556 C.3       1 RES1    0.0000
     31 H17        8.8899    7.3869   11.2274 H         1 RES1    0.0000
     32 C14        5.6935    4.6349   12.5621 C.3       1 RES1    0.0000
     33 H18        5.5976    5.6046   12.4587 H         1 RES1    0.0000
     34 O2         4.6997    4.1730   13.4949 O.3       1 RES1    0.0000
     35 H19        3.9963    4.0324   13.0982 H         1 RES1    0.0000
     36 C15        7.0355    4.3488   13.2303 C.3       1 RES1    0.0000
     37 H20        7.3339    3.4744   12.9363 H         1 RES1    0.0000
     38 H21        6.8852    4.2920   14.1861 H         1 RES1    0.0000
     39 C16        8.1828    5.3396   12.9947 C.3       1 RES1    0.0000
     40 H22        7.8684    6.2249   13.2362 H         1 RES1    0.0000
     41 H23        8.9029    5.1151   13.6050 H         1 RES1    0.0000
     42 C17        8.7557    5.4099   11.5992 C.2       1 RES1    0.0000
     43 N1         9.5221    4.5242   11.0857 N.2       1 RES1    0.0000
     44 O3         9.7611    3.4475   11.9797 O.3       1 RES1    0.0000
     45 H24       10.1929    2.8650   11.5962 H         1 RES1    0.0000
     46 C18        9.1330    6.5945    9.3813 C.3       1 RES1    0.0000
     47 H25       10.0817    6.4917    9.4840 H         1 RES1    0.0000
     48 H26        8.9482    7.4121    8.9134 H         1 RES1    0.0000
     49 H27        8.7825    5.8534    8.8816 H         1 RES1    0.0000
     50 C19        4.3146    4.3299    8.1848 C.3       1 RES1    0.0000
     51 H28        4.0032    3.7854    7.4593 H         1 RES1    0.0000
     52 H29        4.3905    5.2413    7.8918 H         1 RES1    0.0000
     53 H30        3.6919    4.2785    8.9134 H         1 RES1    0.0000
     54 C20        2.9518    0.9673    9.3842 C.3       1 RES1    0.0000
     55 H31        3.0093    1.2486    8.4676 H         1 RES1    0.0000
     56 H32        2.0323    0.9601    9.6591 H         1 RES1    0.0000
     57 H33        3.3184    0.0847    9.4707 H         1 RES1    0.0000
@<TRIPOS>BOND
     1    1    2 1
     2    3    1 1
     3    4    1 1
     4    5    4 1
     5    6    4 1
     6    7    4 1
     7    8    7 1
     8    9    7 1
     9   10    9 1
    10   11    9 1
    11   12    7 1
    12   13   12 1
    13   14   13 1
    14   15   13 1
    15   16   13 1
    16   17   16 1
    17   18   16 1
    18   19   16 1
    19   20   19 1
    20   21   19 1
    21   22   21 1
    22   23    1 1
    23   24   21 1
    24   25   24 1
    25   26   24 1
    26   27   24 1
    27   28   27 1
    28   29   27 1
    29   30   27 1
    30   31   30 1
    31   32   19 1
    32   33   32 1
    33   34   32 1
    34   35   34 1
    35   36   32 1
    36   37   36 1
    37   38   36 1
    38   39   36 1
    39   40   39 1
    40   41   39 1
    41   42   30 1
    42   43   42 2
    43   44   43 1
    44   45   44 1
    45   46   30 1
    46   47   46 1
    47   48   46 1
    48   49   46 1
    49   50   23 1
    50   51   50 1
    51   52   50 1
    52   53   50 1
    53   54   15 1
    54   55   54 1
    55   56   54 1
    56   57   54 1
    57    9   12 1
    58   12   23 1
    59   21   23 1
    60   39   42 1
@<TRIPOS>SUBSTRUCTURE
     1 RES1 1

@<TRIPOS>CRYSIN
   7.6690    9.0150   26.5360  90.0000  90.0000  90.0000  19 1

