# MOL2 file generated by ConQuest
# Please check atom types

@<TRIPOS>MOLECULE
BIFRUF
    63    66     1
SMALL
NO_CHARGES
****
Generated from CSD

@<TRIPOS>ATOM
      1 O1         5.9431    4.1493   10.1630 O.3       1 RES1    0.0000
      2 O2         6.6699    5.8128   11.4933 O.2       1 RES1    0.0000
      3 O3         6.6989    1.3257   16.7411 O.2       1 RES1    0.0000
      4 O4         6.9871   -0.2829   15.3197 O.2       1 RES1    0.0000
      5 O5         2.1786    5.7705    8.9724 O.2       1 RES1    0.0000
      6 O6         1.6397    8.6690    8.4543 O.3       1 RES1    0.0000
      7 O7        -0.4463    7.9249    8.8407 O.2       1 RES1    0.0000
      8 N1         6.7859    0.8996   15.5966 N.pl3     1 RES1    0.0000
      9 C1         6.4039    2.2711   12.1571 C.ar      1 RES1    0.0000
     10 C2         6.6390    1.8593   14.4921 C.ar      1 RES1    0.0000
     11 C3         6.5172    4.0946   13.7340 C.ar      1 RES1    0.0000
     12 C4         6.3566    4.6525   11.3379 C.2       1 RES1    0.0000
     13 C5         6.3997    3.6333   12.4243 C.ar      1 RES1    0.0000
     14 C6         5.9937    5.0887    9.0325 C.3       1 RES1    0.0000
     15 C7         0.5573    7.9356    8.1795 C.2       1 RES1    0.0000
     16 C8         6.6258    3.2029   14.7804 C.ar      1 RES1    0.0000
     17 C9         6.5409    1.3594   13.1922 C.ar      1 RES1    0.0000
     18 C10        2.0244    5.6180    5.4073 C.3       1 RES1    0.0000
     19 C11        5.6748    4.3395    7.8004 C.2       1 RES1    0.0000
     20 C12        0.7455    7.1865    6.8908 C.2       1 RES1    0.0000
     21 C13        2.6741    6.0778    7.9042 C.2       1 RES1    0.0000
     22 C14        4.7266    4.9103    7.0647 C.2       1 RES1    0.0000
     23 C15        4.9255    6.1759    9.1001 C.3       1 RES1    0.0000
     24 C16        1.7830    6.3521    6.7185 C.2       1 RES1    0.0000
     25 C17        4.5437    7.4443    6.9270 C.3       1 RES1    0.0000
     26 C18        1.6179    9.4841    9.6541 C.3       1 RES1    0.0000
     27 C19       -0.3306    7.4500    5.8489 C.3       1 RES1    0.0000
     28 C20        0.7044    5.4812    4.6613 C.3       1 RES1    0.0000
     29 C21        0.0288    6.8269    4.5099 C.3       1 RES1    0.0000
     30 C22        4.2669    4.4126    5.7210 C.3       1 RES1    0.0000
     31 C23        4.2017    6.1845    7.7328 C.3       1 RES1    0.0000
     32 C24        2.7502    4.2808    5.5641 C.3       1 RES1    0.0000
     33 C25        3.0428    9.7727   10.0059 C.3       1 RES1    0.0000
     34 C26       -0.6679    8.9268    5.7189 C.3       1 RES1    0.0000
     35 H1         6.3115    1.9624   11.2624 H         1 RES1    0.0000
     36 H2         6.5235    5.0292   13.9071 H         1 RES1    0.0000
     37 H3         6.9034    5.4991    8.9631 H         1 RES1    0.0000
     38 H4         6.6909    3.5094   15.6775 H         1 RES1    0.0000
     39 H5         6.5663    0.4247   13.0232 H         1 RES1    0.0000
     40 H6         2.6131    6.2038    4.8508 H         1 RES1    0.0000
     41 H7         6.1055    3.5288    7.5572 H         1 RES1    0.0000
     42 H8         5.3427    7.0575    9.2741 H         1 RES1    0.0000
     43 H9         4.2838    5.9825    9.8277 H         1 RES1    0.0000
     44 H10        5.5164    7.5109    6.8213 H         1 RES1    0.0000
     45 H11        4.2132    8.2350    7.4009 H         1 RES1    0.0000
     46 H12        4.1217    7.3913    6.0443 H         1 RES1    0.0000
     47 H13        1.1716    8.9985   10.3923 H         1 RES1    0.0000
     48 H14        1.1255   10.3277    9.4893 H         1 RES1    0.0000
     49 H15       -1.1599    6.9916    6.1677 H         1 RES1    0.0000
     50 H16        0.8708    5.0930    3.7656 H         1 RES1    0.0000
     51 H17        0.1087    4.8666    5.1564 H         1 RES1    0.0000
     52 H18       -0.7958    6.7173    3.9725 H         1 RES1    0.0000
     53 H19        0.6320    7.4393    4.0191 H         1 RES1    0.0000
     54 H20        4.6788    3.5273    5.5552 H         1 RES1    0.0000
     55 H21        4.6020    5.0321    5.0249 H         1 RES1    0.0000
     56 H22        2.5583    3.7200    4.7714 H         1 RES1    0.0000
     57 H23        2.3890    3.8124    6.3568 H         1 RES1    0.0000
     58 H24        3.0739   10.3292   10.8116 H         1 RES1    0.0000
     59 H25        3.4717   10.2475    9.2645 H         1 RES1    0.0000
     60 H26        3.5141    8.9297   10.1717 H         1 RES1    0.0000
     61 H27       -1.3642    9.0443    5.0386 H         1 RES1    0.0000
     62 H28        0.1355    9.4232    5.4538 H         1 RES1    0.0000
     63 H29       -0.9916    9.2649    6.5801 H         1 RES1    0.0000
@<TRIPOS>BOND
     1    1   12 1
     2    2   12 2
     3    3    8 2
     4    4    8 2
     5    5   21 2
     6    6   15 1
     7    7   15 2
     8    8   10 1
     9    9   13 ar
    10   10   16 ar
    11   11   13 ar
    12   12   13 1
    13   14    1 1
    14   15   20 1
    15   16   11 ar
    16   17    9 ar
    17   18   24 1
    18   19   14 1
    19   20   24 2
    20   21   24 1
    21   22   19 2
    22   23   14 1
    23   25   31 1
    24   26    6 1
    25   27   20 1
    26   28   18 1
    27   29   27 1
    28   30   22 1
    29   31   21 1
    30   32   18 1
    31   33   26 1
    32   34   27 1
    33   35    9 1
    34   36   11 1
    35   37   14 1
    36   38   16 1
    37   39   17 1
    38   40   18 1
    39   41   19 1
    40   42   23 1
    41   43   23 1
    42   44   25 1
    43   45   25 1
    44   46   25 1
    45   47   26 1
    46   48   26 1
    47   49   27 1
    48   50   28 1
    49   51   28 1
    50   52   29 1
    51   53   29 1
    52   54   30 1
    53   55   30 1
    54   56   32 1
    55   57   32 1
    56   58   33 1
    57   59   33 1
    58   60   33 1
    59   61   34 1
    60   62   34 1
    61   63   34 1
    62   10   17 ar
    63   22   31 1
    64   23   31 1
    65   28   29 1
    66   30   32 1
@<TRIPOS>SUBSTRUCTURE
     1 RES1 1

@<TRIPOS>CRYSIN
  24.1779    7.1621   14.2437  90.0000 105.8390  90.0000  14 1

