# MOL2 file generated by ConQuest
# Please check atom types

@<TRIPOS>MOLECULE
BIFSEO
    56    59     1
SMALL
NO_CHARGES
****
Generated from CSD

@<TRIPOS>ATOM
      1 C1        -2.4106   -1.6819    8.5924 C.3       1 RES1    0.0000
      2 C2        -2.1433   -2.0133    7.1210 C.3       1 RES1    0.0000
      3 C3        -0.6005   -2.0480    6.9216 C.3       1 RES1    0.0000
      4 C4         0.0688   -0.8188    7.4833 C.3       1 RES1    0.0000
      5 C5        -0.3499   -0.6541    8.9233 C.3       1 RES1    0.0000
      6 C6         0.4114    0.4884    9.5427 C.3       1 RES1    0.0000
      7 C7        -4.1299   -1.5692   10.1842 C.3       1 RES1    0.0000
      8 C8         2.1657    0.0684    8.0586 C.3       1 RES1    0.0000
      9 C9         3.6484   -0.1801    7.9560 C.ar      1 RES1    0.0000
     10 C10        4.4957    0.4046    8.8308 C.ar      1 RES1    0.0000
     11 C11        5.8692    0.2090    8.7341 C.ar      1 RES1    0.0000
     12 C12        6.3820   -0.5616    7.7582 C.ar      1 RES1    0.0000
     13 C13        5.5502   -1.1588    6.8893 C.ar      1 RES1    0.0000
     14 C14        4.1690   -0.9797    6.9759 C.ar      1 RES1    0.0000
     15 C15       -3.6732   -1.5201    5.2296 C.ar      1 RES1    0.0000
     16 C16       -3.5671   -2.8061    4.6840 C.ar      1 RES1    0.0000
     17 C17       -4.4372   -3.2463    3.7098 C.ar      1 RES1    0.0000
     18 C18       -5.4129   -2.4304    3.2202 C.ar      1 RES1    0.0000
     19 C19       -5.5285   -1.1444    3.7030 C.ar      1 RES1    0.0000
     20 C20       -4.6672   -0.6714    4.7120 C.ar      1 RES1    0.0000
     21 C21       -4.8763    0.6897    5.2381 C.2       1 RES1    0.0000
     22 C22       -6.2046    2.6433    5.1116 C.3       1 RES1    0.0000
     23 N1        -2.8142   -1.0991    6.2283 N.pl3     1 RES1    0.0000
     24 N2        -0.2654   -2.2483    5.4723 N.pl3     1 RES1    0.0000
     25 O1        -3.7614   -1.5307    8.7935 O.3       1 RES1    0.0000
     26 O2         1.4831   -1.0076    7.4197 O.3       1 RES1    0.0000
     27 O3        -1.7621   -0.4441    8.9708 O.3       1 RES1    0.0000
     28 O4         1.8064    0.1830    9.4087 O.3       1 RES1    0.0000
     29 O5        -4.2920    1.1877    6.1732 O.2       1 RES1    0.0000
     30 O6        -5.8440    1.3457    4.5847 O.3       1 RES1    0.0000
     31 O7        -0.0298   -1.2812    4.7875 O.2       1 RES1    0.0000
     32 O8        -0.2858   -3.3908    5.0556 O.2       1 RES1    0.0000
     33 H1        -2.0651   -2.3794    9.1728 H         1 RES1    0.0000
     34 H2        -2.4888   -2.8995    6.9411 H         1 RES1    0.0000
     35 H3        -0.2726   -2.7839    7.3484 H         1 RES1    0.0000
     36 H4        -0.1844    0.0096    7.0005 H         1 RES1    0.0000
     37 H5        -0.1227   -1.3775    9.4273 H         1 RES1    0.0000
     38 H6         0.2180    0.5972   10.4880 H         1 RES1    0.0000
     39 H7         0.1728    1.3197    9.0964 H         1 RES1    0.0000
     40 H8        -5.0087   -1.5027   10.2589 H         1 RES1    0.0000
     41 H9        -3.6533   -0.9344   10.6153 H         1 RES1    0.0000
     42 H10       -3.8125   -2.4371   10.6153 H         1 RES1    0.0000
     43 H11        1.8928    0.8670    7.6114 H         1 RES1    0.0000
     44 H12        4.1883    0.7995    9.5207 H         1 RES1    0.0000
     45 H13        6.4925    0.5876    9.4443 H         1 RES1    0.0000
     46 H14        7.3208   -0.6550    7.6963 H         1 RES1    0.0000
     47 H15        5.8675   -1.7147    6.2198 H         1 RES1    0.0000
     48 H16        3.5790   -1.2812    6.2877 H         1 RES1    0.0000
     49 H17       -2.8699   -3.3041    4.9725 H         1 RES1    0.0000
     50 H18       -4.3490   -4.0555    3.4027 H         1 RES1    0.0000
     51 H19       -5.9928   -2.6780    2.5796 H         1 RES1    0.0000
     52 H20       -6.2156   -0.5009    3.3433 H         1 RES1    0.0000
     53 H21       -5.3184    3.2463    4.9979 H         1 RES1    0.0000
     54 H22       -6.8971    3.0151    4.4973 H         1 RES1    0.0000
     55 H23       -6.5423    2.4660    6.1010 H         1 RES1    0.0000
     56 H24       -2.9562   -0.4528    6.5423 H         1 RES1    0.0000
@<TRIPOS>BOND
     1    1    2 1
     2    2    3 1
     3    3    4 1
     4    4    5 1
     5    5    6 1
     6    6   28 1
     7    7   25 1
     8    8    9 1
     9    9   10 ar
    10   10   11 ar
    11   11   12 ar
    12   12   13 ar
    13   13   14 ar
    14   14    9 ar
    15   15   16 ar
    16   16   17 ar
    17   17   18 ar
    18   18   19 ar
    19   19   20 ar
    20   20   15 ar
    21   21   20 1
    22   22   30 1
    23   23    2 1
    24   24    3 1
    25   25    1 1
    26   26    4 1
    27   27    1 1
    28   28    8 1
    29   29   21 2
    30   30   21 1
    31   31   24 2
    32   32   24 2
    33   33    1 1
    34   34    2 1
    35   35    3 1
    36   36    4 1
    37   37    5 1
    38   38    6 1
    39   39    6 1
    40   40    7 1
    41   41    7 1
    42   42    7 1
    43   43    8 1
    44   44   10 1
    45   45   11 1
    46   46   12 1
    47   47   13 1
    48   48   14 1
    49   49   16 1
    50   50   17 1
    51   51   18 1
    52   52   19 1
    53   53   22 1
    54   54   22 1
    55   55   22 1
    56   56   23 1
    57    5   27 1
    58    8   26 1
    59   15   23 1
@<TRIPOS>SUBSTRUCTURE
     1 RES1 1

@<TRIPOS>CRYSIN
  13.2670    9.6330    8.8390  90.0000 106.2600  90.0000   4 1

