# MOL2 file generated by ConQuest
# Please check atom types

@<TRIPOS>MOLECULE
BIFXAS
    32    34     1
SMALL
NO_CHARGES
****
Generated from CSD

@<TRIPOS>ATOM
      1 N1         5.1454    7.1054    4.6252 N.2       1 RES1    0.0000
      2 N2         1.3428    9.0849    6.2359 N.pl3     1 RES1    0.0000
      3 O1         0.6618    9.7128    5.4256 O.2       1 RES1    0.0000
      4 O2         0.9751    8.7818    7.3654 O.2       1 RES1    0.0000
      5 O3         0.6404    7.1001    4.1423 O.2       1 RES1    0.0000
      6 O4         1.7105    8.1658    2.4713 O.3       1 RES1    0.0000
      7 O5         3.3434    5.7364    4.2115 O.3       1 RES1    0.0000
      8 C1         3.8919    6.9346    4.4539 C.2       1 RES1    0.0000
      9 C2         2.8398    7.9926    4.5057 C.3       1 RES1    0.0000
     10 C3         3.3568    9.3954    4.7087 C.3       1 RES1    0.0000
     11 H1         2.8379   10.1361    4.2827 H         1 RES1    0.0000
     12 C4         4.8285    9.5612    4.7804 C.ar      1 RES1    0.0000
     13 C5         5.3975   10.8301    4.8414 C.ar      1 RES1    0.0000
     14 H2         4.8403   11.5990    4.8105 H         1 RES1    0.0000
     15 C6         6.7779   10.9798    4.9476 C.ar      1 RES1    0.0000
     16 H3         7.1637   11.8466    4.9990 H         1 RES1    0.0000
     17 C7         7.5859    9.8496    4.9775 C.ar      1 RES1    0.0000
     18 H4         8.5266    9.9468    5.0643 H         1 RES1    0.0000
     19 C8         7.0324    8.5803    4.8812 C.ar      1 RES1    0.0000
     20 H5         7.5973    7.8166    4.8821 H         1 RES1    0.0000
     21 C9         5.6466    8.4227    4.7829 C.ar      1 RES1    0.0000
     22 C10        2.6971    8.6691    5.8575 C.3       1 RES1    0.0000
     23 H6         3.2945    8.3460    6.5911 H         1 RES1    0.0000
     24 C11        1.5843    7.6973    3.7095 C.2       1 RES1    0.0000
     25 C12        0.6056    7.8821    1.5724 C.3       1 RES1    0.0000
     26 H7         0.3324    6.9471    1.6764 H         1 RES1    0.0000
     27 H8         0.8887    8.0386    0.6472 H         1 RES1    0.0000
     28 H9        -0.1489    8.4698    1.7870 H         1 RES1    0.0000
     29 C13        4.2516    4.6309    4.0488 C.3       1 RES1    0.0000
     30 H10        4.8487    4.8084    3.2924 H         1 RES1    0.0000
     31 H11        3.7408    3.8122    3.8780 H         1 RES1    0.0000
     32 H12        4.7812    4.5209    4.8658 H         1 RES1    0.0000
@<TRIPOS>BOND
     1    1    8 2
     2    2    3 2
     3    4    2 2
     4    5   24 2
     5    6   24 1
     6    7    8 1
     7    8    9 1
     8    9   10 1
     9   10   11 1
    10   12   10 1
    11   13   12 ar
    12   14   13 1
    13   15   13 ar
    14   16   15 1
    15   17   15 ar
    16   18   17 1
    17   19   17 ar
    18   20   19 1
    19   21    1 1
    20   22    2 1
    21   23   22 1
    22   24    9 1
    23   25    6 1
    24   26   25 1
    25   27   25 1
    26   28   25 1
    27   29    7 1
    28   30   29 1
    29   31   29 1
    30   32   29 1
    31    9   22 1
    32   10   22 1
    33   12   21 ar
    34   19   21 ar
@<TRIPOS>SUBSTRUCTURE
     1 RES1 1

@<TRIPOS>CRYSIN
  13.7540   14.2301   13.1101  90.0000 106.5570  90.0000  15 1

