# MOL2 file generated by ConQuest
# Please check atom types

@<TRIPOS>MOLECULE
BIFZOI
    49    34     2
SMALL
NO_CHARGES
****
Generated from CSD

@<TRIPOS>ATOM
      1 N1         4.6784    1.6918    8.2926 N.2       1 RES1    0.0000
      2 C1         4.9925    2.9175    8.3267 C.2       1 RES1    0.0000
      3 H1         5.2851    3.2873    9.1278 H         1 RES1    0.0000
      4 C2         4.9084    3.7723    7.1376 C.ar      1 RES1    0.0000
      5 C3         4.4514    3.2813    5.9218 C.ar      1 RES1    0.0000
      6 H2         4.1824    2.3944    5.8507 H         1 RES1    0.0000
      7 C4         4.3971    4.1029    4.8290 C.ar      1 RES1    0.0000
      8 H3         4.0907    3.7771    4.0130 H         1 RES1    0.0000
      9 C5         4.7968    5.4083    4.9445 C.ar      1 RES1    0.0000
     10 C6         5.2561    5.9195    6.1187 C.ar      1 RES1    0.0000
     11 H4         5.5282    6.8064    6.1765 H         1 RES1    0.0000
     12 C7         5.3104    5.0896    7.2264 C.ar      1 RES1    0.0000
     13 H5         5.6206    5.4237    8.0364 H         1 RES1    0.0000
     14 N2         4.7556    6.2762    3.7568 N.pl3     1 RES1    0.0000
     15 O1         4.5026    5.7721    2.6803 O.2       1 RES1    0.0000
     16 O2         4.9795    7.4662    3.9138 O.2       1 RES1    0.0000
     17 C8         4.7410    0.9238    9.4876 C.ar      1 RES1    0.0000
     18 C9         4.9825   -0.4530    9.4758 C.ar      1 RES1    0.0000
     19 C10        5.6474   -1.0855    8.2348 C.3       1 RES1    0.0000
     20 H6         6.0318   -0.3804    7.6884 H         1 RES1    0.0000
     21 H7         6.3733   -1.6621    8.5251 H         1 RES1    0.0000
     22 C11        4.6768   -1.8939    7.3952 C.3       1 RES1    0.0000
     23 H8         3.9447   -1.3327    7.1227 H         1 RES1    0.0000
     24 H9         4.3368   -2.6274    7.9135 H         1 RES1    0.0000
     25 H10        5.1254   -2.2327    6.6178 H         1 RES1    0.0000
     26 C12        5.0742   -1.0878   10.7167 C.ar      1 RES1    0.0000
     27 H11        5.3241   -1.9831   10.7433 H         1 RES1    0.0000
     28 C13        4.7991   -0.4423   11.8969 C.ar      1 RES1    0.0000
     29 H12        4.9061   -0.8881   12.7054 H         1 RES1    0.0000
     30 C14        4.3788    0.8560   11.8791 C.ar      1 RES1    0.0000
     31 H13        4.0953    1.2781   12.6610 H         1 RES1    0.0000
     32 C15        4.3712    1.5456   10.6678 C.ar      1 RES1    0.0000
     33 H14        4.1136    2.4360   10.6515 H         1 RES1    0.0000
     34 C16        5.2958   -0.3388    9.3070 Du        2 SUP2    0.0000
     35 C17        5.3799   -0.9178    7.8765 Du        2 SUP2    0.0000
     36 H15        4.7181   -0.4898    7.3093 Du        2 SUP2    0.0000
     37 H16        6.2572   -0.7454    7.5004 Du        2 SUP2    0.0000
     38 C18        5.1277   -2.4182    7.9239 Du        2 SUP2    0.0000
     39 H17        5.0123   -2.7523    7.0309 Du        2 SUP2    0.0000
     40 H18        4.3284   -2.5918    8.4318 Du        2 SUP2    0.0000
     41 H19        5.8705   -2.8569    8.3385 Du        2 SUP2    0.0000
     42 C19        5.2806   -1.2174   10.3924 Du        2 SUP2    0.0000
     43 H20        5.5702   -2.0948   10.2724 Du        2 SUP2    0.0000
     44 C20        4.8526   -0.8132   11.6304 Du        2 SUP2    0.0000
     45 H21        4.8381   -1.4207   12.3337 Du        2 SUP2    0.0000
     46 C21        4.4552    0.4756   11.8347 Du        2 SUP2    0.0000
     47 H22        4.2321    0.7704   12.6891 Du        2 SUP2    0.0000
     48 C22        4.3865    1.3434   10.7537 Du        2 SUP2    0.0000
     49 H23        4.0991    2.2244   10.8825 Du        2 SUP2    0.0000
@<TRIPOS>BOND
     1    1    2 2
     2    2    3 1
     3    4    2 1
     4    5    4 ar
     5    6    5 1
     6    7    5 ar
     7    8    7 1
     8    9    7 ar
     9   10    9 ar
    10   11   10 1
    11   12    4 ar
    12   13   12 1
    13   14    9 1
    14   15   14 2
    15   16   14 2
    16   17    1 1
    17   18   17 ar
    18   19   18 1
    19   20   19 1
    20   21   19 1
    21   22   19 1
    22   23   22 1
    23   24   22 1
    24   25   22 1
    25   26   18 ar
    26   27   26 1
    27   28   26 ar
    28   29   28 1
    29   30   28 ar
    30   31   30 1
    31   32   17 ar
    32   33   32 1
    33   10   12 ar
    34   30   32 ar
@<TRIPOS>SUBSTRUCTURE
     1 RES1 1
     2 SUP2 34

@<TRIPOS>CRYSIN
   7.6419   11.8889   14.8082  90.0000  90.0000  90.0000  19 1

