# MOL2 file generated by ConQuest
# Please check atom types

@<TRIPOS>MOLECULE
BIGCEZ
    30    29     1
SMALL
NO_CHARGES
****
Generated from CSD

@<TRIPOS>ATOM
      1 O1        -0.8593    3.6394    2.1380 O.3       1 RES1    0.0000
      2 O2         1.9476    3.0157    5.7067 O.2       1 RES1    0.0000
      3 N1        -0.0765    2.7866    2.9107 N.2       1 RES1    0.0000
      4 N2         1.4221    1.2445    4.4102 N.am      1 RES1    0.0000
      5 C1         0.4140    4.8587    4.1582 C.3       1 RES1    0.0000
      6 C2         0.5071    3.4054    3.8598 C.2       1 RES1    0.0000
      7 C3         1.3575    2.5328    4.7453 C.2       1 RES1    0.0000
      8 C4         2.1742    0.2752    5.1804 C.3       1 RES1    0.0000
      9 H1        -1.1586    3.1312    1.4873 H         1 RES1    0.0000
     10 H2         0.7494    5.4752    3.4110 H         1 RES1    0.0000
     11 H3        -0.5529    5.1245    4.3204 H         1 RES1    0.0000
     12 H4         0.7855    5.0615    4.9720 H         1 RES1    0.0000
     13 H5         0.9458    1.0097    3.7299 H         1 RES1    0.0000
     14 H6         2.4485   -0.4408    4.6071 H         1 RES1    0.0000
     15 H7         2.9641    0.6731    5.5119 H         1 RES1    0.0000
     16 C4B        1.3551   -0.2752    6.3315 C.3       1 RES1    0.0000
     17 N2B        2.1072   -1.2445    7.1017 N.am      1 RES1    0.0000
     18 C3B        2.1719   -2.5328    6.7666 C.2       1 RES1    0.0000
     19 O2B        1.5817   -3.0157    5.8052 O.2       1 RES1    0.0000
     20 C2B        3.0222   -3.4054    7.6521 C.2       1 RES1    0.0000
     21 N1B        3.6058   -2.7866    8.6012 N.2       1 RES1    0.0000
     22 O1B        4.3886   -3.6394    9.3739 O.3       1 RES1    0.0000
     23 H1B        4.6879   -3.1312   10.0246 H         1 RES1    0.0000
     24 C1B        3.1153   -4.8587    7.3537 C.3       1 RES1    0.0000
     25 H2B        2.7799   -5.4752    8.1009 H         1 RES1    0.0000
     26 H3B        4.0822   -5.1245    7.1915 H         1 RES1    0.0000
     27 H4B        2.7438   -5.0615    6.5399 H         1 RES1    0.0000
     28 H5B        2.5835   -1.0097    7.7820 H         1 RES1    0.0000
     29 H6B        1.0809    0.4408    6.9048 H         1 RES1    0.0000
     30 H7B        0.5653   -0.6731    6.0000 H         1 RES1    0.0000
@<TRIPOS>BOND
     1    1    3 1
     2    2    7 2
     3    3    6 2
     4    4    7 1
     5    5    6 1
     6    6    7 1
     7    8    4 1
     8    9    1 1
     9   10    5 1
    10   11    5 1
    11   12    5 1
    12   13    4 1
    13   14    8 1
    14   15    8 1
    15   16    8 1
    16   17   16 1
    17   18   17 1
    18   19   18 2
    19   20   18 1
    20   21   20 2
    21   22   21 1
    22   23   22 1
    23   24   20 1
    24   25   24 1
    25   26   24 1
    26   27   24 1
    27   28   17 1
    28   29   16 1
    29   30   16 1
@<TRIPOS>SUBSTRUCTURE
     1 RES1 1

@<TRIPOS>CRYSIN
   4.4030   10.8570   11.5450  90.0000  94.3400  90.0000  14 1

