# MOL2 file generated by ConQuest
# Please check atom types

@<TRIPOS>MOLECULE
BIGQUD
    60    64     1
SMALL
NO_CHARGES
****
Generated from CSD

@<TRIPOS>ATOM
      1 O1         4.7609   -0.3298    5.2818 O.3       1 RES1    0.0000
      2 O2         5.2690   -2.4470    8.6128 O.3       1 RES1    0.0000
      3 O3         5.9506    0.0969   14.2252 O.3       1 RES1    0.0000
      4 O4         5.1215   -3.4946    3.1157 O.2       1 RES1    0.0000
      5 O5         3.2609   -3.2404    2.0754 O.2       1 RES1    0.0000
      6 O6         5.5547   -2.2141    6.2884 O.3       1 RES1    0.0000
      7 N1         4.0584   -2.9336    2.9350 N.pl3     1 RES1    0.0000
      8 N2         4.3523   -1.3782    6.1092 N.3       1 RES1    0.0000
      9 C1         4.8393   -0.7945    3.9102 C.3       1 RES1    0.0000
     10 H1         5.6967   -1.2477    3.7887 H         1 RES1    0.0000
     11 C2         3.6850   -1.7981    3.8258 C.3       1 RES1    0.0000
     12 H2         2.8818   -1.4322    3.3755 H         1 RES1    0.0000
     13 C3         3.4069   -2.1855    5.2924 C.3       1 RES1    0.0000
     14 H3         2.5170   -1.8223    5.4958 H         1 RES1    0.0000
     15 C4         3.4562   -3.6641    5.7200 C.3       1 RES1    0.0000
     16 H4         4.1489   -4.0950    5.2218 H         1 RES1    0.0000
     17 C5         3.8533   -3.6882    7.2005 C.3       1 RES1    0.0000
     18 H5         3.2339   -3.1287    7.7380 H         1 RES1    0.0000
     19 H6         3.8561   -4.6273    7.5515 H         1 RES1    0.0000
     20 C6         5.2381   -3.0890    7.3736 C.3       1 RES1    0.0000
     21 H7         5.9537   -3.7892    7.3335 H         1 RES1    0.0000
     22 C7         6.5591   -1.9684    9.0097 C.3       1 RES1    0.0000
     23 H8         6.8993   -1.3402    8.3764 H         1 RES1    0.0000
     24 H9         7.1622   -2.7154    8.9502 H         1 RES1    0.0000
     25 C8         6.4313   -1.4006   10.3855 C.ar      1 RES1    0.0000
     26 C9         5.8280   -2.1337   11.4057 C.ar      1 RES1    0.0000
     27 H10        5.4925   -2.9884   11.2254 H         1 RES1    0.0000
     28 C10        5.6777   -1.6048   12.6621 C.ar      1 RES1    0.0000
     29 H11        5.2652   -2.1137   13.3945 H         1 RES1    0.0000
     30 C11        6.1505   -0.3394   12.9426 C.ar      1 RES1    0.0000
     31 C12        6.7738    0.3932   11.9618 C.ar      1 RES1    0.0000
     32 H12        7.1059    1.3415   12.1493 H         1 RES1    0.0000
     33 C13        6.8928   -0.1439   10.6864 C.ar      1 RES1    0.0000
     34 H13        7.2734    0.3254   10.0032 H         1 RES1    0.0000
     35 C14        6.5493    1.3107   14.6224 C.3       1 RES1    0.0000
     36 H14        6.2667    1.4511   15.5363 H         1 RES1    0.0000
     37 H15        6.2691    1.9880   13.9439 H         1 RES1    0.0000
     38 H16        7.5574    1.2466   14.4030 H         1 RES1    0.0000
     39 C15        4.7240    0.3804    2.9893 C.ar      1 RES1    0.0000
     40 C16        3.7265    1.3301    3.1717 C.ar      1 RES1    0.0000
     41 H17        3.1358    1.2071    3.9723 H         1 RES1    0.0000
     42 C17        3.5995    2.3792    2.2923 C.ar      1 RES1    0.0000
     43 H18        2.8369    3.0625    2.4201 H         1 RES1    0.0000
     44 C18        4.4476    2.4869    1.2169 C.ar      1 RES1    0.0000
     45 H19        4.3411    3.2099    0.6068 H         1 RES1    0.0000
     46 C19        5.4443    1.5724    1.0428 C.ar      1 RES1    0.0000
     47 H20        6.0641    1.6533    0.2582 H         1 RES1    0.0000
     48 C20        5.5890    0.5185    1.9286 C.ar      1 RES1    0.0000
     49 H21        6.3060   -0.1049    1.8362 H         1 RES1    0.0000
     50 C21        2.1599   -4.3763    5.4262 C.ar      1 RES1    0.0000
     51 C22        2.0930   -5.3471    4.4437 C.ar      1 RES1    0.0000
     52 H22        2.8944   -5.5617    3.9622 H         1 RES1    0.0000
     53 C23        0.9082   -5.9794    4.1500 C.ar      1 RES1    0.0000
     54 H23        0.8529   -6.6464    3.4142 H         1 RES1    0.0000
     55 C24       -0.2229   -5.6754    4.8359 C.ar      1 RES1    0.0000
     56 H24       -1.0272   -6.1028    4.6767 H         1 RES1    0.0000
     57 C25       -0.1774   -4.7303    5.8300 C.ar      1 RES1    0.0000
     58 H25       -0.9207   -4.4871    6.3895 H         1 RES1    0.0000
     59 C26        1.0019   -4.0756    6.1274 C.ar      1 RES1    0.0000
     60 H26        1.0787   -3.3713    6.8543 H         1 RES1    0.0000
@<TRIPOS>BOND
     1    1    8 1
     2    2   20 1
     3    3   30 1
     4    4    7 2
     5    5    7 2
     6    6    8 1
     7    7   11 1
     8    8   13 1
     9    9    1 1
    10   10    9 1
    11   11    9 1
    12   12   11 1
    13   13   11 1
    14   14   13 1
    15   15   13 1
    16   16   15 1
    17   17   15 1
    18   18   17 1
    19   19   17 1
    20   20    6 1
    21   21   20 1
    22   22    2 1
    23   23   22 1
    24   24   22 1
    25   25   22 1
    26   26   25 ar
    27   27   26 1
    28   28   26 ar
    29   29   28 1
    30   30   28 ar
    31   31   30 ar
    32   32   31 1
    33   33   25 ar
    34   34   33 1
    35   35    3 1
    36   36   35 1
    37   37   35 1
    38   38   35 1
    39   39    9 1
    40   40   39 ar
    41   41   40 1
    42   42   40 ar
    43   43   42 1
    44   44   42 ar
    45   45   44 1
    46   46   44 ar
    47   47   46 1
    48   48   39 ar
    49   49   48 1
    50   50   15 1
    51   51   50 ar
    52   52   51 1
    53   53   51 ar
    54   54   53 1
    55   55   53 ar
    56   56   55 1
    57   57   55 ar
    58   58   57 1
    59   59   50 ar
    60   60   59 1
    61   17   20 1
    62   31   33 ar
    63   46   48 ar
    64   57   59 ar
@<TRIPOS>SUBSTRUCTURE
     1 RES1 1

@<TRIPOS>CRYSIN
   8.9646    9.4791   14.7752  95.6280 100.8510 103.9680   2 1

