# MOL2 file generated by ConQuest
# Please check atom types

@<TRIPOS>MOLECULE
BIGQAJ
    21    22     1
SMALL
NO_CHARGES
****
Generated from CSD

@<TRIPOS>ATOM
      1 O1        -0.1503    2.9548    4.9503 O.3       1 RES1    0.0000
      2 O2        -4.8478    1.6558   -0.1388 O.2       1 RES1    0.0000
      3 O3        -5.4098    1.8053    1.9980 O.3       1 RES1    0.0000
      4 N1        -0.9422    1.8067    4.9374 N.2       1 RES1    0.0000
      5 C1        -2.0918    2.0282    4.3938 C.2       1 RES1    0.0000
      6 C2        -2.5543    3.3377    3.8489 C.3       1 RES1    0.0000
      7 C3        -3.6821    3.1812    2.8288 C.3       1 RES1    0.0000
      8 C4        -3.2788    2.5944    1.4815 C.3       1 RES1    0.0000
      9 C5        -4.5437    1.9774    0.9849 C.2       1 RES1    0.0000
     10 C6        -4.7638    2.2108    3.2641 C.3       1 RES1    0.0000
     11 C7        -4.2220    0.9795    3.9031 C.2       1 RES1    0.0000
     12 C8        -2.9966    0.9034    4.3820 C.2       1 RES1    0.0000
     13 H1        -2.9124    3.9491    4.6597 H         1 RES1    0.0000
     14 H2        -1.7268    3.8292    3.3536 H         1 RES1    0.0000
     15 H3        -4.1256    4.1466    2.6593 H         1 RES1    0.0000
     16 H4        -2.5059    1.8476    1.6003 H         1 RES1    0.0000
     17 H5        -2.9406    3.3709    0.8119 H         1 RES1    0.0000
     18 H6        -5.4782    2.7080    3.9066 H         1 RES1    0.0000
     19 H7        -4.8631    0.1199    3.9419 H         1 RES1    0.0000
     20 H8        -2.6739   -0.0423    4.7774 H         1 RES1    0.0000
     21 H9         0.6307    2.6445    5.4010 H         1 RES1    0.0000
@<TRIPOS>BOND
     1    1    4 1
     2    2    9 2
     3    3    9 1
     4    4    5 2
     5    5    6 1
     6    6    7 1
     7    7    8 1
     8    8    9 1
     9   10    3 1
    10   11   10 1
    11   12    5 1
    12   13    6 1
    13   14    6 1
    14   15    7 1
    15   16    8 1
    16   17    8 1
    17   18   10 1
    18   19   11 1
    19   20   12 1
    20   21    1 1
    21    7   10 1
    22   11   12 2
@<TRIPOS>SUBSTRUCTURE
     1 RES1 1

@<TRIPOS>CRYSIN
   9.5350    7.0520   12.6910  90.0000 112.0000  90.0000  14 1

