# MOL2 file generated by ConQuest
# Please check atom types

@<TRIPOS>MOLECULE
BIHLOV
    48    51     1
SMALL
NO_CHARGES
****
Generated from CSD

@<TRIPOS>ATOM
      1 O1         2.9782    2.4161    7.9594 O.3       1 RES1    0.0000
      2 N1         3.0010    3.8073    7.6525 N.am      1 RES1    0.0000
      3 C1         2.2074    4.5961    8.6297 C.3       1 RES1    0.0000
      4 C2         1.8597    3.5080    9.6666 C.3       1 RES1    0.0000
      5 C3         2.7822    2.3560    9.3584 C.3       1 RES1    0.0000
      6 C4         0.9697    5.1705    7.9714 C.3       1 RES1    0.0000
      7 C5         3.0705    5.6881    9.2362 C.3       1 RES1    0.0000
      8 O2         4.0236    2.5693   10.0405 O.3       1 RES1    0.0000
      9 C6         4.8188    1.4888   10.2114 C.2       1 RES1    0.0000
     10 O3         4.5254    0.3970    9.8219 O.2       1 RES1    0.0000
     11 C7         6.0546    1.8258   10.9620 C.3       1 RES1    0.0000
     12 C8         3.7081    4.1995    6.5888 C.2       1 RES1    0.0000
     13 O4         3.7164    5.3665    6.2190 O.2       1 RES1    0.0000
     14 C9         2.6327    2.8610    4.2468 C.ar      1 RES1    0.0000
     15 C10        2.1000    2.2269    3.1741 C.ar      1 RES1    0.0000
     16 C11        2.7980    1.1785    2.5387 C.ar      1 RES1    0.0000
     17 C12        4.0190    0.8139    2.9709 C.ar      1 RES1    0.0000
     18 C13        4.6407    1.4624    4.0867 C.ar      1 RES1    0.0000
     19 C14        7.7390    1.3397    6.2116 C.ar      1 RES1    0.0000
     20 C15        8.2607    1.9331    7.3013 C.ar      1 RES1    0.0000
     21 C16        7.5660    2.9712    7.9506 C.ar      1 RES1    0.0000
     22 C17        6.3537    3.3754    7.4941 C.ar      1 RES1    0.0000
     23 C18        5.7482    2.7569    6.3555 C.ar      1 RES1    0.0000
     24 C19        4.4813    3.1207    5.8808 C.ar      1 RES1    0.0000
     25 C20        3.9139    2.5049    4.7523 C.ar      1 RES1    0.0000
     26 C21        5.8939    1.0976    4.5691 C.ar      1 RES1    0.0000
     27 C22        6.4668    1.7202    5.6791 C.ar      1 RES1    0.0000
     28 H1         1.9709    3.8007   10.6043 H         1 RES1    0.0000
     29 H2         0.8988    3.1625    9.5278 H         1 RES1    0.0000
     30 H3         2.4256    1.5051    9.5939 H         1 RES1    0.0000
     31 H4         1.2140    5.8308    7.3182 H         1 RES1    0.0000
     32 H5         0.3759    5.6023    8.6685 H         1 RES1    0.0000
     33 H6         0.4723    4.3978    7.5354 H         1 RES1    0.0000
     34 H7         3.3648    6.3311    8.5269 H         1 RES1    0.0000
     35 H8         3.8996    5.3161    9.5939 H         1 RES1    0.0000
     36 H9         2.5397    6.1767    9.9056 H         1 RES1    0.0000
     37 H10        6.8265    1.1657   10.6043 H         1 RES1    0.0000
     38 H11        6.3684    2.6560   10.8026 H         1 RES1    0.0000
     39 H12        5.8405    1.7933   11.9263 H         1 RES1    0.0000
     40 H13        2.1510    3.5990    4.6931 H         1 RES1    0.0000
     41 H14        1.2522    2.4480    2.8329 H         1 RES1    0.0000
     42 H15        2.3606    0.7227    1.7847 H         1 RES1    0.0000
     43 H16        4.4982    0.0988    2.5307 H         1 RES1    0.0000
     44 H17        8.2232    0.6383    5.7696 H         1 RES1    0.0000
     45 H18        9.0952    1.6574    7.6204 H         1 RES1    0.0000
     46 H19        7.9713    3.3828    8.7819 H         1 RES1    0.0000
     47 H20        5.8739    4.1178    7.9414 H         1 RES1    0.0000
     48 H21        6.3942    0.3891    4.1076 H         1 RES1    0.0000
@<TRIPOS>BOND
     1    1    2 1
     2    2    3 1
     3    3    4 1
     4    4    5 1
     5    5    1 1
     6    6    3 1
     7    7    3 1
     8    8    5 1
     9    9    8 1
    10   10    9 2
    11   11    9 1
    12   12    2 1
    13   13   12 2
    14   14   15 ar
    15   15   16 ar
    16   16   17 ar
    17   17   18 ar
    18   18   25 ar
    19   19   20 ar
    20   20   21 ar
    21   21   22 ar
    22   22   23 ar
    23   23   24 ar
    24   24   12 1
    25   25   14 ar
    26   26   18 ar
    27   27   19 ar
    28   28    4 1
    29   29    4 1
    30   30    5 1
    31   31    6 1
    32   32    6 1
    33   33    6 1
    34   34    7 1
    35   35    7 1
    36   36    7 1
    37   37   11 1
    38   38   11 1
    39   39   11 1
    40   40   14 1
    41   41   15 1
    42   42   16 1
    43   43   17 1
    44   44   19 1
    45   45   20 1
    46   46   21 1
    47   47   22 1
    48   48   26 1
    49   23   27 ar
    50   24   25 ar
    51   26   27 ar
@<TRIPOS>SUBSTRUCTURE
     1 RES1 1

@<TRIPOS>CRYSIN
   9.6340   20.5890    9.6710  90.0000 102.4700  90.0000 231 1

