# MOL2 file generated by ConQuest
# Please check atom types

@<TRIPOS>MOLECULE
BIHWUL
    42    44     1
SMALL
NO_CHARGES
****
Generated from CSD

@<TRIPOS>ATOM
      1 O1         8.6219    3.1728    4.0870 O.3       1 RES1    0.0000
      2 O2         7.2443    4.4600    2.3172 O.3       1 RES1    0.0000
      3 N1         8.8723    5.7596    1.6131 N.2       1 RES1    0.0000
      4 C1         7.5818    7.0474   -0.1028 C.ar      1 RES1    0.0000
      5 C2         9.2785    2.2808    4.9197 C.ar      1 RES1    0.0000
      6 C3         7.6987    6.0420    0.9537 C.2       1 RES1    0.0000
      7 C4         8.5297    4.8024    2.4112 C.2       1 RES1    0.0000
      8 N2         6.6911    5.3079    1.3304 N.2       1 RES1    0.0000
      9 O3         4.9504    2.5475    5.7187 O.3       1 RES1    0.0000
     10 C5         6.4673    7.1106   -0.9370 C.ar      1 RES1    0.0000
     11 H1         5.7673    6.5102   -0.8195 H         1 RES1    0.0000
     12 N3         7.3533    9.9767   -3.1310 N.pl3     1 RES1    0.0000
     13 O4         8.3187   10.7102   -3.2943 O.2       1 RES1    0.0000
     14 C6         7.4417    8.9371   -2.0897 C.ar      1 RES1    0.0000
     15 C7        10.6475    2.2688    5.1076 C.ar      1 RES1    0.0000
     16 H2        11.1920    2.8796    4.6647 H         1 RES1    0.0000
     17 C8         6.3985    8.0549   -1.9340 C.ar      1 RES1    0.0000
     18 H3         5.6581    8.0969   -2.4931 H         1 RES1    0.0000
     19 C9         8.5617    8.8780   -1.3014 C.ar      1 RES1    0.0000
     20 H4         9.2714    9.4628   -1.4435 H         1 RES1    0.0000
     21 C10        6.2198    2.4693    6.1168 C.2       1 RES1    0.0000
     22 C11        9.4252    4.0445    3.3243 C.3       1 RES1    0.0000
     23 H5        10.0745    3.5385    2.8114 H         1 RES1    0.0000
     24 H6         9.9024    4.6553    3.9083 H         1 RES1    0.0000
     25 C12        8.6177    7.9378   -0.2985 C.ar      1 RES1    0.0000
     26 H7         9.3636    7.9021    0.2553 H         1 RES1    0.0000
     27 O5         6.2964   10.0974   -3.7252 O.2       1 RES1    0.0000
     28 C13        8.4413    1.3717    5.5756 C.ar      1 RES1    0.0000
     29 O6         6.6726    3.1349    6.9939 O.2       1 RES1    0.0000
     30 C14       10.3941    0.4268    6.6271 C.ar      1 RES1    0.0000
     31 H8        10.7681   -0.1953    7.2083 H         1 RES1    0.0000
     32 C15        6.9558    1.4048    5.3411 C.3       1 RES1    0.0000
     33 H9         6.5868    0.5392    5.5756 H         1 RES1    0.0000
     34 H10        6.7957    1.5447    4.3937 H         1 RES1    0.0000
     35 C16        9.0305    0.4533    6.4165 C.ar      1 RES1    0.0000
     36 H11        8.4945   -0.1668    6.8553 H         1 RES1    0.0000
     37 C17       11.1950    1.3276    5.9683 C.ar      1 RES1    0.0000
     38 H12       12.1148    1.3064    6.1020 H         1 RES1    0.0000
     39 C18        4.1006    3.4618    6.4361 C.3       1 RES1    0.0000
     40 H13        3.2147    3.4297    6.0673 H         1 RES1    0.0000
     41 H14        4.4481    4.3528    6.3541 H         1 RES1    0.0000
     42 H15        4.0718    3.2121    7.3627 H         1 RES1    0.0000
@<TRIPOS>BOND
     1    1    5 1
     2    2    7 1
     3    3    6 1
     4    4    6 1
     5    5   15 ar
     6    6    8 2
     7    7    3 2
     8    8    2 1
     9    9   21 1
    10   10    4 ar
    11   11   10 1
    12   12   13 2
    13   14   12 1
    14   15   16 1
    15   17   10 ar
    16   18   17 1
    17   19   14 ar
    18   20   19 1
    19   21   29 2
    20   22    1 1
    21   23   22 1
    22   24   22 1
    23   25    4 ar
    24   26   25 1
    25   27   12 2
    26   28    5 ar
    27   30   31 1
    28   32   21 1
    29   33   32 1
    30   34   32 1
    31   35   28 ar
    32   36   35 1
    33   37   15 ar
    34   38   37 1
    35   39    9 1
    36   40   39 1
    37   41   39 1
    38   42   39 1
    39    7   22 1
    40   14   17 ar
    41   19   25 ar
    42   28   32 1
    43   30   37 ar
    44   30   35 ar
@<TRIPOS>SUBSTRUCTURE
     1 RES1 1

@<TRIPOS>CRYSIN
  10.4360    5.1800   31.5600  90.0000  92.9400  90.0000  14 1

