# MOL2 file generated by ConQuest
# Please check atom types

@<TRIPOS>MOLECULE
BIHWOF
    66    68     1
SMALL
NO_CHARGES
****
Generated from CSD

@<TRIPOS>ATOM
      1 O1        -0.0775    4.0126    8.5831 O.3       1 RES1    0.0000
      2 O2        -1.6742    3.7769   10.6756 O.3       1 RES1    0.0000
      3 N1        -2.0426    1.6012   10.5099 N.2       1 RES1    0.0000
      4 C1        -4.9412    1.2719   14.4569 C.ar      1 RES1    0.0000
      5 C2        -3.5243    1.3709   12.5231 C.ar      1 RES1    0.0000
      6 O3        -5.5596    2.0074   15.4343 O.3       1 RES1    0.0000
      7 C3        -4.1638    2.0094   13.5798 C.ar      1 RES1    0.0000
      8 H1        -4.0690    2.9270   13.6967 H         1 RES1    0.0000
      9 C4        -1.4448    2.6468    9.9934 C.2       1 RES1    0.0000
     10 C5        -2.6959    2.1404   11.5987 C.2       1 RES1    0.0000
     11 N2        -2.5188    3.4227   11.7657 N.2       1 RES1    0.0000
     12 O4        -4.5148   -2.0609   13.0020 O.3       1 RES1    0.0000
     13 C6         1.2080    5.8017    9.4031 C.ar      1 RES1    0.0000
     14 C7         0.9744    4.4247    9.3753 C.ar      1 RES1    0.0000
     15 C8        -0.5897    2.7387    8.8532 C.2       1 RES1    0.0000
     16 C9        -0.3986    1.6664    8.0499 C.2       1 RES1    0.0000
     17 H2        -0.8924    0.9168    8.2949 H         1 RES1    0.0000
     18 N3         0.3655    1.4863    6.9737 N.3       1 RES1    0.0000
     19 C10       -5.0721   -0.0998   14.3149 C.ar      1 RES1    0.0000
     20 H3        -5.5804   -0.5927   14.9177 H         1 RES1    0.0000
     21 C11       -3.6645    0.0058   12.3616 C.ar      1 RES1    0.0000
     22 H4        -3.2453   -0.4285   11.6543 H         1 RES1    0.0000
     23 O5         1.6338    6.1433    6.7871 O.3       1 RES1    0.0000
     24 C12        1.7654    3.5640   10.1020 C.ar      1 RES1    0.0000
     25 H5         1.5973    2.6489   10.0853 H         1 RES1    0.0000
     26 N4        -1.2673    7.4955   10.3136 N.3       1 RES1    0.0000
     27 C13       -4.4368   -0.7166   13.2666 C.ar      1 RES1    0.0000
     28 C14        0.3474    6.7316    8.6165 C.2       1 RES1    0.0000
     29 C15        2.8041    4.0599   10.8510 C.ar      1 RES1    0.0000
     30 H6         3.3357    3.4767   11.3425 H         1 RES1    0.0000
     31 O6        -0.1284    7.4674    6.4056 O.2       1 RES1    0.0000
     32 C16       -0.7210    7.4438    9.1219 C.2       1 RES1    0.0000
     33 H7        -1.1337    7.9953    8.4968 H         1 RES1    0.0000
     34 C17       -6.1670    1.3126   16.5104 C.3       1 RES1    0.0000
     35 H8        -6.5593    1.9437   17.1175 H         1 RES1    0.0000
     36 H9        -5.5036    0.7940   16.9713 H         1 RES1    0.0000
     37 H10       -6.8490    0.7294   16.1693 H         1 RES1    0.0000
     38 C18        0.5466    6.8630    7.2006 C.2       1 RES1    0.0000
     39 C19        2.2789    6.2598   10.1507 C.ar      1 RES1    0.0000
     40 H11        2.4722    7.1702   10.1591 H         1 RES1    0.0000
     41 C20       -5.2529   -2.8586   13.8931 C.3       1 RES1    0.0000
     42 H12       -5.2305   -3.7716   13.5979 H         1 RES1    0.0000
     43 H13       -6.1625   -2.5522   13.9167 H         1 RES1    0.0000
     44 H14       -4.8708   -2.7947   14.7702 H         1 RES1    0.0000
     45 C21       -0.8180    6.8126   11.4873 C.3       1 RES1    0.0000
     46 H15       -0.0360    6.2962   11.2771 H         1 RES1    0.0000
     47 H16       -1.5120    6.2293   11.8047 H         1 RES1    0.0000
     48 H17       -0.6036    7.4551   12.1681 H         1 RES1    0.0000
     49 C22       -2.4602    8.3233   10.5169 C.3       1 RES1    0.0000
     50 H18       -2.7051    8.7412    9.6871 H         1 RES1    0.0000
     51 H19       -2.2731    8.9987   11.1726 H         1 RES1    0.0000
     52 H20       -3.1838    7.7726   10.8232 H         1 RES1    0.0000
     53 C23        3.0633    5.3966   10.8817 C.ar      1 RES1    0.0000
     54 H21        3.7670    5.7250   11.3940 H         1 RES1    0.0000
     55 C24        1.9269    6.2001    5.3935 C.3       1 RES1    0.0000
     56 H22        2.7042    5.6689    5.2083 H         1 RES1    0.0000
     57 H23        2.0921    7.1107    5.1387 H         1 RES1    0.0000
     58 H24        1.1803    5.8580    4.8965 H         1 RES1    0.0000
     59 C25        1.1336    2.5441    6.3388 C.3       1 RES1    0.0000
     60 H25        1.0695    3.3446    6.8637 H         1 RES1    0.0000
     61 H26        0.7848    2.7088    5.4603 H         1 RES1    0.0000
     62 H27        2.0529    2.2763    6.2734 H         1 RES1    0.0000
     63 C26        0.3969    0.2261    6.2887 C.3       1 RES1    0.0000
     64 H28       -0.1290   -0.4145    6.7732 H         1 RES1    0.0000
     65 H29        1.3041   -0.0835    6.2302 H         1 RES1    0.0000
     66 H30        0.0378    0.3330    5.4046 H         1 RES1    0.0000
@<TRIPOS>BOND
     1    1   14 1
     2    2    9 1
     3    3    9 2
     4    4    6 1
     5    5    7 ar
     6    6   34 1
     7    7    4 ar
     8    8    7 1
     9    9   15 1
    10   10    3 1
    11   11    2 1
    12   12   27 1
    13   13   14 ar
    14   14   24 ar
    15   15    1 1
    16   16   15 2
    17   17   16 1
    18   18   16 1
    19   19    4 ar
    20   20   19 1
    21   21    5 ar
    22   22   21 1
    23   23   38 1
    24   24   25 1
    25   26   32 1
    26   27   19 ar
    27   28   13 1
    28   29   24 ar
    29   30   29 1
    30   31   38 2
    31   32   28 2
    32   33   32 1
    33   34   35 1
    34   36   34 1
    35   37   34 1
    36   38   28 1
    37   39   13 ar
    38   40   39 1
    39   41   12 1
    40   42   41 1
    41   43   41 1
    42   44   41 1
    43   45   26 1
    44   46   45 1
    45   47   45 1
    46   48   45 1
    47   49   26 1
    48   50   49 1
    49   51   49 1
    50   52   49 1
    51   53   29 ar
    52   54   53 1
    53   55   23 1
    54   56   55 1
    55   57   55 1
    56   58   55 1
    57   59   18 1
    58   60   59 1
    59   61   59 1
    60   62   59 1
    61   63   18 1
    62   64   63 1
    63   65   63 1
    64   66   63 1
    65    5   10 1
    66   10   11 2
    67   21   27 ar
    68   39   53 ar
@<TRIPOS>SUBSTRUCTURE
     1 RES1 1

@<TRIPOS>CRYSIN
   8.6500   10.7000   14.8170 107.6600  97.5000  95.1500   2 1

