# MOL2 file generated by ConQuest
# Please check atom types

@<TRIPOS>MOLECULE
BIHXUM
    34    28     2
SMALL
NO_CHARGES
****
Generated from CSD

@<TRIPOS>ATOM
      1 O1         1.8175   16.5110    6.8925 O.3       1 RES1    0.0000
      2 O2        -2.0779   17.5148    9.4051 O.2       1 RES1    0.0000
      3 O3         4.6042   21.7445    5.0113 O.2       1 RES1    0.0000
      4 O4         3.0370   22.5963    6.2125 O.2       1 RES1    0.0000
      5 N1         3.6185   21.6368    5.7288 N.pl3     1 RES1    0.0000
      6 C1        -1.1891   16.8730    8.8913 C.2       1 RES1    0.0000
      7 C2        -0.0053   17.4267    8.2234 C.2       1 RES1    0.0000
      8 C3         1.0133   16.2878    8.0550 C.3       1 RES1    0.0000
      9 H1         1.5702   16.1916    8.8559 H         1 RES1    0.0000
     10 C4         0.0716   15.1111    7.8982 C.3       1 RES1    0.0000
     11 H2         0.5148   14.2929    8.1711 H         1 RES1    0.0000
     12 H3        -0.1955   15.0204    6.9708 H         1 RES1    0.0000
     13 C5        -1.1592   15.3674    8.7814 C.3       1 RES1    0.0000
     14 H4        -1.9660   15.0303    8.3624 H         1 RES1    0.0000
     15 H5        -1.0567   14.9534    9.6531 H         1 RES1    0.0000
     16 C6         0.4658   16.2882    7.3021 Du        2 SUP2    0.0000
     17 H6        -0.1134   16.2409    6.5137 Du        2 SUP2    0.0000
     18 C7         0.3249   15.0184    8.1144 Du        2 SUP2    0.0000
     19 H7         1.1102   14.8469    8.6565 Du        2 SUP2    0.0000
     20 H8         0.1422   14.2495    7.5537 Du        2 SUP2    0.0000
     21 C8        -0.8903   15.3950    8.9737 Du        2 SUP2    0.0000
     22 H9        -1.6661   14.8923    8.6796 Du        2 SUP2    0.0000
     23 H10       -0.7171   15.1545    9.9012 Du        2 SUP2    0.0000
     24 C9         0.2961   18.6625    7.8708 C.2       1 RES1    0.0000
     25 H11       -0.2551   19.3720    8.1117 H         1 RES1    0.0000
     26 C10        1.9712   20.1598    6.7856 C.ar      1 RES1    0.0000
     27 H12        1.5113   20.9138    7.0779 H         1 RES1    0.0000
     28 C11        3.1232   20.2963    6.0362 C.ar      1 RES1    0.0000
     29 C12        3.7974   19.1990    5.5525 C.ar      1 RES1    0.0000
     30 H13        4.5614   19.3089    5.0343 H         1 RES1    0.0000
     31 C13        3.3324   17.9373    5.8431 C.ar      1 RES1    0.0000
     32 H14        3.7743   17.1913    5.5073 H         1 RES1    0.0000
     33 C14        2.2132   17.7780    6.6288 C.ar      1 RES1    0.0000
     34 C15        1.5023   18.8934    7.1028 C.ar      1 RES1    0.0000
@<TRIPOS>BOND
     1    1    8 1
     2    2    6 2
     3    3    5 2
     4    4    5 2
     5    5   28 1
     6    6    7 1
     7    7    8 1
     8    8    9 1
     9   10    8 1
    10   11   10 1
    11   12   10 1
    12   13    6 1
    13   14   13 1
    14   15   13 1
    15   24    7 2
    16   25   24 1
    17   26   27 1
    18   28   26 ar
    19   29   28 ar
    20   30   29 1
    21   31   29 ar
    22   32   31 1
    23   33    1 1
    24   34   24 1
    25   10   13 1
    26   26   34 ar
    27   31   33 ar
    28   33   34 ar
@<TRIPOS>SUBSTRUCTURE
     1 RES1 1
     2 SUP2 16

@<TRIPOS>CRYSIN
   6.0584   19.7170    8.9513  90.0000  98.2570  90.0000 231 1

