# MOL2 file generated by ConQuest
# Please check atom types

@<TRIPOS>MOLECULE
BIJKEN
    27    29     1
SMALL
USER_CHARGES
****
Generated from CSD

@<TRIPOS>ATOM
      1 O1         2.4816    2.7130    7.6350 O.3       1 RES1    0.0000
      2 O2         0.8139   -1.0372    5.2078 O.3       1 RES1    0.0000
      3 O3         3.4297    4.3949    8.7300 O.2       1 RES1    0.0000
      4 O4         2.9513    3.9177   13.2207 O.3       1 RES1    0.0000
      5 O5         2.1223    6.0220   13.5551 O.2       1 RES1   -1.0000
      6 N1         2.3674    3.5716   11.2145 N.pl3     1 RES1    1.0000
      7 N2         2.9926    2.9749   12.2121 N.2       1 RES1    0.0000
      8 C1         1.6717    0.9051    6.3748 C.ar      1 RES1    0.0000
      9 H1         1.9787    1.3171    5.6002 H         1 RES1    0.0000
     10 C2         1.8262    1.4969    7.6220 C.ar      1 RES1    0.0000
     11 C3         2.1979    2.8111   10.0096 C.2       1 RES1    0.0000
     12 C4         1.0373   -0.3349    6.3379 C.ar      1 RES1    0.0000
     13 C5         0.5703   -0.9580    7.5164 C.ar      1 RES1    0.0000
     14 H2         0.1492   -1.7859    7.4677 H         1 RES1    0.0000
     15 C6         1.5715    1.6171   10.0256 C.2       1 RES1    0.0000
     16 H3         1.2629    1.2625   10.8286 H         1 RES1    0.0000
     17 C7         1.3845    0.9026    8.8115 C.ar      1 RES1    0.0000
     18 C8         2.7480    3.3973    8.7968 C.2       1 RES1    0.0000
     19 C9         0.7363   -0.3501    8.7219 C.ar      1 RES1    0.0000
     20 H4         0.4205   -0.7628    9.4938 H         1 RES1    0.0000
     21 C10        2.2757    5.1045   12.7974 C.2       1 RES1    0.0000
     22 C11        1.9310    4.8014   11.4606 C.2       1 RES1    0.0000
     23 H5         1.4837    5.3592   10.8649 H         1 RES1    0.0000
     24 C12        1.3451   -0.5209    3.9626 C.3       1 RES1    0.0000
     25 H6         1.1270   -1.1242    3.2483 H         1 RES1    0.0000
     26 H7         2.2988   -0.4387    4.0322 H         1 RES1    0.0000
     27 H8         0.9610    0.3398    3.7839 H         1 RES1    0.0000
@<TRIPOS>BOND
     1    1   10 1
     2    2   12 1
     3    3   18 2
     4    4    7 1
     5    5   21 1
     6    6    7 2
     7    8    9 1
     8   10    8 ar
     9   11    6 1
    10   12    8 ar
    11   13   12 ar
    12   14   13 1
    13   15   11 2
    14   16   15 1
    15   17   10 ar
    16   18    1 1
    17   19   13 ar
    18   20   19 1
    19   21    4 1
    20   22    6 1
    21   23   22 1
    22   24    2 1
    23   25   24 1
    24   26   24 1
    25   27   24 1
    26   11   18 1
    27   15   17 1
    28   17   19 ar
    29   21   22 2
@<TRIPOS>SUBSTRUCTURE
     1 RES1 1

@<TRIPOS>CRYSIN
   3.7520   11.4439   13.1850 111.0890  93.3050  90.5120   2 1

