# MOL2 file generated by ConQuest
# Please check atom types

@<TRIPOS>MOLECULE
BIKGEI
    41    42     1
SMALL
NO_CHARGES
****
Generated from CSD

@<TRIPOS>ATOM
      1 O1         3.7187    6.0811   10.4346 O.3       1 RES1    0.0000
      2 O2         5.9010    5.6522    9.9221 O.3       1 RES1    0.0000
      3 O3         7.6307    7.6260   11.5275 O.2       1 RES1    0.0000
      4 O4         9.1328    6.3002   10.7739 O.2       1 RES1    0.0000
      5 N1         8.1643    7.0148   10.6197 N.pl3     1 RES1    0.0000
      6 C1         1.4831    6.7417   10.7681 C.3       1 RES1    0.0000
      7 H1         1.6670    7.6231   10.3799 H         1 RES1    0.0000
      8 H2         0.7535    6.8165   11.4185 H         1 RES1    0.0000
      9 H3         1.2237    6.1197   10.0570 H         1 RES1    0.0000
     10 C2         2.7232    6.2278   11.4593 C.3       1 RES1    0.0000
     11 H4         3.0344    6.9091   12.1224 H         1 RES1    0.0000
     12 C3         2.5081    4.9054   12.1722 C.3       1 RES1    0.0000
     13 H5         2.1141    4.2511   11.5429 H         1 RES1    0.0000
     14 H6         1.8721    5.0336   12.9203 H         1 RES1    0.0000
     15 C4         3.8259    4.3603   12.7134 C.3       1 RES1    0.0000
     16 H7         4.1447    4.9347   13.4535 H         1 RES1    0.0000
     17 H8         3.6867    3.4473   13.0698 H         1 RES1    0.0000
     18 C5         4.8739    4.3230   11.6089 C.3       1 RES1    0.0000
     19 H9         5.7530    4.0666   11.9861 H         1 RES1    0.0000
     20 H10        4.6212    3.6509   10.9276 H         1 RES1    0.0000
     21 C6         4.9666    5.6844   10.9759 C.3       1 RES1    0.0000
     22 H11        5.2596    6.3514   11.6606 H         1 RES1    0.0000
     23 C7         6.1007    6.9246    9.2804 C.3       1 RES1    0.0000
     24 H12        5.6660    7.6433    9.8228 H         1 RES1    0.0000
     25 C8         7.6078    7.1695    9.2286 C.3       1 RES1    0.0000
     26 H13        8.0263    6.4824    8.6347 H         1 RES1    0.0000
     27 C9         7.9809    8.5505    8.7194 C.3       1 RES1    0.0000
     28 H14        8.9570    8.6454    8.7167 H         1 RES1    0.0000
     29 H15        7.5886    9.2318    9.3028 H         1 RES1    0.0000
     30 H16        7.6400    8.6655    7.8077 H         1 RES1    0.0000
     31 C10        5.5214    6.9280    7.8862 C.ar      1 RES1    0.0000
     32 C11        4.7443    7.9876    7.4362 C.ar      1 RES1    0.0000
     33 H17        4.5599    8.7161    8.0168 H         1 RES1    0.0000
     34 C12        4.2349    7.9917    6.1432 C.ar      1 RES1    0.0000
     35 H18        3.7037    8.7201    5.8455 H         1 RES1    0.0000
     36 C13        4.4998    6.9401    5.2927 C.ar      1 RES1    0.0000
     37 H19        4.1533    6.9453    4.4086 H         1 RES1    0.0000
     38 C14        5.2708    5.8776    5.7291 C.ar      1 RES1    0.0000
     39 H20        5.4510    5.1509    5.1443 H         1 RES1    0.0000
     40 C15        5.7822    5.8719    7.0182 C.ar      1 RES1    0.0000
     41 H21        6.3146    5.1411    7.3102 H         1 RES1    0.0000
@<TRIPOS>BOND
     1    1   10 1
     2    2   21 1
     3    3    5 2
     4    4    5 2
     5    5   25 1
     6    6    7 1
     7    8    6 1
     8    9    6 1
     9   10    6 1
    10   11   10 1
    11   12   10 1
    12   13   12 1
    13   14   12 1
    14   15   12 1
    15   16   15 1
    16   17   15 1
    17   18   15 1
    18   19   18 1
    19   20   18 1
    20   21    1 1
    21   22   21 1
    22   23    2 1
    23   24   23 1
    24   25   23 1
    25   26   25 1
    26   27   25 1
    27   28   27 1
    28   29   27 1
    29   30   27 1
    30   31   23 1
    31   32   31 ar
    32   33   32 1
    33   34   32 ar
    34   35   34 1
    35   36   34 ar
    36   37   36 1
    37   38   36 ar
    38   39   38 1
    39   40   31 ar
    40   41   40 1
    41   18   21 1
    42   38   40 ar
@<TRIPOS>SUBSTRUCTURE
     1 RES1 1

@<TRIPOS>CRYSIN
  19.5297    5.7494   13.7124  90.0000 105.2240  90.0000   5 1

