# MOL2 file generated by ConQuest
# Please check atom types

@<TRIPOS>MOLECULE
BILDOR01
    33    35     1
SMALL
NO_CHARGES
****
Generated from CSD

@<TRIPOS>ATOM
      1 O1         1.7712    4.0635   10.5906 O.3       1 RES1    0.0000
      2 O2         1.5582    6.0013    6.9899 O.2       1 RES1    0.0000
      3 O3        -0.4289    1.7796    9.0829 O.2       1 RES1    0.0000
      4 O4         1.8216    2.2959   13.4216 O.2       1 RES1    0.0000
      5 O5         2.0978    0.5976   14.7249 O.2       1 RES1    0.0000
      6 N1         0.4264    1.9628   11.2172 N.am      1 RES1    0.0000
      7 H1         0.9621    2.4329   11.6374 H         1 RES1    0.0000
      8 N2         1.5156    1.1627   13.8019 N.pl3     1 RES1    0.0000
      9 C1         0.2442    2.3514    9.9222 C.2       1 RES1    0.0000
     10 C2         0.9874    3.6085    9.5720 C.2       1 RES1    0.0000
     11 C3         0.8851    4.2109    8.3810 C.2       1 RES1    0.0000
     12 H2         0.3185    3.8335    7.7186 H         1 RES1    0.0000
     13 C4         1.6203    5.4285    8.0761 C.2       1 RES1    0.0000
     14 C5         2.4683    5.9085    9.1859 C.ar      1 RES1    0.0000
     15 C6         3.2502    7.0659    9.0708 C.ar      1 RES1    0.0000
     16 H3         3.2393    7.5649    8.2632 H         1 RES1    0.0000
     17 C7         4.0366    7.4840   10.1253 C.ar      1 RES1    0.0000
     18 H4         4.5508    8.2788   10.0468 H         1 RES1    0.0000
     19 C8         4.0785    6.7417   11.3107 C.ar      1 RES1    0.0000
     20 H5         4.6297    7.0305   12.0288 H         1 RES1    0.0000
     21 C9         3.3279    5.5968   11.4457 C.ar      1 RES1    0.0000
     22 H6         3.3608    5.0866   12.2470 H         1 RES1    0.0000
     23 C10        2.5205    5.2011   10.3862 C.ar      1 RES1    0.0000
     24 C11       -0.0634    0.8237   11.8566 C.ar      1 RES1    0.0000
     25 C12        0.4370    0.4322   13.1226 C.ar      1 RES1    0.0000
     26 C13       -0.0266   -0.7039   13.7617 C.ar      1 RES1    0.0000
     27 H7         0.3354   -0.9519   14.6041 H         1 RES1    0.0000
     28 C14       -1.0110   -1.4798   13.1822 C.ar      1 RES1    0.0000
     29 H8        -1.3401   -2.2522   13.6266 H         1 RES1    0.0000
     30 C15       -1.5154   -1.1149   11.9368 C.ar      1 RES1    0.0000
     31 H9        -2.1923   -1.6445   11.5328 H         1 RES1    0.0000
     32 C16       -1.0460    0.0030   11.2829 C.ar      1 RES1    0.0000
     33 H10       -1.3942    0.2226   10.4273 H         1 RES1    0.0000
@<TRIPOS>BOND
     1    1   10 1
     2    2   13 2
     3    3    9 2
     4    4    8 2
     5    5    8 2
     6    6    7 1
     7    8   25 1
     8    9    6 1
     9   10    9 1
    10   11   10 2
    11   12   11 1
    12   13   11 1
    13   14   13 1
    14   15   14 ar
    15   16   15 1
    16   17   15 ar
    17   18   17 1
    18   19   17 ar
    19   20   19 1
    20   21   19 ar
    21   22   21 1
    22   23    1 1
    23   24    6 1
    24   25   24 ar
    25   26   25 ar
    26   27   26 1
    27   28   26 ar
    28   29   28 1
    29   30   28 ar
    30   31   30 1
    31   32   24 ar
    32   33   32 1
    33   14   23 ar
    34   21   23 ar
    35   30   32 ar
@<TRIPOS>SUBSTRUCTURE
     1 RES1 1

@<TRIPOS>CRYSIN
  12.2931    5.9050   18.2775  90.0000  99.3600  90.0000  14 1

