# MOL2 file generated by ConQuest
# Please check atom types

@<TRIPOS>MOLECULE
BILFAG
    68    71     1
SMALL
NO_CHARGES
****
Generated from CSD

@<TRIPOS>ATOM
      1 N1         8.6360    5.4937    3.7598 N.pl3     1 RES1    0.0000
      2 N2         9.3910    6.5602    3.3598 N.2       1 RES1    0.0000
      3 N3         7.5333    7.3848    2.1203 N.2       1 RES1    0.0000
      4 N4         3.1330    3.4644    2.7184 N.3       1 RES1    0.0000
      5 C1         6.6004    4.1397    3.6309 C.ar      1 RES1    0.0000
      6 H1         6.9783    3.4558    4.1342 H         1 RES1    0.0000
      7 C2         7.3422    5.2761    3.3076 C.ar      1 RES1    0.0000
      8 C3         6.8022    6.2847    2.4813 C.ar      1 RES1    0.0000
      9 C4         5.2968    4.0473    3.1909 C.ar      1 RES1    0.0000
     10 C5         8.7841    7.4323    2.5616 C.2       1 RES1    0.0000
     11 C6         5.4861    6.1422    2.0258 C.ar      1 RES1    0.0000
     12 H2         5.1132    6.7942    1.4769 H         1 RES1    0.0000
     13 C7         4.7460    5.0490    2.3838 C.ar      1 RES1    0.0000
     14 C8         9.2801    4.6423    4.7186 C.ar      1 RES1    0.0000
     15 C9         3.3294    4.7338    1.9711 C.3       1 RES1    0.0000
     16 C10        9.5998    8.6559    2.1565 C.3       1 RES1    0.0000
     17 C11        4.3163    2.9463    3.4652 C.3       1 RES1    0.0000
     18 C12       10.4932    4.0836    4.4207 C.ar      1 RES1    0.0000
     19 H3        10.9014    4.2477    3.6022 H         1 RES1    0.0000
     20 C13        9.3096    3.6268    6.8694 C.ar      1 RES1    0.0000
     21 H4         8.9111    3.4783    7.6959 H         1 RES1    0.0000
     22 C14        3.2581    4.5084    0.4375 C.3       1 RES1    0.0000
     23 H5         3.5106    5.3374    0.0000 H         1 RES1    0.0000
     24 H6         3.9237    3.8435    0.2001 H         1 RES1    0.0000
     25 C15       10.5051    3.0448    6.5828 C.ar      1 RES1    0.0000
     26 H7        10.9173    2.4964    7.2096 H         1 RES1    0.0000
     27 C16       11.1038    3.2676    5.3646 C.ar      1 RES1    0.0000
     28 H8        11.9220    2.8695    5.1729 H         1 RES1    0.0000
     29 C17        4.7514    1.5759    2.8970 C.3       1 RES1    0.0000
     30 H9         5.5052    1.2564    3.4173 H         1 RES1    0.0000
     31 H10        4.0236    0.9481    3.0272 H         1 RES1    0.0000
     32 C18        8.6858    4.4350    5.9445 C.ar      1 RES1    0.0000
     33 H11        7.8704    4.8357    6.1456 H         1 RES1    0.0000
     34 C19        5.1382    1.5569    1.4406 C.3       1 RES1    0.0000
     35 H12        4.3459    1.5846    0.8993 H         1 RES1    0.0000
     36 H13        5.6273    0.7539    1.2489 H         1 RES1    0.0000
     37 H14        5.6862    2.3203    1.2463 H         1 RES1    0.0000
     38 C20        2.3058    5.7977    2.3868 C.3       1 RES1    0.0000
     39 H15        2.4405    6.5835    1.8341 H         1 RES1    0.0000
     40 H16        1.4180    5.4574    2.1963 H         1 RES1    0.0000
     41 C21       11.0337    8.5782    2.6194 C.3       1 RES1    0.0000
     42 H17       11.0598    8.5601    3.5795 H         1 RES1    0.0000
     43 H18       11.5154    9.3459    2.3002 H         1 RES1    0.0000
     44 H19       11.4395    7.7803    2.2723 H         1 RES1    0.0000
     45 C22        1.9286    4.0655   -0.1297 C.3       1 RES1    0.0000
     46 H20        1.6723    3.2313    0.2711 H         1 RES1    0.0000
     47 H21        2.0063    3.9541   -1.0792 H         1 RES1    0.0000
     48 H22        1.2612    4.7295    0.0608 H         1 RES1    0.0000
     49 C23        3.9467    2.8280    4.9634 C.3       1 RES1    0.0000
     50 H23        3.4655    3.6363    5.1956 H         1 RES1    0.0000
     51 H24        3.3135    2.0975    5.0361 H         1 RES1    0.0000
     52 C24        9.5427    8.8036    0.6447 C.3       1 RES1    0.0000
     53 H25        9.9472    8.0359    0.2331 H         1 RES1    0.0000
     54 H26       10.0184    9.5946    0.3825 H         1 RES1    0.0000
     55 H27        8.6269    8.8718    0.3648 H         1 RES1    0.0000
     56 C25        2.3536    6.2104    3.8059 C.3       1 RES1    0.0000
     57 H28        2.0690    5.4816    4.3622 H         1 RES1    0.0000
     58 H29        1.7716    6.9617    3.9392 H         1 RES1    0.0000
     59 H30        3.2528    6.4565    4.0380 H         1 RES1    0.0000
     60 C26        8.9193    9.8916    2.7427 C.3       1 RES1    0.0000
     61 H31        8.0012    9.9141    2.4623 H         1 RES1    0.0000
     62 H32        9.3669   10.6817    2.4319 H         1 RES1    0.0000
     63 H33        8.9616    9.8562    3.7010 H         1 RES1    0.0000
     64 C27        4.8756    2.6355    5.9379 C.3       1 RES1    0.0000
     65 H34        5.4462    1.9023    5.6947 H         1 RES1    0.0000
     66 H35        4.4344    2.4369    6.7662 H         1 RES1    0.0000
     67 H36        5.4029    3.4308    6.0392 H         1 RES1    0.0000
     68 O1         2.0004    2.9083    2.8030 O.2       1 RES1    0.0000
@<TRIPOS>BOND
     1    1    2 1
     2    2   10 2
     3    3    8 1
     4    4   15 1
     5    5    6 1
     6    7    1 1
     7    8    7 ar
     8    9    5 ar
     9   10    3 1
    10   11    8 ar
    11   12   11 1
    12   13    9 ar
    13   14    1 1
    14   15   13 1
    15   16   10 1
    16   17    4 1
    17   18   14 ar
    18   19   18 1
    19   20   21 1
    20   22   15 1
    21   23   22 1
    22   24   22 1
    23   25   20 ar
    24   26   25 1
    25   27   18 ar
    26   28   27 1
    27   29   17 1
    28   30   29 1
    29   31   29 1
    30   32   14 ar
    31   33   32 1
    32   34   29 1
    33   35   34 1
    34   36   34 1
    35   37   34 1
    36   38   15 1
    37   39   38 1
    38   40   38 1
    39   41   16 1
    40   42   41 1
    41   43   41 1
    42   44   41 1
    43   45   22 1
    44   46   45 1
    45   47   45 1
    46   48   45 1
    47   49   17 1
    48   50   49 1
    49   51   49 1
    50   52   16 1
    51   53   52 1
    52   54   52 1
    53   55   52 1
    54   56   38 1
    55   57   56 1
    56   58   56 1
    57   59   56 1
    58   60   16 1
    59   61   60 1
    60   62   60 1
    61   63   60 1
    62   64   49 1
    63   65   64 1
    64   66   64 1
    65   67   64 1
    66   68    4 1
    67    5    7 ar
    68    9   17 1
    69   11   13 ar
    70   20   32 ar
    71   25   27 ar
@<TRIPOS>SUBSTRUCTURE
     1 RES1 1

@<TRIPOS>CRYSIN
  11.5027    8.6352   25.4247  90.0000  94.8870  90.0000 231 1

