# MOL2 file generated by ConQuest
# Please check atom types

@<TRIPOS>MOLECULE
BIMPUJ
    62    66     1
SMALL
NO_CHARGES
****
Generated from CSD

@<TRIPOS>ATOM
      1 C1         8.1408   -4.5655    4.8036 C.ar      1 RES1    0.0000
      2 H1         7.4432   -5.1788    4.8688 H         1 RES1    0.0000
      3 C2         9.2684   -4.6250    5.6575 C.ar      1 RES1    0.0000
      4 H2         9.3021   -5.3069    6.2906 H         1 RES1    0.0000
      5 C3        10.2948   -3.7536    5.6112 C.ar      1 RES1    0.0000
      6 H3        11.0049   -3.8168    6.2085 H         1 RES1    0.0000
      7 C4        10.2561   -2.7551    4.6417 C.ar      1 RES1    0.0000
      8 C5         9.1823   -2.6443    3.7478 C.ar      1 RES1    0.0000
      9 C6         8.1312   -3.5422    3.8614 C.ar      1 RES1    0.0000
     10 H4         7.3999   -3.4571    3.2936 H         1 RES1    0.0000
     11 C7        11.3055   -1.8416    4.5008 C.ar      1 RES1    0.0000
     12 H5        12.0534   -1.9267    5.0476 H         1 RES1    0.0000
     13 C8        11.2657   -0.8210    3.5796 C.ar      1 RES1    0.0000
     14 C9        10.1617   -0.9098    2.6626 C.ar      1 RES1    0.0000
     15 N1         9.1338   -1.6878    2.7488 N.ar      1 RES1    0.0000
     16 N2        12.2436    0.1831    3.4260 N.3       1 RES1    0.0000
     17 C10       12.3779    0.7615    2.2083 C.ar      1 RES1    0.0000
     18 C11       11.2764    0.8073    1.3250 C.ar      1 RES1    0.0000
     19 N3        10.1151    0.0934    1.6510 N.pl3     1 RES1    0.0000
     20 C12       13.4863    1.4892    1.8508 C.ar      1 RES1    0.0000
     21 C13       13.5220    2.3075    0.6436 C.ar      1 RES1    0.0000
     22 C14       12.3002    2.3038   -0.1241 C.ar      1 RES1    0.0000
     23 N4        11.2364    1.5176    0.2292 N.ar      1 RES1    0.0000
     24 C15       14.5875    3.1578    0.2250 C.ar      1 RES1    0.0000
     25 H6        15.3914    3.1587    0.6940 H         1 RES1    0.0000
     26 C16       14.4358    3.9596   -0.8476 C.ar      1 RES1    0.0000
     27 H7        15.1133    4.5435   -1.1021 H         1 RES1    0.0000
     28 C17       13.2464    3.8992   -1.5669 C.ar      1 RES1    0.0000
     29 C18       12.1999    3.1093   -1.2472 C.ar      1 RES1    0.0000
     30 H8        11.4294    3.1065   -1.7688 H         1 RES1    0.0000
     31 N5        13.1004    4.8236   -2.6815 N.pl3     1 RES1    0.0000
     32 O1        13.9733    5.6831   -2.9066 O.2       1 RES1    0.0000
     33 O2        12.1056    4.7458   -3.4218 O.2       1 RES1    0.0000
     34 C19       12.8553    0.6856    4.6669 C.3       1 RES1    0.0000
     35 H9        13.3922    1.4626    4.4461 H         1 RES1    0.0000
     36 H10       13.4572    0.0046    5.0055 H         1 RES1    0.0000
     37 C20       11.8931    1.0691    5.7774 C.3       1 RES1    0.0000
     38 H11       11.2460    1.7034    5.4304 H         1 RES1    0.0000
     39 H12       11.4073    0.2783    6.0613 H         1 RES1    0.0000
     40 C21       12.5624    1.6631    6.9488 C.3       1 RES1    0.0000
     41 H13       13.2918    1.0773    7.2075 H         1 RES1    0.0000
     42 H14       12.9552    2.5061    6.6733 H         1 RES1    0.0000
     43 C22       11.7420    1.9121    8.1329 C.3       1 RES1    0.0000
     44 H15       12.2868    2.2901    8.8270 H         1 RES1    0.0000
     45 H16       11.3623    1.0846    8.4400 H         1 RES1    0.0000
     46 H17       11.0366    2.5244    7.9121 H         1 RES1    0.0000
     47 C23        8.8668    0.2590    0.8602 C.3       1 RES1    0.0000
     48 H18        8.3127   -0.5336    0.9338 H         1 RES1    0.0000
     49 H19        9.0772    0.4027   -0.0757 H         1 RES1    0.0000
     50 C24        8.1158    1.5112    1.4512 C.3       1 RES1    0.0000
     51 H20        8.0708    1.4215    2.4165 H         1 RES1    0.0000
     52 H21        8.6319    2.3075    1.2535 H         1 RES1    0.0000
     53 C25        6.8134    1.6832    0.9548 C.3       1 RES1    0.0000
     54 H22        6.2668    0.9354    1.2430 H         1 RES1    0.0000
     55 H23        6.8445    1.6695   -0.0147 H         1 RES1    0.0000
     56 C26        6.1425    3.0022    1.4175 C.3       1 RES1    0.0000
     57 H24        5.2494    3.0470    1.0684 H         1 RES1    0.0000
     58 H25        6.6510    3.7500    1.0936 H         1 RES1    0.0000
     59 H26        6.1129    3.0278    2.3766 H         1 RES1    0.0000
     60 N6        14.7584    1.3702    2.5680 N.pl3     1 RES1    0.0000
     61 O3        15.3688    2.3679    2.9171 O.2       1 RES1    0.0000
     62 O4        15.1296    0.1986    2.8056 O.2       1 RES1    0.0000
@<TRIPOS>BOND
     1    1    2 1
     2    3    1 ar
     3    4    3 1
     4    5    3 ar
     5    6    5 1
     6    7    5 ar
     7    8    7 ar
     8    9    1 ar
     9   10    9 1
    10   11    7 ar
    11   12   11 1
    12   13   11 ar
    13   14   13 ar
    14   15    8 ar
    15   16   13 1
    16   17   16 1
    17   18   17 ar
    18   19   14 1
    19   20   17 ar
    20   21   20 ar
    21   22   21 ar
    22   23   18 ar
    23   24   21 ar
    24   25   24 1
    25   26   24 ar
    26   27   26 1
    27   28   26 ar
    28   29   22 ar
    29   30   29 1
    30   31   28 1
    31   32   31 2
    32   33   31 2
    33   34   16 1
    34   35   34 1
    35   36   34 1
    36   37   34 1
    37   38   37 1
    38   39   37 1
    39   40   37 1
    40   41   40 1
    41   42   40 1
    42   43   40 1
    43   44   43 1
    44   45   43 1
    45   46   43 1
    46   47   19 1
    47   48   47 1
    48   49   47 1
    49   50   47 1
    50   51   50 1
    51   52   50 1
    52   53   50 1
    53   54   53 1
    54   55   53 1
    55   56   53 1
    56   57   56 1
    57   58   56 1
    58   59   56 1
    59   60   20 1
    60   61   60 2
    61   62   60 2
    62    8    9 ar
    63   14   15 ar
    64   18   19 1
    65   22   23 ar
    66   28   29 ar
@<TRIPOS>SUBSTRUCTURE
     1 RES1 1

@<TRIPOS>CRYSIN
  12.4490    9.1530   21.7070  90.0000 104.3300  90.0000 231 1

