# MOL2 file generated by ConQuest
# Please check atom types

@<TRIPOS>MOLECULE
BIMPOD
    62    66     1
SMALL
NO_CHARGES
****
Generated from CSD

@<TRIPOS>ATOM
      1 C1         2.1596   -0.5597    0.1997 C.ar      1 RES1    0.0000
      2 C2         2.4072   -1.9090    0.0206 C.ar      1 RES1    0.0000
      3 H1         3.0571   -2.1937   -0.5813 H         1 RES1    0.0000
      4 C3         1.6824   -2.8177    0.7395 C.ar      1 RES1    0.0000
      5 H2         1.8405   -3.7262    0.6263 H         1 RES1    0.0000
      6 C4         0.6942   -2.3879    1.6526 C.ar      1 RES1    0.0000
      7 C5         0.4678   -1.0118    1.8160 C.ar      1 RES1    0.0000
      8 C6         1.2181   -0.0972    1.0709 C.ar      1 RES1    0.0000
      9 H3         1.0762    0.8162    1.1678 H         1 RES1    0.0000
     10 C7        -0.0953   -3.2449    2.4869 C.ar      1 RES1    0.0000
     11 C8        -1.0623   -2.7729    3.3303 C.ar      1 RES1    0.0000
     12 C9        -1.1453   -1.3321    3.4364 C.ar      1 RES1    0.0000
     13 N1        -0.4283   -0.5077    2.7199 N.ar      1 RES1    0.0000
     14 N2        -1.9797   -3.5433    4.0229 N.3       1 RES1    0.0000
     15 C10       -2.6411   -2.9994    5.1377 C.ar      1 RES1    0.0000
     16 C11       -2.6397   -1.5857    5.3154 C.ar      1 RES1    0.0000
     17 N3        -2.0415   -0.7895    4.3332 N.pl3     1 RES1    0.0000
     18 N4        -3.2506   -3.8334    5.9372 N.ar      1 RES1    0.0000
     19 C12       -3.9191   -3.3334    7.0192 C.ar      1 RES1    0.0000
     20 C13       -3.9712   -1.9584    7.2897 C.ar      1 RES1    0.0000
     21 C14       -3.2936   -1.0863    6.4021 C.ar      1 RES1    0.0000
     22 H4        -3.2945   -0.1710    6.5616 H         1 RES1    0.0000
     23 C15       -4.5649   -4.2346    7.8990 C.ar      1 RES1    0.0000
     24 H5        -4.5233   -5.1491    7.7371 H         1 RES1    0.0000
     25 C16       -5.2472   -3.7688    8.9791 C.ar      1 RES1    0.0000
     26 H6        -5.6574   -4.3704    9.5569 H         1 RES1    0.0000
     27 C17       -5.3375   -2.4117    9.2292 C.ar      1 RES1    0.0000
     28 H7        -5.8287   -2.1081    9.9582 H         1 RES1    0.0000
     29 C18       -4.7104   -1.5092    8.4104 C.ar      1 RES1    0.0000
     30 H8        -4.7701   -0.5983    8.5911 H         1 RES1    0.0000
     31 N5         2.9427    0.4139   -0.5739 N.pl3     1 RES1    0.0000
     32 O1         2.7253    1.6013   -0.4133 O.2       1 RES1    0.0000
     33 O2         3.7679   -0.0149   -1.3629 O.2       1 RES1    0.0000
     34 C19       -2.4055   -4.8761    3.5650 C.3       1 RES1    0.0000
     35 H9        -1.6300   -5.3586    3.2371 H         1 RES1    0.0000
     36 H10       -2.7615   -5.3693    4.3200 H         1 RES1    0.0000
     37 C20       -3.3958   -4.8310    2.5310 C.3       1 RES1    0.0000
     38 H11       -3.0391   -4.3490    1.7684 H         1 RES1    0.0000
     39 H12       -4.1718   -4.3459    2.8538 H         1 RES1    0.0000
     40 C21       -3.8256   -6.2271    2.0860 C.3       1 RES1    0.0000
     41 H13       -3.2689   -6.4887    1.3362 H         1 RES1    0.0000
     42 H14       -3.6427   -6.8444    2.8114 H         1 RES1    0.0000
     43 C22       -5.0422   -6.3700    1.7439 C.3       1 RES1    0.0000
     44 H15       -5.1984   -7.2836    1.4931 H         1 RES1    0.0000
     45 H16       -5.2346   -5.7961    0.9993 H         1 RES1    0.0000
     46 H17       -5.6113   -6.1394    2.4822 H         1 RES1    0.0000
     47 C23       -2.2012    0.6732    4.3606 C.3       1 RES1    0.0000
     48 H18       -3.0917    0.8841    4.6826 H         1 RES1    0.0000
     49 H19       -2.1267    1.0131    3.4557 H         1 RES1    0.0000
     50 C24       -1.1874    1.3768    5.2314 C.3       1 RES1    0.0000
     51 H20       -1.3732    1.1769    6.1616 H         1 RES1    0.0000
     52 H21       -0.3019    1.0406    5.0247 H         1 RES1    0.0000
     53 C25       -1.2073    2.8602    5.0363 C.3       1 RES1    0.0000
     54 H22       -2.0976    3.1918    5.2305 H         1 RES1    0.0000
     55 H23       -1.0159    3.0572    4.1052 H         1 RES1    0.0000
     56 C26       -0.2076    3.5955    5.9096 C.3       1 RES1    0.0000
     57 H24       -0.2614    4.5377    5.7334 H         1 RES1    0.0000
     58 H25        0.6783    3.2835    5.7128 H         1 RES1    0.0000
     59 H26       -0.4081    3.4311    6.8330 H         1 RES1    0.0000
     60 N6         0.2762   -4.6555    2.4950 N.pl3     1 RES1    0.0000
     61 O3         0.2077   -5.2894    1.4713 O.2       1 RES1    0.0000
     62 O4         0.6434   -5.1130    3.5792 O.2       1 RES1    0.0000
@<TRIPOS>BOND
     1    1    2 ar
     2    2    3 1
     3    4    2 ar
     4    5    4 1
     5    6    4 ar
     6    7    6 ar
     7    8    1 ar
     8    9    8 1
     9   10    6 ar
    10   11   10 ar
    11   12   11 ar
    12   13    7 ar
    13   14   11 1
    14   15   14 1
    15   16   15 ar
    16   17   12 1
    17   18   15 ar
    18   19   18 ar
    19   20   19 ar
    20   21   16 ar
    21   22   21 1
    22   23   19 ar
    23   24   23 1
    24   25   23 ar
    25   26   25 1
    26   27   25 ar
    27   28   27 1
    28   29   20 ar
    29   30   29 1
    30   31    1 1
    31   32   31 2
    32   33   31 2
    33   34   14 1
    34   35   34 1
    35   36   34 1
    36   37   34 1
    37   38   37 1
    38   39   37 1
    39   40   37 1
    40   41   40 1
    41   42   40 1
    42   43   40 1
    43   44   43 1
    44   45   43 1
    45   46   43 1
    46   47   17 1
    47   48   47 1
    48   49   47 1
    49   50   47 1
    50   51   50 1
    51   52   50 1
    52   53   50 1
    53   54   53 1
    54   55   53 1
    55   56   53 1
    56   57   56 1
    57   58   56 1
    58   59   56 1
    59   60   10 1
    60   61   60 2
    61   62   60 2
    62    7    8 ar
    63   12   13 ar
    64   16   17 1
    65   20   21 ar
    66   27   29 ar
@<TRIPOS>SUBSTRUCTURE
     1 RES1 1

@<TRIPOS>CRYSIN
   9.1600   10.9580   13.5790 103.6100  98.0300 107.0300   2 1

