# MOL2 file generated by ConQuest
# Please check atom types

@<TRIPOS>MOLECULE
BIMYOM
    53    55     1
SMALL
NO_CHARGES
****
Generated from CSD

@<TRIPOS>ATOM
      1 O1         3.2147   14.1166   11.2234 O.3       1 RES1    0.0000
      2 O2         4.8286   13.6371    7.3684 O.3       1 RES1    0.0000
      3 O3         6.6093   12.3061    7.2378 O.2       1 RES1    0.0000
      4 O4         3.7993   10.7936    6.4244 O.3       1 RES1    0.0000
      5 H1         3.3080   11.0538    5.8224 H         1 RES1    0.0000
      6 O5         1.4194   12.9732    9.0486 O.2       1 RES1    0.0000
      7 O6        -0.5832   12.2870    8.7699 O.2       1 RES1    0.0000
      8 N1         4.2265   12.2762    9.7227 N.3       1 RES1    0.0000
      9 N2         0.6110   12.0754    8.8747 N.pl3     1 RES1    0.0000
     10 C1         4.5538   13.9334   11.4131 C.ar      1 RES1    0.0000
     11 C2         5.3384   14.6035   12.3311 C.ar      1 RES1    0.0000
     12 H2         4.9595   15.2403   12.8933 H         1 RES1    0.0000
     13 C3         6.6854   14.3249   12.4104 C.ar      1 RES1    0.0000
     14 H3         7.2081   14.7457   13.0535 H         1 RES1    0.0000
     15 C4         7.2567   13.4294   11.5444 C.ar      1 RES1    0.0000
     16 H4         8.1733   13.2753   11.5772 H         1 RES1    0.0000
     17 C5         6.4702   12.7484   10.6149 C.ar      1 RES1    0.0000
     18 H5         6.8679   12.1403   10.0359 H         1 RES1    0.0000
     19 C6         5.1083   12.9680   10.5461 C.ar      1 RES1    0.0000
     20 C7         4.6312   11.5769    8.5186 C.3       1 RES1    0.0000
     21 C8         5.3543   10.2643    8.8317 C.ar      1 RES1    0.0000
     22 C9         6.0377    9.5598    7.8526 C.ar      1 RES1    0.0000
     23 H6         6.1101    9.9154    6.9959 H         1 RES1    0.0000
     24 C10        6.6130    8.3347    8.1333 C.ar      1 RES1    0.0000
     25 H7         7.0851    7.8850    7.4713 H         1 RES1    0.0000
     26 C11        6.4930    7.7757    9.3806 C.ar      1 RES1    0.0000
     27 H8         6.8649    6.9428    9.5580 H         1 RES1    0.0000
     28 C12        5.8234    8.4543   10.3607 C.ar      1 RES1    0.0000
     29 H9         5.7530    8.0879   11.2119 H         1 RES1    0.0000
     30 C13        5.2432    9.6958   10.0895 C.ar      1 RES1    0.0000
     31 H10        4.7790   10.1434   10.7590 H         1 RES1    0.0000
     32 C14        3.3487   11.3199    7.6624 C.3       1 RES1    0.0000
     33 H11        2.8983   12.1755    7.4988 H         1 RES1    0.0000
     34 C15        2.3449   10.3408    8.2825 C.ar      1 RES1    0.0000
     35 C16        2.6266    8.9742    8.2279 C.ar      1 RES1    0.0000
     36 H12        3.4379    8.6932    7.8691 H         1 RES1    0.0000
     37 C17        1.7319    8.0252    8.6910 C.ar      1 RES1    0.0000
     38 H13        1.9659    7.1256    8.6698 H         1 RES1    0.0000
     39 C18        0.5098    8.3897    9.1800 C.ar      1 RES1    0.0000
     40 H14       -0.0784    7.7425    9.4980 H         1 RES1    0.0000
     41 C19        0.1518    9.7226    9.2017 C.ar      1 RES1    0.0000
     42 H15       -0.6943    9.9825    9.4905 H         1 RES1    0.0000
     43 C20        1.0812   10.6699    8.7839 C.ar      1 RES1    0.0000
     44 C21        2.5472   15.0720   12.0364 C.3       1 RES1    0.0000
     45 H16        2.7059   14.8714   12.9609 H         1 RES1    0.0000
     46 H17        1.6039   15.0391   11.8600 H         1 RES1    0.0000
     47 H18        2.8805   15.9495   11.8374 H         1 RES1    0.0000
     48 C22        5.4922   12.5061    7.6324 C.2       1 RES1    0.0000
     49 C23        5.4763   14.5635    6.4669 C.3       1 RES1    0.0000
     50 H19        6.4216   14.5629    6.6306 H         1 RES1    0.0000
     51 H20        5.1271   15.4465    6.6105 H         1 RES1    0.0000
     52 H21        5.3086   14.2980    5.5597 H         1 RES1    0.0000
     53 H22        3.4617   12.7153    9.6881 H         1 RES1    0.0000
@<TRIPOS>BOND
     1    1   10 1
     2    2   48 1
     3    3   48 2
     4    4    5 1
     5    6    9 2
     6    7    9 2
     7    8   19 1
     8    9   43 1
     9   10   11 ar
    10   11   12 1
    11   13   11 ar
    12   14   13 1
    13   15   13 ar
    14   16   15 1
    15   17   15 ar
    16   18   17 1
    17   19   10 ar
    18   20    8 1
    19   21   20 1
    20   22   21 ar
    21   23   22 1
    22   24   22 ar
    23   25   24 1
    24   26   24 ar
    25   27   26 1
    26   28   26 ar
    27   29   28 1
    28   30   21 ar
    29   31   30 1
    30   32    4 1
    31   33   32 1
    32   34   32 1
    33   35   34 ar
    34   36   35 1
    35   37   35 ar
    36   38   37 1
    37   39   37 ar
    38   40   39 1
    39   41   39 ar
    40   42   41 1
    41   43   34 ar
    42   44    1 1
    43   45   44 1
    44   46   44 1
    45   47   44 1
    46   48   20 1
    47   49    2 1
    48   50   49 1
    49   51   49 1
    50   52   49 1
    51   53    8 1
    52   17   19 ar
    53   20   32 1
    54   28   30 ar
    55   41   43 ar
@<TRIPOS>SUBSTRUCTURE
     1 RES1 1

@<TRIPOS>CRYSIN
   9.9190   16.7660   25.0210  90.0000  90.0000  90.0000  61 1

