# MOL2 file generated by ConQuest
# Please check atom types

@<TRIPOS>MOLECULE
BINROF
    26    27     1
SMALL
NO_CHARGES
****
Generated from CSD

@<TRIPOS>ATOM
      1 O1        -1.5111    4.3469    0.6963 O.2       1 RES1    0.0000
      2 O2        -0.2576    5.9199    1.4499 O.2       1 RES1    0.0000
      3 O3         0.6525    0.0353    1.3845 O.2       1 RES1    0.0000
      4 O4         1.2555   -0.4782    3.3908 O.2       1 RES1    0.0000
      5 N1         0.7732    7.1877    7.8576 N.3       1 RES1    0.0000
      6 N2         0.9236    8.0354    8.9118 N.2       1 RES1    0.0000
      7 N3         0.2938    9.1103    8.5826 N.2       1 RES1    0.0000
      8 N4        -0.2529    9.0315    7.3369 N.2       1 RES1    0.0000
      9 N5        -0.2774    7.3046    5.7229 N.pl3     1 RES1    0.0000
     10 N6         0.1383    6.0322    5.4086 N.2       1 RES1    0.0000
     11 N7        -0.6942    4.7843    1.4729 N.pl3     1 RES1    0.0000
     12 N8         0.8542    0.2979    2.5489 N.pl3     1 RES1    0.0000
     13 C1         0.1298    4.2989    3.7808 C.ar      1 RES1    0.0000
     14 C2        -0.1492    3.8597    2.4892 C.ar      1 RES1    0.0000
     15 C3         0.0745    2.5665    2.0648 C.ar      1 RES1    0.0000
     16 C4         0.6181    1.7016    2.9744 C.ar      1 RES1    0.0000
     17 C5         0.9449    2.0693    4.2638 C.ar      1 RES1    0.0000
     18 C6         0.6824    3.3697    4.6630 C.ar      1 RES1    0.0000
     19 C7        -0.1887    5.6518    4.2443 C.2       1 RES1    0.0000
     20 C8         0.0666    7.8171    6.9170 C.2       1 RES1    0.0000
     21 H1         1.1231    6.4750    7.8232 H         1 RES1    0.0000
     22 H2        -0.6592    7.7882    5.1849 H         1 RES1    0.0000
     23 H3        -0.1634    2.3093    1.1815 H         1 RES1    0.0000
     24 H4         1.3625    1.3765    4.8637 H         1 RES1    0.0000
     25 H5         0.9078    3.6405    5.5864 H         1 RES1    0.0000
     26 H6        -0.7445    6.0947    3.6592 H         1 RES1    0.0000
@<TRIPOS>BOND
     1    1   11 2
     2    2   11 2
     3    3   12 2
     4    4   12 2
     5    5    6 1
     6    6    7 2
     7    7    8 1
     8    8   20 2
     9    9   10 1
    10   10   19 2
    11   11   14 1
    12   12   16 1
    13   13   14 ar
    14   14   15 ar
    15   15   16 ar
    16   16   17 ar
    17   17   18 ar
    18   18   13 ar
    19   19   13 1
    20   20    5 1
    21   21    5 1
    22   22    9 1
    23   23   15 1
    24   24   17 1
    25   25   18 1
    26   26   19 1
    27    9   20 1
@<TRIPOS>SUBSTRUCTURE
     1 RES1 1

@<TRIPOS>CRYSIN
  10.9910    9.0560   11.7060  90.0000 101.5000  90.0000 231 1

