# MOL2 file generated by ConQuest
# Please check atom types

@<TRIPOS>MOLECULE
BINSAS
    20    22     1
SMALL
NO_CHARGES
****
Generated from CSD

@<TRIPOS>ATOM
      1 C1        -0.1845   -1.0313    5.1788 C.2       1 RES1    0.0000
      2 C2         0.0656    0.2618    4.6146 C.2       1 RES1    0.0000
      3 C3        -0.8076    0.8110    3.6352 C.2       1 RES1    0.0000
      4 C4        -1.9882    0.0964    3.2228 C.2       1 RES1    0.0000
      5 C5        -2.2806   -1.1813    3.7278 C.2       1 RES1    0.0000
      6 C6        -1.3500   -1.6695    4.7378 C.2       1 RES1    0.0000
      7 N1         1.0549    1.0956    4.8294 N.pl3     1 RES1    0.0000
      8 N2        -0.3648    1.9843    3.2209 N.2       1 RES1    0.0000
      9 N3        -2.8108    0.6657    2.2204 N.pl3     1 RES1    0.0000
     10 N4        -3.2644   -1.9783    3.3946 N.3       1 RES1    0.0000
     11 N5        -1.4238   -2.8207    5.4041 N.pl3     1 RES1    0.0000
     12 N6         0.4906   -1.7050    6.0838 N.2       1 RES1    0.0000
     13 O1         2.0374    1.1271    5.5607 O.2       1 RES1    0.0000
     14 O2         0.8199    2.2167    3.9521 O.3       1 RES1    0.0000
     15 O3        -3.8124    0.0388    1.8329 O.2       1 RES1    0.0000
     16 O4        -2.4951    1.7787    1.7660 O.2       1 RES1    0.0000
     17 O5        -2.1972   -3.7704    5.4509 O.2       1 RES1    0.0000
     18 O6        -0.2405   -2.8683    6.2738 O.3       1 RES1    0.0000
     19 H1        -3.4161   -2.7524    3.7994 H         1 RES1    0.0000
     20 H2        -3.8260   -1.6675    2.7970 H         1 RES1    0.0000
@<TRIPOS>BOND
     1    1    2 1
     2    2    3 1
     3    3    4 1
     4    4    5 2
     5    5    6 1
     6    6    1 1
     7    7    2 2
     8    8    3 2
     9    9    4 1
    10   10    5 1
    11   11    6 2
    12   12    1 2
    13   13    7 1
    14   14    7 1
    15   15    9 2
    16   16    9 2
    17   17   11 1
    18   18   11 1
    19   19   10 1
    20   20   10 1
    21    8   14 1
    22   12   18 1
@<TRIPOS>SUBSTRUCTURE
     1 RES1 1

@<TRIPOS>CRYSIN
  13.6644    6.6969    9.5462  90.0000  90.0000  90.0000  19 1

