# MOL2 file generated by ConQuest
# Please check atom types

@<TRIPOS>MOLECULE
BINSUM
    34    33     1
SMALL
NO_CHARGES
****
Generated from CSD

@<TRIPOS>ATOM
      1 C1         4.6085    2.6275    4.2232 C.2       1 RES1    0.0000
      2 C2         3.7689    1.3141    2.3693 C.3       1 RES1    0.0000
      3 C3         2.3053    1.2969    1.9610 C.3       1 RES1    0.0000
      4 N1         4.1420    2.5719    2.9672 N.am      1 RES1    0.0000
      5 N2         1.4124    1.9396    3.0088 N.pl3     1 RES1    0.0000
      6 N3         2.0528    2.0335    0.6475 N.pl3     1 RES1    0.0000
      7 N4         1.8043   -0.1241    1.7396 N.pl3     1 RES1    0.0000
      8 O1         4.7080    1.6980    4.9858 O.2       1 RES1    0.0000
      9 O2         1.6002    1.5557    4.1328 O.2       1 RES1    0.0000
     10 O3         0.6131    2.7664    2.6289 O.2       1 RES1    0.0000
     11 O4         1.2153    1.5816   -0.0930 O.2       1 RES1    0.0000
     12 O5         2.7370    3.0152    0.4712 O.2       1 RES1    0.0000
     13 O6         2.5608   -0.8255    1.1045 O.2       1 RES1    0.0000
     14 O7         0.7285   -0.4201    2.1869 O.2       1 RES1    0.0000
     15 H1         4.1999    3.2258    2.4801 H         1 RES1    0.0000
     16 H2         4.3003    1.1236    1.5677 H         1 RES1    0.0000
     17 H3         3.9022    0.6162    3.0115 H         1 RES1    0.0000
     18 C1A        5.0250    4.0506    4.6342 C.2       1 RES1    0.0000
     19 N1A        5.4914    4.1062    5.8901 N.am      1 RES1    0.0000
     20 O1A        4.9254    4.9801    3.8715 O.2       1 RES1    0.0000
     21 C2A        5.8645    5.3640    6.4880 C.3       1 RES1    0.0000
     22 H1A        5.4336    3.4523    6.3773 H         1 RES1    0.0000
     23 C3A        7.3281    5.3812    6.8963 C.3       1 RES1    0.0000
     24 H2A        5.3332    5.5544    7.2896 H         1 RES1    0.0000
     25 H3A        5.7312    6.0619    5.8458 H         1 RES1    0.0000
     26 N2A        8.2210    4.7385    5.8485 N.pl3     1 RES1    0.0000
     27 N3A        7.5807    4.6446    8.2099 N.pl3     1 RES1    0.0000
     28 N4A        7.8291    6.8022    7.1178 N.pl3     1 RES1    0.0000
     29 O2A        8.0333    5.1224    4.7245 O.2       1 RES1    0.0000
     30 O3A        9.0203    3.9117    6.2285 O.2       1 RES1    0.0000
     31 O4A        8.4182    5.0964    8.9503 O.2       1 RES1    0.0000
     32 O5A        6.8965    3.6629    8.3861 O.2       1 RES1    0.0000
     33 O6A        7.0727    7.5036    7.7528 O.2       1 RES1    0.0000
     34 O7A        8.9049    7.0982    6.6705 O.2       1 RES1    0.0000
@<TRIPOS>BOND
     1    1    4 1
     2    2    3 1
     3    3    5 1
     4    4    2 1
     5    5    9 2
     6    6    3 1
     7    7    3 1
     8    8    1 2
     9   10    5 2
    10   11    6 2
    11   12    6 2
    12   13    7 2
    13   14    7 2
    14   15    4 1
    15   16    2 1
    16   17    2 1
    17   18    1 1
    18   19   18 1
    19   20   18 2
    20   21   19 1
    21   22   19 1
    22   23   21 1
    23   24   21 1
    24   25   21 1
    25   26   23 1
    26   27   23 1
    27   28   23 1
    28   29   26 2
    29   30   26 2
    30   31   27 2
    31   32   27 2
    32   33   28 2
    33   34   28 2
@<TRIPOS>SUBSTRUCTURE
     1 RES1 1

@<TRIPOS>CRYSIN
   6.6574    6.6855    8.9634  86.7150  81.2630  76.0250   2 1

