# MOL2 file generated by ConQuest
# Please check atom types

@<TRIPOS>MOLECULE
BIRDEL
    38    40     1
SMALL
NO_CHARGES
****
Generated from CSD

@<TRIPOS>ATOM
      1 C1         2.6288    2.5566    0.6695 C.3       1 RES1    0.0000
      2 C2         1.8867    3.2411   -0.4631 C.3       1 RES1    0.0000
      3 H1         2.3406    3.0530   -1.2878 H         1 RES1    0.0000
      4 H2         0.9933    2.8921   -0.5022 H         1 RES1    0.0000
      5 C3         1.8126    4.7597   -0.2761 C.3       1 RES1    0.0000
      6 H3         1.1405    4.9614    0.3788 H         1 RES1    0.0000
      7 H4         1.5769    5.1654   -1.1131 H         1 RES1    0.0000
      8 C4         3.1373    5.3263    0.1894 C.3       1 RES1    0.0000
      9 H5         3.7415    5.3467   -0.5559 H         1 RES1    0.0000
     10 H6         2.9922    6.2215    0.5070 H         1 RES1    0.0000
     11 C5         3.7662    4.5149    1.3049 C.3       1 RES1    0.0000
     12 H7         4.6092    4.9410    1.4723 H         1 RES1    0.0000
     13 C6         3.0941    4.5421    2.6501 C.3       1 RES1    0.0000
     14 H8         3.6859    4.1432    3.2915 H         1 RES1    0.0000
     15 H9         2.9335    5.4577    2.8883 H         1 RES1    0.0000
     16 C7         1.7817    3.8032    2.6953 C.3       1 RES1    0.0000
     17 H10        1.5388    3.6513    3.6116 H         1 RES1    0.0000
     18 H11        1.1065    4.3381    2.2701 H         1 RES1    0.0000
     19 C8         1.8805    2.4569    1.9744 C.3       1 RES1    0.0000
     20 H12        0.9933    2.1350    1.7973 H         1 RES1    0.0000
     21 H13        2.3375    1.8336    2.5450 H         1 RES1    0.0000
     22 O1         3.8990    3.1436    0.8528 O.3       1 RES1    0.0000
     23 O2         2.8831    1.2375    0.1295 O.3       1 RES1    0.0000
     24 C9         3.4564    0.2448    0.8406 C.ar      1 RES1    0.0000
     25 C10        3.0344   -1.0539    0.5645 C.ar      1 RES1    0.0000
     26 C11        3.6118   -2.1532    1.1497 C.ar      1 RES1    0.0000
     27 H14        3.3205   -3.0394    0.9249 H         1 RES1    0.0000
     28 C12        4.6092   -1.9560    2.0575 C.ar      1 RES1    0.0000
     29 C13        5.0559   -0.6913    2.3678 C.ar      1 RES1    0.0000
     30 H15        5.7661   -0.5666    3.0020 H         1 RES1    0.0000
     31 C14        4.4682    0.3944    1.7569 C.ar      1 RES1    0.0000
     32 H16        4.7749    1.2783    1.9757 H         1 RES1    0.0000
     33 N1         5.2299   -3.1232    2.6880 N.pl3     1 RES1    0.0000
     34 O3         6.1501   -2.9442    3.4443 O.2       1 RES1    0.0000
     35 O4         4.7605   -4.2293    2.4363 O.2       1 RES1    0.0000
     36 N2         1.9680   -1.3123   -0.3702 N.pl3     1 RES1    0.0000
     37 O5         1.6263   -2.2778   -0.7355 O.2       1 RES1    0.0000
     38 O6         0.8430   -0.5508   -0.0159 O.2       1 RES1    0.0000
@<TRIPOS>BOND
     1    1    2 1
     2    2    3 1
     3    4    2 1
     4    5    2 1
     5    6    5 1
     6    7    5 1
     7    8    5 1
     8    9    8 1
     9   10    8 1
    10   11    8 1
    11   12   11 1
    12   13   11 1
    13   14   13 1
    14   15   13 1
    15   16   13 1
    16   17   16 1
    17   18   16 1
    18   19    1 1
    19   20   19 1
    20   21   19 1
    21   22    1 1
    22   23    1 1
    23   24   23 1
    24   25   24 ar
    25   26   25 ar
    26   27   26 1
    27   28   26 ar
    28   29   28 ar
    29   30   29 1
    30   31   24 ar
    31   32   31 1
    32   33   28 1
    33   34   33 2
    34   35   33 2
    35   36   25 1
    36   37   36 2
    37   38   36 2
    38   11   22 1
    39   16   19 1
    40   29   31 ar
@<TRIPOS>SUBSTRUCTURE
     1 RES1 1

@<TRIPOS>CRYSIN
  10.2930   22.6650   12.2180  90.0000  90.0000  90.0000  61 1

