# MOL2 file generated by ConQuest
# Please check atom types

@<TRIPOS>MOLECULE
BIRFUD
    76    81     1
SMALL
USER_CHARGES
****
Generated from CSD

@<TRIPOS>ATOM
      1 C1         8.1478    0.4166   20.4979 C.3       1 RES1    0.0000
      2 C2         7.1884    0.9824   19.4576 C.3       1 RES1    0.0000
      3 C3         6.7295    0.4210   17.2864 C.3       1 RES1    0.0000
      4 C4         8.1118    1.7950   18.5208 C.3       1 RES1    0.0000
      5 C5         9.5294    1.5448   19.0358 C.3       1 RES1    0.0000
      6 C6        10.5801    1.2575   17.9981 C.3       1 RES1    0.0000
      7 C7        10.5103   -0.0699   17.2787 C.3       1 RES1    0.0000
      8 C8        12.5879    0.1154   18.1870 C.3       1 RES1    0.0000
      9 C9         5.5106    1.2836   17.0303 C.3       1 RES1    0.0000
     10 C10        6.8602   -0.7389   16.3445 C.3       1 RES1    0.0000
     11 C11       12.5894   -0.9180   19.3386 C.3       1 RES1    0.0000
     12 C12       13.9335    0.5336   17.7005 C.3       1 RES1    0.0000
     13 C13        8.0825    1.2420   25.0809 C.3       1 RES1    0.0000
     14 C14        8.5047    2.3536   26.0073 C.3       1 RES1    0.0000
     15 C15        8.5891    2.5577   28.2768 C.3       1 RES1    0.0000
     16 C16        7.1860    2.9504   26.4990 C.3       1 RES1    0.0000
     17 C17        6.1157    2.0485   25.8779 C.3       1 RES1    0.0000
     18 C18        4.9728    1.6769   26.7681 C.3       1 RES1    0.0000
     19 C19        5.2201    0.5159   27.7411 C.3       1 RES1    0.0000
     20 C20        3.4001    0.0006   26.4602 C.3       1 RES1    0.0000
     21 C21        9.3656    3.8468   28.4553 C.3       1 RES1    0.0000
     22 C22        8.5986    1.7063   29.5060 C.3       1 RES1    0.0000
     23 C23        3.0709   -0.8997   25.2957 C.3       1 RES1    0.0000
     24 C24        2.2389    0.2097   27.3814 C.3       1 RES1    0.0000
     25 O1         6.7118   -0.0810   18.6373 O.3       1 RES1    0.0000
     26 O2         7.9169    1.1987   17.2347 O.3       1 RES1    0.0000
     27 O3         9.4091    0.4144   19.9363 O.3       1 RES1    0.0000
     28 O4        11.8518    1.2392   18.6321 O.3       1 RES1    0.0000
     29 O5        11.8759   -0.4221   17.0975 O.3       1 RES1    0.0000
     30 O6         8.2278    2.5916   21.4398 O.2       1 RES1   -1.0000
     31 O7         8.1143    1.8261   23.7533 O.3       1 RES1    0.0000
     32 O8         9.1056    1.8133   27.1666 O.3       1 RES1    0.0000
     33 O9         7.2410    2.8112   27.9223 O.3       1 RES1    0.0000
     34 O10        6.8175    0.8609   25.4380 O.3       1 RES1    0.0000
     35 O11        3.8819    1.2198   25.9581 O.3       1 RES1    0.0000
     36 O12        4.5069   -0.5663   27.1537 O.3       1 RES1    0.0000
     37 N1         8.1156    1.3618   21.6753 N.pl3     1 RES1    1.0000
     38 N2         8.0829    0.8143   22.8347 N.2       1 RES1    0.0000
     39 H1         7.8899   -0.3833   20.8602 H         1 RES1    0.0000
     40 H2         6.4562    1.4927   19.8380 H         1 RES1    0.0000
     41 H3         7.8382    2.7480   18.5959 H         1 RES1    0.0000
     42 H4         9.8712    2.3625   19.5533 H         1 RES1    0.0000
     43 H5        10.5730    1.9603   17.3304 H         1 RES1    0.0000
     44 H6         9.9875   -0.0022   16.3833 H         1 RES1    0.0000
     45 H7        10.0790   -0.7777   17.8765 H         1 RES1    0.0000
     46 H8         4.7369    0.6740   17.0898 H         1 RES1    0.0000
     47 H9         5.5130    1.7262   16.0909 H         1 RES1    0.0000
     48 H10        5.3756    2.0191   17.7497 H         1 RES1    0.0000
     49 H11        6.0716   -1.2608   16.4169 H         1 RES1    0.0000
     50 H12        7.7161   -1.1804   16.5541 H         1 RES1    0.0000
     51 H13        6.9220   -0.3883   15.4051 H         1 RES1    0.0000
     52 H14       13.3724   -1.5609   18.6528 H         1 RES1    0.0000
     53 H15       11.4955   -0.8060   19.5844 H         1 RES1    0.0000
     54 H16       13.1999   -0.5175   19.7423 H         1 RES1    0.0000
     55 H17       14.4731   -0.2851   17.3485 H         1 RES1    0.0000
     56 H18       14.4022    0.8149   18.3060 H         1 RES1    0.0000
     57 H19       13.5531    1.1100   16.9656 H         1 RES1    0.0000
     58 H20        8.6725    0.5098   25.0265 H         1 RES1    0.0000
     59 H21        9.1586    2.9798   25.5674 H         1 RES1    0.0000
     60 H22        7.0161    3.9095   26.2428 H         1 RES1    0.0000
     61 H23        5.7806    2.4756   25.1896 H         1 RES1    0.0000
     62 H24        4.6937    2.4324   27.2624 H         1 RES1    0.0000
     63 H25        4.8417    0.7378   28.7219 H         1 RES1    0.0000
     64 H26        6.2645    0.2823   27.7799 H         1 RES1    0.0000
     65 H27        8.9213    4.3250   29.2032 H         1 RES1    0.0000
     66 H28        9.2651    4.3744   27.5988 H         1 RES1    0.0000
     67 H29       10.2505    3.7243   28.6080 H         1 RES1    0.0000
     68 H30        9.4189    1.6075   29.6794 H         1 RES1    0.0000
     69 H31        7.9123    0.9541   29.4723 H         1 RES1    0.0000
     70 H32        8.1559    2.1517   30.3833 H         1 RES1    0.0000
     71 H33        2.5202   -1.6391   25.7304 H         1 RES1    0.0000
     72 H34        3.8875   -1.0783   24.7186 H         1 RES1    0.0000
     73 H35        2.4553   -0.4310   24.6435 H         1 RES1    0.0000
     74 H36        1.6228    0.8176   26.8457 H         1 RES1    0.0000
     75 H37        2.5274    0.6618   28.1810 H         1 RES1    0.0000
     76 H38        1.8083   -0.2613   27.6609 H         1 RES1    0.0000
@<TRIPOS>BOND
     1    1    2 1
     2    2    4 1
     3    3    9 1
     4    4    5 1
     5    5    6 1
     6    6    7 1
     7    7   29 1
     8    8   11 1
     9    9   46 1
    10   10    3 1
    11   11   52 1
    12   12    8 1
    13   13   14 1
    14   14   16 1
    15   15   21 1
    16   16   17 1
    17   17   18 1
    18   18   19 1
    19   19   36 1
    20   20   23 1
    21   21   65 1
    22   22   15 1
    23   23   71 1
    24   24   20 1
    25   25    2 1
    26   26    3 1
    27   27    1 1
    28   28    6 1
    29   29    8 1
    30   30   37 1
    31   31   13 1
    32   32   14 1
    33   33   15 1
    34   34   13 1
    35   35   18 1
    36   36   20 1
    37   37    1 1
    38   38   31 1
    39   39    1 1
    40   40    2 1
    41   41    4 1
    42   42    5 1
    43   43    6 1
    44   44    7 1
    45   45    7 1
    46   47    9 1
    47   48    9 1
    48   49   10 1
    49   50   10 1
    50   51   10 1
    51   53   11 1
    52   54   11 1
    53   55   12 1
    54   56   12 1
    55   57   12 1
    56   58   13 1
    57   59   14 1
    58   60   16 1
    59   61   17 1
    60   62   18 1
    61   63   19 1
    62   64   19 1
    63   66   21 1
    64   67   21 1
    65   68   22 1
    66   69   22 1
    67   70   22 1
    68   72   23 1
    69   73   23 1
    70   74   24 1
    71   75   24 1
    72   76   24 1
    73    3   25 1
    74    4   26 1
    75    5   27 1
    76    8   28 1
    77   15   32 1
    78   16   33 1
    79   17   34 1
    80   20   35 1
    81   37   38 2
@<TRIPOS>SUBSTRUCTURE
     1 RES1 1

