# MOL2 file generated by ConQuest
# Please check atom types

@<TRIPOS>MOLECULE
BITSAA
    42    45     1
SMALL
NO_CHARGES
****
Generated from CSD

@<TRIPOS>ATOM
      1 C1        -1.5809    3.4390    8.8043 C.2       1 RES1    0.0000
      2 C2        -2.7780    3.8112   10.5351 C.ar      1 RES1    0.0000
      3 C3        -3.6854    4.2919   11.4696 C.ar      1 RES1    0.0000
      4 H1        -4.1299    5.0979   11.3330 H         1 RES1    0.0000
      5 C4        -3.9084    3.5440   12.6020 C.ar      1 RES1    0.0000
      6 H2        -4.5160    3.8478   13.2365 H         1 RES1    0.0000
      7 C5        -3.2437    2.3427   12.8173 C.ar      1 RES1    0.0000
      8 H3        -3.4094    1.8672   13.5991 H         1 RES1    0.0000
      9 C6        -2.3494    1.8414   11.9052 C.ar      1 RES1    0.0000
     10 H4        -1.9026    1.0391   12.0495 H         1 RES1    0.0000
     11 C7        -2.1478    2.5922   10.7596 C.ar      1 RES1    0.0000
     12 C8        -0.9248    3.5696    7.4929 C.2       1 RES1    0.0000
     13 C9        -1.4902    4.3402    6.5450 C.2       1 RES1    0.0000
     14 H5        -2.3191    4.6944    6.7747 H         1 RES1    0.0000
     15 C10       -1.0152    4.7147    5.2107 C.ar      1 RES1    0.0000
     16 C11       -1.7511    5.6668    4.5207 C.ar      1 RES1    0.0000
     17 H6        -2.5307    6.0025    4.9022 H         1 RES1    0.0000
     18 C12       -1.3539    6.1288    3.2814 C.ar      1 RES1    0.0000
     19 H7        -1.8560    6.7647    2.8261 H         1 RES1    0.0000
     20 C13       -0.2067    5.6259    2.7438 C.ar      1 RES1    0.0000
     21 C14        0.5221    4.6672    3.3712 C.ar      1 RES1    0.0000
     22 H8         1.2878    4.3225    2.9714 H         1 RES1    0.0000
     23 C15        0.1165    4.2094    4.6055 C.ar      1 RES1    0.0000
     24 H9         0.6120    3.5498    5.0363 H         1 RES1    0.0000
     25 C16        0.3260    2.9145    7.3135 C.1       1 RES1    0.0000
     26 C17       -1.3774    0.3505    8.2762 C.ar      1 RES1    0.0000
     27 H10       -2.1185    0.6751    7.8177 H         1 RES1    0.0000
     28 C18       -0.8166    1.0816    9.2940 C.ar      1 RES1    0.0000
     29 C19       -0.8357   -0.8613    7.9432 C.ar      1 RES1    0.0000
     30 H11       -1.2032   -1.3529    7.2441 H         1 RES1    0.0000
     31 C20        0.2280   -1.3516    8.6174 C.ar      1 RES1    0.0000
     32 H12        0.5860   -2.1784    8.3840 H         1 RES1    0.0000
     33 C21        0.2584    0.5989    9.9907 C.ar      1 RES1    0.0000
     34 H13        0.6337    1.0918   10.6836 H         1 RES1    0.0000
     35 C22        0.7771   -0.6356    9.6443 C.ar      1 RES1    0.0000
     36 H14        1.5032   -0.9811   10.1124 H         1 RES1    0.0000
     37 N1        -1.3819    2.3504    9.6334 N.pl3     1 RES1    0.0000
     38 N2        -2.3822    4.3447    9.3114 N.2       1 RES1    0.0000
     39 N3         1.3276    2.3841    7.1709 N.1       1 RES1    0.0000
     40 N4         0.2775    6.1402    1.4564 N.pl3     1 RES1    0.0000
     41 O1        -0.4077    6.9638    0.8671 O.2       1 RES1    0.0000
     42 O2         1.3385    5.7224    1.0315 O.2       1 RES1    0.0000
@<TRIPOS>BOND
     1    1   12 1
     2    2    3 ar
     3    3    4 1
     4    5    3 ar
     5    6    5 1
     6    7    5 ar
     7    8    7 1
     8    9    7 ar
     9   10    9 1
    10   11    2 ar
    11   12   13 2
    12   13   14 1
    13   15   13 1
    14   16   15 ar
    15   17   16 1
    16   18   16 ar
    17   19   18 1
    18   20   18 ar
    19   21   20 ar
    20   22   21 1
    21   23   15 ar
    22   24   23 1
    23   25   12 1
    24   26   27 1
    25   28   26 ar
    26   29   26 ar
    27   30   29 1
    28   31   29 ar
    29   32   31 1
    30   33   28 ar
    31   34   33 1
    32   35   31 ar
    33   36   35 1
    34   37    1 1
    35   38    1 2
    36   39   25 3
    37   40   20 1
    38   41   40 2
    39   42   40 2
    40    2   38 1
    41    9   11 ar
    42   11   37 1
    43   21   23 ar
    44   28   37 1
    45   33   35 ar
@<TRIPOS>SUBSTRUCTURE
     1 RES1 1

@<TRIPOS>CRYSIN
   5.4466   26.3730   12.6600  90.0000 101.2440  90.0000 231 1

