# MOL2 file generated by ConQuest
# Please check atom types

@<TRIPOS>MOLECULE
BIVKUM
    32    35     1
SMALL
NO_CHARGES
****
Generated from CSD

@<TRIPOS>ATOM
      1 C1         1.0627    7.8920    1.2377 C.3       1 RES1    0.0000
      2 C2         0.9681    8.7378    0.0087 C.3       1 RES1    0.0000
      3 C3         1.9900    8.3684   -0.9410 C.3       1 RES1    0.0000
      4 C4         2.8273    7.2412   -0.4132 C.3       1 RES1    0.0000
      5 C5         2.3794    7.0723    1.0315 C.3       1 RES1    0.0000
      6 C6         2.9801    7.8865    2.1478 C.2       1 RES1    0.0000
      7 C7         1.6832    8.5950    2.4801 C.3       1 RES1    0.0000
      8 C8         5.5816    8.8229    4.2986 C.ar      1 RES1    0.0000
      9 C9         6.6170    7.9483    3.9798 C.ar      1 RES1    0.0000
     10 C10        7.8296    8.0403    4.6270 C.ar      1 RES1    0.0000
     11 C11        8.0036    9.0069    5.5988 C.ar      1 RES1    0.0000
     12 C12        6.9881    9.8650    5.9417 C.ar      1 RES1    0.0000
     13 C13        5.7786    9.7799    5.2964 C.ar      1 RES1    0.0000
     14 O1         2.1263    9.5767   -0.1657 O.3       1 RES1    0.0000
     15 O2        10.1890    8.3382    5.9687 O.2       1 RES1    0.0000
     16 O3         9.3843    9.9076    7.2092 O.2       1 RES1    0.0000
     17 N1         4.1687    7.9002    2.6102 N.2       1 RES1    0.0000
     18 N2         4.3736    8.7748    3.6581 N.pl3     1 RES1    0.0000
     19 N3         9.2771    9.0948    6.2952 N.pl3     1 RES1    0.0000
     20 H1         0.2525    7.3565    1.4226 H         1 RES1    0.0000
     21 H2         0.2091    9.2128   -0.2533 H         1 RES1    0.0000
     22 H3         1.8722    8.4604   -1.8955 H         1 RES1    0.0000
     23 H4         3.7629    7.4636   -0.5018 H         1 RES1    0.0000
     24 H5         2.5956    6.3886   -0.9208 H         1 RES1    0.0000
     25 H6         2.3424    6.1620    1.2463 H         1 RES1    0.0000
     26 H7         1.3334    8.2737    3.3219 H         1 RES1    0.0000
     27 H8         1.7039    9.5877    2.3915 H         1 RES1    0.0000
     28 H9         3.7634    9.2746    3.9017 H         1 RES1    0.0000
     29 H10        6.4496    7.2796    3.3335 H         1 RES1    0.0000
     30 H11        8.5415    7.4115    4.3833 H         1 RES1    0.0000
     31 H12        7.1094   10.5240    6.6150 H         1 RES1    0.0000
     32 H13        5.0878   10.3648    5.5333 H         1 RES1    0.0000
@<TRIPOS>BOND
     1    1    2 1
     2    2    3 1
     3    3    4 1
     4    4    5 1
     5    5    1 1
     6    6    5 1
     7    7    1 1
     8    8    9 ar
     9    9   10 ar
    10   10   11 ar
    11   11   12 ar
    12   12   13 ar
    13   13    8 ar
    14   14    2 1
    15   15   19 2
    16   16   19 2
    17   17    6 2
    18   18    8 1
    19   19   11 1
    20   20    1 1
    21   21    2 1
    22   22    3 1
    23   23    4 1
    24   24    4 1
    25   25    5 1
    26   26    7 1
    27   27    7 1
    28   28   18 1
    29   29    9 1
    30   30   10 1
    31   31   12 1
    32   32   13 1
    33    3   14 1
    34    6    7 1
    35   17   18 1
@<TRIPOS>SUBSTRUCTURE
     1 RES1 1

@<TRIPOS>CRYSIN
   9.5000   13.7300    9.7000  90.0000  83.1900  90.0000  14 1

