# MOL2 file generated by ConQuest
# Please check atom types

@<TRIPOS>MOLECULE
BIYHAS
    16    16     1
SMALL
NO_CHARGES
****
Generated from CSD

@<TRIPOS>ATOM
      1 C1         9.9841    1.9723   -1.2095 C.2       1 RES1    0.0000
      2 C2        11.4187    2.3001   -1.5122 C.3       1 RES1    0.0000
      3 C3        12.3732    1.1771   -1.1962 C.3       1 RES1    0.0000
      4 C4        12.1888    0.7391    0.2488 C.3       1 RES1    0.0000
      5 C5        10.7586    0.4508    0.6135 C.2       1 RES1    0.0000
      6 N1         9.7941    1.0305   -0.1868 N.am      1 RES1    0.0000
      7 O1         8.4873    0.8149    0.2377 O.3       1 RES1    0.0000
      8 O2         9.0274    2.4575   -1.7515 O.2       1 RES1    0.0000
      9 O3        10.4442   -0.2392    1.5614 O.2       1 RES1    0.0000
     10 H1         8.0895    0.6889   -0.4023 H         1 RES1    0.0000
     11 H21       11.6343    3.1199   -1.0215 H         1 RES1    0.0000
     12 H22       11.4676    2.6475   -2.4454 H         1 RES1    0.0000
     13 H31       13.2900    1.5354   -1.2862 H         1 RES1    0.0000
     14 H32       12.2232    0.3642   -1.7679 H         1 RES1    0.0000
     15 H41       12.5010    1.4960    0.8098 H         1 RES1    0.0000
     16 H42       12.6677   -0.1181    0.4711 H         1 RES1    0.0000
@<TRIPOS>BOND
     1    1    2 1
     2    2    3 1
     3    3    4 1
     4    4    5 1
     5    5    6 1
     6    6    1 1
     7    7    6 1
     8    8    1 2
     9    9    5 2
    10   10    7 1
    11   11    2 1
    12   12    2 1
    13   13    3 1
    14   14    3 1
    15   15    4 1
    16   16    4 1
@<TRIPOS>SUBSTRUCTURE
     1 RES1 1

@<TRIPOS>CRYSIN
  11.1120    9.8420    5.2930  90.0000  90.0000  90.0000  19 1

