# MOL2 file generated by ConQuest
# Please check atom types

@<TRIPOS>MOLECULE
BIYKOJ
    39    40     1
SMALL
NO_CHARGES
****
Generated from CSD

@<TRIPOS>ATOM
      1 O1         3.0838    3.3370    4.0454 O.2       1 RES1    0.0000
      2 N1         2.0966    3.3370    3.2258 N.2       1 RES1    0.0000
      3 C1         1.7389    4.6531    2.6256 C.3       1 RES1    0.0000
      4 C2         2.7892    5.0282    1.5736 C.3       1 RES1    0.0000
      5 C3         1.7294    5.6916    3.7444 C.3       1 RES1    0.0000
      6 C4         0.3327    4.5744    2.0171 C.3       1 RES1    0.0000
      7 C5         0.0748    3.3370    1.1981 C.3       1 RES1    0.0000
      8 C6        -0.8844    3.3370    0.0686 C.3       1 RES1    0.0000
      9 C7        -1.5971    4.6024   -0.3483 C.3       1 RES1    0.0000
     10 O2         0.5496    3.3370   -0.1750 O.3       1 RES1    0.0000
     11 O3        -1.8762    4.5744   -1.7250 O.3       1 RES1    0.0000
     12 H1         2.7386    4.4582    0.7333 H         1 RES1    0.0000
     13 H2         2.6434    5.9399    1.2655 H         1 RES1    0.0000
     14 H3         3.6933    4.9788    1.9988 H         1 RES1    0.0000
     15 H4         1.1036    5.4326    4.4943 H         1 RES1    0.0000
     16 H5         1.4318    6.5405    3.3411 H         1 RES1    0.0000
     17 H6         2.5932    5.7797    4.1631 H         1 RES1    0.0000
     18 H7        -0.3367    4.5784    2.7912 H         1 RES1    0.0000
     19 H8         0.2091    5.3926    1.4784 H         1 RES1    0.0000
     20 H9        -2.4523    4.6718    0.1538 H         1 RES1    0.0000
     21 H10       -1.0585    5.3792   -0.1833 H         1 RES1    0.0000
     22 H11       -2.4399    4.3381   -1.7563 H         1 RES1    0.0000
     23 C1C        1.7389    2.0209    2.6256 C.3       1 RES1    0.0000
     24 C4C        0.3327    2.0996    2.0171 C.3       1 RES1    0.0000
     25 C7C       -1.5971    2.0716   -0.3483 C.3       1 RES1    0.0000
     26 C2C        2.7892    1.6458    1.5736 C.3       1 RES1    0.0000
     27 C3C        1.7294    0.9824    3.7444 C.3       1 RES1    0.0000
     28 H7C       -0.3367    2.0956    2.7912 H         1 RES1    0.0000
     29 H8C        0.2091    1.2814    1.4784 H         1 RES1    0.0000
     30 O3C       -1.8762    2.0996   -1.7250 O.3       1 RES1    0.0000
     31 H9C       -2.4523    2.0022    0.1538 H         1 RES1    0.0000
     32 H10C      -1.0585    1.2948   -0.1833 H         1 RES1    0.0000
     33 H1C        2.7386    2.2158    0.7333 H         1 RES1    0.0000
     34 H2C        2.6434    0.7341    1.2655 H         1 RES1    0.0000
     35 H3C        3.6933    1.6952    1.9988 H         1 RES1    0.0000
     36 H4C        1.1036    1.2414    4.4943 H         1 RES1    0.0000
     37 H5C        1.4318    0.1335    3.3411 H         1 RES1    0.0000
     38 H6C        2.5932    0.8943    4.1631 H         1 RES1    0.0000
     39 H11C      -2.4399    2.3359   -1.7563 H         1 RES1    0.0000
@<TRIPOS>BOND
     1    1    2 1
     2    2    3 1
     3    3    4 1
     4    4   12 1
     5    5    3 1
     6    6    3 1
     7    7    6 1
     8    8    7 1
     9    9    8 1
    10   10    7 1
    11   11    9 1
    12   13    4 1
    13   14    4 1
    14   15    5 1
    15   16    5 1
    16   17    5 1
    17   18    6 1
    18   19    6 1
    19   20    9 1
    20   21    9 1
    21   22   11 1
    22   23    2 1
    23   24    7 1
    24   25    8 1
    25   26   23 1
    26   27   23 1
    27   28   24 1
    28   29   24 1
    29   30   25 1
    30   31   25 1
    31   32   25 1
    32   33   26 1
    33   34   26 1
    34   35   26 1
    35   36   27 1
    36   37   27 1
    37   38   27 1
    38   39   30 1
    39    8   10 1
    40   23   24 1
@<TRIPOS>SUBSTRUCTURE
     1 RES1 1

@<TRIPOS>CRYSIN
   8.0410   13.3480    5.9450  90.0000  95.9000  90.0000  11 1

