# MOL2 file generated by ConQuest
# Please check atom types

@<TRIPOS>MOLECULE
BIZDIY
    47    48     1
SMALL
NO_CHARGES
****
Generated from CSD

@<TRIPOS>ATOM
      1 C1         6.8991    0.8051    2.6569 C.ar      1 RES1    0.0000
      2 C2         6.6926    2.0065    3.3234 C.ar      1 RES1    0.0000
      3 H1         7.3448    2.6695    3.3251 H         1 RES1    0.0000
      4 C3         5.4861    2.1937    3.9892 C.ar      1 RES1    0.0000
      5 H2         5.3256    2.9905    4.4417 H         1 RES1    0.0000
      6 C4         4.5166    1.1940    3.9808 C.ar      1 RES1    0.0000
      7 C5         4.7519   -0.0010    3.2876 C.ar      1 RES1    0.0000
      8 H3         4.0995   -0.6634    3.2775 H         1 RES1    0.0000
      9 C6         5.9480   -0.2052    2.6170 C.ar      1 RES1    0.0000
     10 H4         6.1081   -0.9961    2.1547 H         1 RES1    0.0000
     11 C7         1.3314    0.6752    5.4398 C.ar      1 RES1    0.0000
     12 C8         0.9968    1.8179    6.1857 C.ar      1 RES1    0.0000
     13 H5         1.5986    2.5244    6.2427 H         1 RES1    0.0000
     14 C9        -0.2150    1.8982    6.8323 C.ar      1 RES1    0.0000
     15 H6        -0.4117    2.6577    7.3325 H         1 RES1    0.0000
     16 C10       -1.1772    0.8493    6.7564 C.ar      1 RES1    0.0000
     17 C11       -0.7975   -0.3253    6.0562 C.ar      1 RES1    0.0000
     18 H7        -1.3728   -1.0558    6.0318 H         1 RES1    0.0000
     19 C12        0.4204   -0.3896    5.4113 C.ar      1 RES1    0.0000
     20 H8         0.6432   -1.1625    4.9442 H         1 RES1    0.0000
     21 C13       -3.3633   -0.1369    7.3724 C.3       1 RES1    0.0000
     22 H9        -3.3512   -0.6026    6.5219 H         1 RES1    0.0000
     23 H10       -4.2577    0.2154    7.5041 H         1 RES1    0.0000
     24 C14       -3.0562   -1.1331    8.4853 C.3       1 RES1    0.0000
     25 H11       -3.0855   -0.6847    9.3341 H         1 RES1    0.0000
     26 H12       -2.1814   -1.5048    8.3499 H         1 RES1    0.0000
     27 H13       -3.7083   -1.8376    8.4739 H         1 RES1    0.0000
     28 C15       -2.8567    2.2584    7.8738 C.3       1 RES1    0.0000
     29 H14       -3.8175    2.3410    7.7667 H         1 RES1    0.0000
     30 H15       -2.4382    2.9830    7.3842 H         1 RES1    0.0000
     31 C16       -2.5033    2.3792    9.3468 C.3       1 RES1    0.0000
     32 H16       -2.9395    1.6798    9.8594 H         1 RES1    0.0000
     33 H17       -1.5448    2.3037    9.4727 H         1 RES1    0.0000
     34 C17       -2.4671    4.1031   10.9419 C.2       1 RES1    0.0000
     35 C18       -2.9164    5.4617   11.3288 C.2       1 RES1    0.0000
     36 H18       -2.7455    5.7421   12.1981 H         1 RES1    0.0000
     37 C19       -3.5363    6.2926   10.5326 C.2       1 RES1    0.0000
     38 H19       -3.7229    6.0450    9.6567 H         1 RES1    0.0000
     39 H20       -3.7898    7.1318   10.8416 H         1 RES1    0.0000
     40 N1         8.1891    0.5871    1.9917 N.pl3     1 RES1    0.0000
     41 N2         3.3166    1.4719    4.7006 N.2       1 RES1    0.0000
     42 N3         2.5259    0.4768    4.7332 N.2       1 RES1    0.0000
     43 N4        -2.4172    0.9809    7.3145 N.3       1 RES1    0.0000
     44 O1         8.9920    1.5147    1.9551 O.2       1 RES1    0.0000
     45 O2         8.4097   -0.5211    1.5014 O.2       1 RES1    0.0000
     46 O3        -2.9694    3.6845    9.7709 O.3       1 RES1    0.0000
     47 O4        -1.7214    3.4362   11.6265 O.2       1 RES1    0.0000
@<TRIPOS>BOND
     1    1    2 ar
     2    2    3 1
     3    4    2 ar
     4    5    4 1
     5    6    4 ar
     6    7    6 ar
     7    8    7 1
     8    9    1 ar
     9   10    9 1
    10   11   12 ar
    11   12   13 1
    12   14   12 ar
    13   15   14 1
    14   16   14 ar
    15   17   16 ar
    16   18   17 1
    17   19   11 ar
    18   20   19 1
    19   21   22 1
    20   23   21 1
    21   24   21 1
    22   25   24 1
    23   26   24 1
    24   27   24 1
    25   28   29 1
    26   30   28 1
    27   31   28 1
    28   32   31 1
    29   33   31 1
    30   34   35 1
    31   35   36 1
    32   37   35 2
    33   38   37 1
    34   39   37 1
    35   40    1 1
    36   41    6 1
    37   42   11 1
    38   43   16 1
    39   44   40 2
    40   45   40 2
    41   46   31 1
    42   47   34 2
    43    7    9 ar
    44   17   19 ar
    45   21   43 1
    46   28   43 1
    47   34   46 1
    48   41   42 2
@<TRIPOS>SUBSTRUCTURE
     1 RES1 1

@<TRIPOS>CRYSIN
   8.1518   10.6651   20.6782  90.0000  90.0000  90.0000  19 1

