# MOL2 file generated by ConQuest
# Please check atom types

@<TRIPOS>MOLECULE
BIZGUM
    44    44     1
SMALL
NO_CHARGES
****
Generated from CSD

@<TRIPOS>ATOM
      1 C1         3.4137    6.4466    8.0715 C.3       1 RES1    0.0000
      2 C2         2.9684    7.2846    6.8704 C.3       1 RES1    0.0000
      3 C3         3.7262    6.9436    5.6090 C.3       1 RES1    0.0000
      4 C4         3.0045    7.2193    4.2789 C.3       1 RES1    0.0000
      5 C5         2.0043    6.0548    3.9930 C.3       1 RES1    0.0000
      6 C6         2.5800    4.7016    4.1906 C.2       1 RES1    0.0000
      7 C7         2.1047    3.8291    5.0708 C.2       1 RES1    0.0000
      8 C8         2.9220    2.7118    7.0918 C.3       1 RES1    0.0000
      9 C9         3.4777    4.0486    7.4800 C.2       1 RES1    0.0000
     10 C10        2.8194    5.0644    8.0084 C.2       1 RES1    0.0000
     11 C11        2.7443    2.5558    5.5389 C.3       1 RES1    0.0000
     12 C12        1.8346    1.3622    5.2894 C.3       1 RES1    0.0000
     13 C13        4.1153    2.3037    4.9194 C.3       1 RES1    0.0000
     14 C14        2.2890    8.5417    4.1836 C.3       1 RES1    0.0000
     15 C15        1.4206    4.9665    8.5046 C.3       1 RES1    0.0000
     16 N1         4.0668    7.0797    3.2165 N.2       1 RES1    0.0000
     17 N2         5.0318    7.7218    5.6945 N.pl3     1 RES1    0.0000
     18 O1         5.0781    8.8591    5.3245 O.2       1 RES1    0.0000
     19 O2         5.9558    7.1649    6.1570 O.2       1 RES1    0.0000
     20 O3         3.8990    7.5422    2.1962 O.2       1 RES1    0.0000
     21 H1         3.0911    6.9291    8.9825 H         1 RES1    0.0000
     22 H2         4.4909    6.3668    8.0673 H         1 RES1    0.0000
     23 H3         3.1291    8.3276    7.1002 H         1 RES1    0.0000
     24 H4         1.9156    7.1123    6.7008 H         1 RES1    0.0000
     25 H5         3.8587    5.8734    5.5753 H         1 RES1    0.0000
     26 H6         1.6727    6.1346    2.9685 H         1 RES1    0.0000
     27 H7         1.1578    6.1618    4.6545 H         1 RES1    0.0000
     28 H8         3.4276    4.4114    3.5880 H         1 RES1    0.0000
     29 H9         1.1436    4.0649    5.5025 H         1 RES1    0.0000
     30 H10        3.5958    1.9427    7.4408 H         1 RES1    0.0000
     31 H11        1.9583    2.5866    7.5655 H         1 RES1    0.0000
     32 H12        4.5332    4.1974    7.3091 H         1 RES1    0.0000
     33 H13        2.3207    0.4625    5.6370 H         1 RES1    0.0000
     34 H14        1.6321    1.2770    4.2327 H         1 RES1    0.0000
     35 H15        0.9058    1.4965    5.8248 H         1 RES1    0.0000
     36 H16        4.7530    3.1562    5.0988 H         1 RES1    0.0000
     37 H17        4.0065    2.1549    3.8542 H         1 RES1    0.0000
     38 H18        4.5569    1.4239    5.3623 H         1 RES1    0.0000
     39 H19        1.5364    8.6015    4.9559 H         1 RES1    0.0000
     40 H20        1.8191    8.6287    3.2151 H         1 RES1    0.0000
     41 H21        3.0000    9.3452    4.3111 H         1 RES1    0.0000
     42 H22        1.3140    5.4036    9.2796 H         1 RES1    0.0000
     43 H23        1.2342    4.0740    8.4934 H         1 RES1    0.0000
     44 H24        0.8432    5.6140    8.0435 H         1 RES1    0.0000
@<TRIPOS>BOND
     1    1    2 1
     2    2    3 1
     3    3    4 1
     4    4    5 1
     5    5    6 1
     6    6    7 2
     7    7   11 1
     8    8    9 1
     9    9   10 2
    10   10    1 1
    11   11    8 1
    12   12   11 1
    13   13   11 1
    14   14    4 1
    15   15   10 1
    16   16    4 1
    17   17    3 1
    18   18   17 2
    19   19   17 2
    20   20   16 2
    21   21    1 1
    22   22    1 1
    23   23    2 1
    24   24    2 1
    25   25    3 1
    26   26    5 1
    27   27    5 1
    28   28    6 1
    29   29    7 1
    30   30    8 1
    31   31    8 1
    32   32    9 1
    33   33   12 1
    34   34   12 1
    35   35   12 1
    36   36   13 1
    37   37   13 1
    38   38   13 1
    39   39   14 1
    40   40   14 1
    41   41   14 1
    42   42   15 1
    43   43   15 1
    44   44   15 1
@<TRIPOS>SUBSTRUCTURE
     1 RES1 1

@<TRIPOS>CRYSIN
   6.4840   18.1390   14.2940  90.0000 101.3300  90.0000 231 1

