# MOL2 file generated by ConQuest
# Please check atom types

@<TRIPOS>MOLECULE
BNPQOX
    22    23     1
SMALL
NO_CHARGES
****
Generated from CSD

@<TRIPOS>ATOM
      1 C1         4.2920    1.6750   -5.3146 C.2       1 RES1    0.0000
      2 C2         4.7199    1.6750   -3.8777 C.2       1 RES1    0.0000
      3 C3         6.1390    1.6750   -3.6021 C.2       1 RES1    0.0000
      4 H1         6.4618    1.6750   -2.5709 H         1 RES1    0.0000
      5 C4         7.0458    1.6750   -4.5863 C.2       1 RES1    0.0000
      6 H2         8.0951    1.6750   -4.3304 H         1 RES1    0.0000
      7 C5         6.6786    1.6750   -6.0057 C.ar      1 RES1    0.0000
      8 C6         7.6958    1.6750   -6.9800 C.ar      1 RES1    0.0000
      9 H3         8.7358    1.6750   -6.6891 H         1 RES1    0.0000
     10 C7         7.3462    1.6750   -8.3404 C.ar      1 RES1    0.0000
     11 C8         6.0396    1.6750   -8.6936 C.ar      1 RES1    0.0000
     12 H4         5.7862    1.6750   -9.7445 H         1 RES1    0.0000
     13 C9         5.0264    1.6750   -7.7488 C.ar      1 RES1    0.0000
     14 H5         3.9944    1.6750   -8.0681 H         1 RES1    0.0000
     15 C10        5.3256    1.6750   -6.3687 C.ar      1 RES1    0.0000
     16 C11        8.5234    1.6750   -9.3759 C.3       1 RES1    0.0000
     17 C12        9.4788    2.8870   -9.0391 C.3       1 RES1    0.0000
     18 C13        8.0390    1.6750  -10.6630 C.3       1 RES1    0.0000
     19 N1         3.0555    1.6750   -5.7378 N.2       1 RES1    0.0000
     20 O1         3.8566    1.6750   -2.9974 O.2       1 RES1    0.0000
     21 O2         2.1291    1.6750   -4.7427 O.3       1 RES1    0.0000
     22 C12C       9.4788    0.4630   -9.0391 C.3       1 RES1    0.0000
@<TRIPOS>BOND
     1    1    2 1
     2    2    3 1
     3    3    4 1
     4    5    3 2
     5    6    5 1
     6    7    5 1
     7    8    7 ar
     8    9    8 1
     9   10    8 ar
    10   11   10 ar
    11   12   11 1
    12   13   11 ar
    13   14   13 1
    14   15    1 1
    15   16   10 1
    16   17   16 1
    17   18   16 1
    18   19    1 2
    19   20    2 2
    20   21   19 1
    21   22   16 1
    22    7   15 ar
    23   13   15 ar
@<TRIPOS>SUBSTRUCTURE
     1 RES1 1

@<TRIPOS>CRYSIN
   8.3200    6.7000   11.1400  90.0000 101.0000  90.0000  11 1

