# MOL2 file generated by ConQuest
# Please check atom types

@<TRIPOS>MOLECULE
BOBLEK
    78    80     1
SMALL
NO_CHARGES
****
Generated from CSD

@<TRIPOS>ATOM
      1 O1         3.1778    8.5542   25.8534 O.3       1 RES1    0.0000
      2 H1         3.0427    8.7722   26.6312 H         1 RES1    0.0000
      3 O2         2.7010    9.0662   21.7389 O.3       1 RES1    0.0000
      4 O3         3.8642   10.9700   21.5491 O.2       1 RES1    0.0000
      5 O4         2.1030    8.5106   14.9854 O.2       1 RES1    0.0000
      6 O5         3.1450   10.3674   14.7239 O.2       1 RES1    0.0000
      7 O6         3.0325    4.1843   24.3440 O.3       1 RES1    0.0000
      8 O7         3.6247    2.1799   25.2024 O.3       1 RES1    0.0000
      9 O8         3.6977    4.9870   20.1472 O.3       1 RES1    0.0000
     10 N1         2.6682    9.4966   15.4204 N.pl3     1 RES1    0.0000
     11 C1         1.3268   10.5362   25.9493 C.2       1 RES1    0.0000
     12 H2         0.7463   11.2628   25.9758 H         1 RES1    0.0000
     13 H3         2.1293   10.5642   26.4199 H         1 RES1    0.0000
     14 C2         1.0091    9.4597   25.2425 C.2       1 RES1    0.0000
     15 C3         3.0070    9.9392   19.5915 C.ar      1 RES1    0.0000
     16 C4         3.2399   10.0745   21.0489 C.2       1 RES1    0.0000
     17 C5         3.0464    8.9846   23.1484 C.3       1 RES1    0.0000
     18 H4         2.7996    9.8085   23.5981 H         1 RES1    0.0000
     19 H5         4.0030    8.8571   23.2472 H         1 RES1    0.0000
     20 C6         2.3023    7.8175   23.7654 C.3       1 RES1    0.0000
     21 H6         1.4524    7.7526   23.2830 H         1 RES1    0.0000
     22 C7         1.9372    8.2356   25.2274 C.3       1 RES1    0.0000
     23 C8         1.2559    7.0953   25.9558 C.3       1 RES1    0.0000
     24 H7         1.1603    7.3312   26.8926 H         1 RES1    0.0000
     25 H8         0.3673    6.9723   25.5891 H         1 RES1    0.0000
     26 C9         2.0110    5.8041   25.8523 C.3       1 RES1    0.0000
     27 H9         1.5349    5.1166   26.3447 H         1 RES1    0.0000
     28 H10        2.8843    5.9115   26.2623 H         1 RES1    0.0000
     29 C10        2.1884    5.3492   24.3949 C.3       1 RES1    0.0000
     30 C11        3.0019    6.4324   23.5953 C.3       1 RES1    0.0000
     31 C12        3.0179    6.1328   22.0748 C.3       1 RES1    0.0000
     32 H11        2.0971    6.1194   21.7719 H         1 RES1    0.0000
     33 H12        3.4509    6.8807   21.6358 H         1 RES1    0.0000
     34 C13        3.6860    4.8550   21.5735 C.3       1 RES1    0.0000
     35 H13        4.5893    4.7801   21.9187 H         1 RES1    0.0000
     36 H14        3.1808    4.0725   21.8435 H         1 RES1    0.0000
     37 C14        4.3286    3.9115   19.5059 C.3       1 RES1    0.0000
     38 H15        3.9285    3.0776   19.7952 H         1 RES1    0.0000
     39 H16        5.2691    3.8948   19.7451 H         1 RES1    0.0000
     40 C15        4.1862    4.0513   18.0180 C.ar      1 RES1    0.0000
     41 C16        4.6769    3.0586   17.1912 C.ar      1 RES1    0.0000
     42 H17        5.1136    2.3286   17.5679 H         1 RES1    0.0000
     43 C17        4.5345    3.1245   15.8276 C.ar      1 RES1    0.0000
     44 H18        4.8690    2.4404   15.2940 H         1 RES1    0.0000
     45 C18        3.8963    4.2044   15.2442 C.ar      1 RES1    0.0000
     46 H19        3.7948    4.2514   14.3200 H         1 RES1    0.0000
     47 C19        3.4166    5.2016   16.0500 C.ar      1 RES1    0.0000
     48 H20        2.9902    5.9338   15.6664 H         1 RES1    0.0000
     49 C20        3.5568    5.1379   17.4286 C.ar      1 RES1    0.0000
     50 H21        3.2260    5.8254   17.9618 H         1 RES1    0.0000
     51 C21        3.5013   10.9174   18.7500 C.ar      1 RES1    0.0000
     52 H22        3.9058   11.6753   19.1077 H         1 RES1    0.0000
     53 C22        3.3969   10.7743   17.3867 C.ar      1 RES1    0.0000
     54 H23        3.7481   11.4193   16.8159 H         1 RES1    0.0000
     55 C23        2.7696    9.6721   16.8829 C.ar      1 RES1    0.0000
     56 C24        2.2527    8.6894   17.6832 C.ar      1 RES1    0.0000
     57 H24        1.8240    7.9505   17.3172 H         1 RES1    0.0000
     58 C25       -0.2570    9.3691   24.4805 C.3       1 RES1    0.0000
     59 H25       -0.7930   10.1461   24.6581 H         1 RES1    0.0000
     60 H26       -0.7368    8.5821   24.7476 H         1 RES1    0.0000
     61 H27       -0.0628    9.3211   23.5408 H         1 RES1    0.0000
     62 C26        4.4798    6.4458   24.0927 C.3       1 RES1    0.0000
     63 H28        4.8164    5.5470   24.1174 H         1 RES1    0.0000
     64 H29        4.5177    6.8270   24.9732 H         1 RES1    0.0000
     65 H30        5.0143    6.9712   23.4943 H         1 RES1    0.0000
     66 C27        0.8346    5.0317   23.7664 C.3       1 RES1    0.0000
     67 H31        0.9675    4.5487   22.9464 H         1 RES1    0.0000
     68 H32        0.3673    5.8500   23.5838 H         1 RES1    0.0000
     69 H33        0.3176    4.4973   24.3752 H         1 RES1    0.0000
     70 C28        2.3885    8.8303   19.0511 C.ar      1 RES1    0.0000
     71 H34        2.0584    8.1685   19.6162 H         1 RES1    0.0000
     72 C29        2.5389    2.9501   24.8253 C.3       1 RES1    0.0000
     73 H35        1.9540    3.0977   25.5855 H         1 RES1    0.0000
     74 H36        2.0336    2.4985   24.1317 H         1 RES1    0.0000
     75 C30        4.4111    1.7350   24.1442 C.3       1 RES1    0.0000
     76 H37        3.8460    1.4700   23.4155 H         1 RES1    0.0000
     77 H38        4.9376    0.9849   24.4289 H         1 RES1    0.0000
     78 H39        4.9931    2.4426   23.8560 H         1 RES1    0.0000
@<TRIPOS>BOND
     1    1    2 1
     2    3   16 1
     3    4   16 2
     4    5   10 2
     5    6   10 2
     6    7   29 1
     7    8   72 1
     8    9   34 1
     9   10   55 1
    10   11   12 1
    11   13   11 1
    12   14   11 2
    13   15   16 1
    14   17    3 1
    15   18   17 1
    16   19   17 1
    17   20   17 1
    18   21   20 1
    19   22    1 1
    20   23   22 1
    21   24   23 1
    22   25   23 1
    23   26   23 1
    24   27   26 1
    25   28   26 1
    26   29   26 1
    27   30   20 1
    28   31   30 1
    29   32   31 1
    30   33   31 1
    31   34   31 1
    32   35   34 1
    33   36   34 1
    34   37    9 1
    35   38   37 1
    36   39   37 1
    37   40   37 1
    38   41   40 ar
    39   42   41 1
    40   43   41 ar
    41   44   43 1
    42   45   43 ar
    43   46   45 1
    44   47   45 ar
    45   48   47 1
    46   49   40 ar
    47   50   49 1
    48   51   15 ar
    49   52   51 1
    50   53   51 ar
    51   54   53 1
    52   55   53 ar
    53   56   55 ar
    54   57   56 1
    55   58   14 1
    56   59   58 1
    57   60   58 1
    58   61   58 1
    59   62   30 1
    60   63   62 1
    61   64   62 1
    62   65   62 1
    63   66   29 1
    64   67   66 1
    65   68   66 1
    66   69   66 1
    67   70   15 ar
    68   71   70 1
    69   72    7 1
    70   73   72 1
    71   74   72 1
    72   75    8 1
    73   76   75 1
    74   77   75 1
    75   78   75 1
    76   14   22 1
    77   20   22 1
    78   29   30 1
    79   47   49 ar
    80   56   70 ar
@<TRIPOS>SUBSTRUCTURE
     1 RES1 1

@<TRIPOS>CRYSIN
   7.3020   11.1790   35.8090  90.0000  90.0000  90.0000  19 1

