# MOL2 file generated by ConQuest
# Please check atom types

@<TRIPOS>MOLECULE
BOBREQ
    30    32     1
SMALL
NO_CHARGES
****
Generated from CSD

@<TRIPOS>ATOM
      1 N1         5.7981    4.8822    3.6312 N.2       1 RES1    0.0000
      2 O1         4.4163    4.8554    3.8921 O.3       1 RES1    0.0000
      3 H1         4.0369    5.8131    3.5490 H         1 RES1    0.0000
      4 O2         4.6213    1.5747    2.6862 O.2       1 RES1    0.0000
      5 O3         3.5743    1.5047    4.6420 O.3       1 RES1    0.0000
      6 C1         6.3395    3.7758    4.0096 C.2       1 RES1    0.0000
      7 C2         7.7978    3.7162    3.7866 C.ar      1 RES1    0.0000
      8 C3         8.6025    4.8494    3.9557 C.ar      1 RES1    0.0000
      9 H2         8.2167    5.6635    4.2577 H         1 RES1    0.0000
     10 C4         9.9559    4.7898    3.6853 C.ar      1 RES1    0.0000
     11 H3        10.4930    5.5638    3.8047 H         1 RES1    0.0000
     12 C5        10.5380    3.6147    3.2437 C.ar      1 RES1    0.0000
     13 H4        11.4656    3.5864    3.0442 H         1 RES1    0.0000
     14 C6         9.7526    2.4748    3.0949 C.ar      1 RES1    0.0000
     15 H5        10.1454    1.6623    2.7986 H         1 RES1    0.0000
     16 C7         8.4012    2.5257    3.3768 C.ar      1 RES1    0.0000
     17 H6         7.8749    1.7394    3.2910 H         1 RES1    0.0000
     18 C8         5.6058    2.6324    4.6368 C.3       1 RES1    0.0000
     19 C9         4.6000    1.8773    3.8550 C.2       1 RES1    0.0000
     20 C10        3.6655    2.1099    5.9722 C.3       1 RES1    0.0000
     21 H7         3.5441    1.4255    6.6777 H         1 RES1    0.0000
     22 H8         2.9761    2.8113    6.0862 H         1 RES1    0.0000
     23 C11        5.0352    2.6980    6.0379 C.3       1 RES1    0.0000
     24 H9         5.1759    3.5298    6.5763 H         1 RES1    0.0000
     25 C12        6.1994    1.8087    5.7769 C.3       1 RES1    0.0000
     26 H10        7.0637    2.1734    6.1223 H         1 RES1    0.0000
     27 C13        6.1266    0.3003    5.8113 C.3       1 RES1    0.0000
     28 H11        6.3790   -0.0181    6.7025 H         1 RES1    0.0000
     29 H12        6.7406   -0.0714    5.1455 H         1 RES1    0.0000
     30 H13        5.2121    0.0125    5.6085 H         1 RES1    0.0000
@<TRIPOS>BOND
     1    1    2 1
     2    2    3 1
     3    4   19 2
     4    5   19 1
     5    6    1 2
     6    7    6 1
     7    8    7 ar
     8    9    8 1
     9   10    8 ar
    10   11   10 1
    11   12   10 ar
    12   13   12 1
    13   14   12 ar
    14   15   14 1
    15   16    7 ar
    16   17   16 1
    17   18    6 1
    18   19   18 1
    19   20    5 1
    20   21   20 1
    21   22   20 1
    22   23   18 1
    23   24   23 1
    24   25   18 1
    25   26   25 1
    26   27   25 1
    27   28   27 1
    28   29   27 1
    29   30   27 1
    30   14   16 ar
    31   20   23 1
    32   23   25 1
@<TRIPOS>SUBSTRUCTURE
     1 RES1 1

@<TRIPOS>CRYSIN
   9.1687   11.3315   11.5459  90.0000 102.6270  90.0000  14 1

