# MOL2 file generated by ConQuest
# Please check atom types

@<TRIPOS>MOLECULE
BOCBEA
    30    32     1
SMALL
NO_CHARGES
****
Generated from CSD

@<TRIPOS>ATOM
      1 C1         5.0941    8.5315   11.7782 C.3       1 RES1    0.0000
      2 C2         6.5167    8.1140   11.9677 C.2       1 RES1    0.0000
      3 C3         6.8866    6.6735   11.8668 C.3       1 RES1    0.0000
      4 C4         7.2835    6.3075   10.4374 C.3       1 RES1    0.0000
      5 C5         6.1199    6.3086    9.4688 C.3       1 RES1    0.0000
      6 C6         5.3744    7.6317    9.3233 C.3       1 RES1    0.0000
      7 C7         4.4806    8.0164   10.4654 C.3       1 RES1    0.0000
      8 C8         3.1154    8.5843   10.1714 C.3       1 RES1    0.0000
      9 C9         3.2317    7.2211   10.8321 C.3       1 RES1    0.0000
     10 C10        3.1744    7.2859   12.3037 C.2       1 RES1    0.0000
     11 C11        4.1524    7.9852   12.8247 C.2       1 RES1    0.0000
     12 C12        2.7400    6.0018   10.1009 C.3       1 RES1    0.0000
     13 N1         7.3536    9.0668   12.1377 N.2       1 RES1    0.0000
     14 O1         8.6853    8.6194   12.2599 O.3       1 RES1    0.0000
     15 H1         5.1570    9.5471   11.7321 H         1 RES1    0.0000
     16 H2         6.0936    6.1078   12.1199 H         1 RES1    0.0000
     17 H3         7.6256    6.5329   12.4631 H         1 RES1    0.0000
     18 H4         7.6708    5.4078   10.4731 H         1 RES1    0.0000
     19 H5         7.9127    6.9914   10.0993 H         1 RES1    0.0000
     20 H6         5.3895    5.5793    9.7770 H         1 RES1    0.0000
     21 H7         6.4771    6.0139    8.5375 H         1 RES1    0.0000
     22 H8         4.7988    7.5342    8.4867 H         1 RES1    0.0000
     23 H9         6.0441    8.3500    9.1915 H         1 RES1    0.0000
     24 H10        2.8608    8.5473    9.1702 H         1 RES1    0.0000
     25 H11        2.7665    9.2999   10.7275 H         1 RES1    0.0000
     26 H12        2.4244    6.8132   12.9023 H         1 RES1    0.0000
     27 H13        4.2930    8.1418   13.7661 H         1 RES1    0.0000
     28 H14        3.0007    6.0777    9.1294 H         1 RES1    0.0000
     29 H15        3.2770    5.0691   10.4823 H         1 RES1    0.0000
     30 H16        1.7653    5.9355   10.2153 H         1 RES1    0.0000
@<TRIPOS>BOND
     1    1    2 1
     2    2    3 1
     3    3    4 1
     4    4    5 1
     5    5    6 1
     6    6    7 1
     7    7    1 1
     8    8    7 1
     9    9    7 1
    10   10    9 1
    11   11    1 1
    12   12    9 1
    13   13    2 2
    14   14   13 1
    15   15    1 1
    16   16    3 1
    17   17    3 1
    18   18    4 1
    19   19    4 1
    20   20    5 1
    21   21    5 1
    22   22    6 1
    23   23    6 1
    24   24    8 1
    25   25    8 1
    26   26   10 1
    27   27   11 1
    28   28   12 1
    29   29   12 1
    30   30   12 1
    31    8    9 1
    32   10   11 2
@<TRIPOS>SUBSTRUCTURE
     1 RES1 1

@<TRIPOS>CRYSIN
   8.6650   10.2010   12.3740  90.0000  91.6100  90.0000 231 1

