# MOL2 file generated by ConQuest
# Please check atom types

@<TRIPOS>MOLECULE
BOCPUE
    24    24     1
SMALL
NO_CHARGES
****
Generated from CSD

@<TRIPOS>ATOM
      1 C1        -0.5468    1.1183    5.8910 C.2       1 RES1    0.0000
      2 C2        -0.4208    0.3609    7.1449 C.3       1 RES1    0.0000
      3 C3         4.3203    4.7104    5.8901 C.3       1 RES1    0.0000
      4 C4         4.6449    5.5560    7.0887 C.3       1 RES1    0.0000
      5 N1        -0.1292    2.5333    4.2038 N.2       1 RES1    0.0000
      6 O1        -1.2740    1.7734    3.9809 O.3       1 RES1    0.0000
      7 O2         3.2659    3.7826    6.3164 O.3       1 RES1    0.0000
      8 H1        -1.1086   -0.0476    7.3660 H         1 RES1    0.0000
      9 H2        -0.4637    0.8694    7.9457 H         1 RES1    0.0000
     10 H3         5.7408    3.3110    6.0016 H         1 RES1    0.0000
     11 H4         6.2177    4.6330    5.1277 H         1 RES1    0.0000
     12 H5         5.3856    6.2289    6.7507 H         1 RES1    0.0000
     13 C5         0.3106    2.1331    5.3640 C.2       1 RES1    0.0000
     14 C6         2.3282    3.4896    5.4246 C.2       1 RES1    0.0000
     15 C7         5.4701    3.9398    5.4050 C.3       1 RES1    0.0000
     16 N2        -1.5008    0.9171    5.0349 N.2       1 RES1    0.0000
     17 N3         1.4417    2.6083    5.9865 N.am      1 RES1    0.0000
     18 O3         2.2502    3.9374    4.3117 O.2       1 RES1    0.0000
     19 H6         1.5712    2.4177    6.8845 H         1 RES1    0.0000
     20 H7         0.3044   -0.0715    7.1252 H         1 RES1    0.0000
     21 H8         3.9314    5.3000    5.1812 H         1 RES1    0.0000
     22 H9         5.1773    3.6802    4.6550 H         1 RES1    0.0000
     23 H10        4.8495    5.0141    7.8208 H         1 RES1    0.0000
     24 H11        3.7324    5.9669    7.5087 H         1 RES1    0.0000
@<TRIPOS>BOND
     1    1    2 1
     2    2    8 1
     3    3    4 1
     4    4   12 1
     5    5    6 1
     6    6   16 1
     7    7    3 1
     8    9    2 1
     9   10   15 1
    10   11   15 1
    11   13    1 1
    12   14    7 1
    13   15    3 1
    14   16    1 2
    15   17   13 1
    16   18   14 2
    17   19   17 1
    18   20    2 1
    19   21    3 1
    20   22   15 1
    21   23    4 1
    22   24    4 1
    23    5   13 2
    24   14   17 1
@<TRIPOS>SUBSTRUCTURE
     1 RES1 1

@<TRIPOS>CRYSIN
   9.1400   11.9100    8.9200  90.0000  91.3000  90.0000  14 1

