# MOL2 file generated by ConQuest
# Please check atom types

@<TRIPOS>MOLECULE
BODFEF01
    17    16     1
SMALL
NO_CHARGES
****
Generated from CSD

@<TRIPOS>ATOM
      1 C1         4.5042    6.2532    8.5754 C.2       1 RES1    0.0000
      2 C2         5.8172    6.2934    9.3120 C.3       1 RES1    0.0000
      3 H1         6.2880    7.1392    9.1048 H         1 RES1    0.0000
      4 H2         6.3882    5.5419    9.0143 H         1 RES1    0.0000
      5 C3         5.5876    6.1950   10.8021 C.2       1 RES1    0.0000
      6 N1         4.1480    7.3192    7.9310 N.2       1 RES1    0.0000
      7 N2         3.7739    5.1280    8.6625 N.3       1 RES1    0.0000
      8 H3         2.9913    5.0793    8.2633 H         1 RES1    0.0000
      9 H4         4.0787    4.4394    9.1189 H         1 RES1    0.0000
     10 N3         5.0808    7.2885   11.4296 N.3       1 RES1    0.0000
     11 H5         4.9413    7.2720   12.2981 H         1 RES1    0.0000
     12 H6         4.8921    8.0133   10.9673 H         1 RES1    0.0000
     13 N4         5.9092    5.0710   11.3466 N.2       1 RES1    0.0000
     14 O1         2.8632    7.1105    7.3371 O.3       1 RES1    0.0000
     15 H7         2.6948    7.7384    6.8052 H         1 RES1    0.0000
     16 O2         5.6136    5.0821   12.7559 O.3       1 RES1    0.0000
     17 H8         5.8155    4.3389   13.0901 H         1 RES1    0.0000
@<TRIPOS>BOND
     1    1    2 1
     2    2    3 1
     3    4    2 1
     4    5    2 1
     5    6    1 2
     6    7    1 1
     7    8    7 1
     8    9    7 1
     9   10    5 1
    10   11   10 1
    11   12   10 1
    12   13    5 2
    13   14    6 1
    14   15   14 1
    15   16   13 1
    16   17   16 1
@<TRIPOS>SUBSTRUCTURE
     1 RES1 1

@<TRIPOS>CRYSIN
   8.5972    9.4798   14.2271  90.0000  96.2613  90.0000  15 1

