# MOL2 file generated by ConQuest
# Please check atom types

@<TRIPOS>MOLECULE
BODFEF
    17    16     1
SMALL
NO_CHARGES
****
Generated from CSD

@<TRIPOS>ATOM
      1 C1         2.5123    1.5641    5.5928 C.2       1 RES1    0.0000
      2 C2         1.2116    1.5956    4.8299 C.3       1 RES1    0.0000
      3 C3         1.4584    1.4737    3.3554 C.2       1 RES1    0.0000
      4 N1         2.8623    2.6142    6.2136 N.2       1 RES1    0.0000
      5 N2         3.2235    0.4208    5.5288 N.3       1 RES1    0.0000
      6 N3         1.1266    0.3646    2.8156 N.2       1 RES1    0.0000
      7 N4         1.9791    2.5495    2.7246 N.3       1 RES1    0.0000
      8 O1         4.1357    2.3771    6.8400 O.3       1 RES1    0.0000
      9 O2         1.4391    0.3646    1.4163 O.3       1 RES1    0.0000
     10 H1         4.2486    3.0464    7.3585 H         1 RES1    0.0000
     11 H2         4.1188    0.3903    5.8953 H         1 RES1    0.0000
     12 H3         2.9458   -0.2666    5.2419 H         1 RES1    0.0000
     13 H4         0.7107    2.3705    4.9010 H         1 RES1    0.0000
     14 H5         0.5080    0.7997    5.0714 H         1 RES1    0.0000
     15 H6         2.3282    3.2368    3.3525 H         1 RES1    0.0000
     16 H7         2.4573    2.5133    1.9036 H         1 RES1    0.0000
     17 H8         1.1748   -0.5236    1.2217 H         1 RES1    0.0000
@<TRIPOS>BOND
     1    1    2 1
     2    2    3 1
     3    3    6 2
     4    4    1 2
     5    5    1 1
     6    6    9 1
     7    7    3 1
     8    8    4 1
     9    9   17 1
    10   10    8 1
    11   11    5 1
    12   12    5 1
    13   13    2 1
    14   14    2 1
    15   15    7 1
    16   16    7 1
@<TRIPOS>SUBSTRUCTURE
     1 RES1 1

@<TRIPOS>CRYSIN
   8.6860    9.5200   14.3060  90.0000  96.7900  90.0000  15 1

