# MOL2 file generated by ConQuest
# Please check atom types

@<TRIPOS>MOLECULE
BOFDAB
    46    47     1
SMALL
NO_CHARGES
****
Generated from CSD

@<TRIPOS>ATOM
      1 C1         2.6729    7.0571   21.8729 C.ar      1 RES1    0.0000
      2 C2         1.5283    6.5148   22.3655 C.ar      1 RES1    0.0000
      3 C3         1.2236    6.4648   23.7183 C.ar      1 RES1    0.0000
      4 C4         2.1774    6.9373   24.6592 C.ar      1 RES1    0.0000
      5 C5         3.3724    7.4377   24.1665 C.ar      1 RES1    0.0000
      6 C6         3.5889    7.5370   22.8081 C.ar      1 RES1    0.0000
      7 N1         0.5330    5.9052   21.4860 N.pl3     1 RES1    0.0000
      8 O1         0.8930    5.3195   20.4895 O.2       1 RES1    0.0000
      9 O2        -0.6442    5.9774   21.7921 O.2       1 RES1    0.0000
     10 C7         1.8795    6.7822   26.1567 C.3       1 RES1    0.0000
     11 O3         4.2222    7.8611   25.1351 O.3       1 RES1    0.0000
     12 C8         5.4849    8.3828   24.7427 C.3       1 RES1    0.0000
     13 C9         6.3141    8.6199   25.9563 C.3       1 RES1    0.0000
     14 C10        3.0933    7.1760   20.4561 C.ar      1 RES1    0.0000
     15 C11        2.2188    7.7036   19.4957 C.ar      1 RES1    0.0000
     16 C12        2.6509    7.8447   18.1875 C.ar      1 RES1    0.0000
     17 C13        3.9261    7.4730   17.7672 C.ar      1 RES1    0.0000
     18 C14        4.7940    6.9685   18.7386 C.ar      1 RES1    0.0000
     19 C15        4.3373    6.7946   20.0246 C.ar      1 RES1    0.0000
     20 N2         1.6943    8.3771   17.1993 N.pl3     1 RES1    0.0000
     21 O4         1.5212    7.6830   16.1945 O.2       1 RES1    0.0000
     22 O5         1.0367    9.3148   17.4582 O.2       1 RES1    0.0000
     23 O6         4.3564    7.7364   16.4979 O.3       1 RES1    0.0000
     24 C16        4.4341    6.5771   15.6461 C.3       1 RES1    0.0000
     25 C17        5.3166    6.9266   14.5133 C.3       1 RES1    0.0000
     26 C18        6.2305    6.6075   18.3935 C.3       1 RES1    0.0000
     27 H1         0.3508    6.0628   24.0496 H         1 RES1    0.0000
     28 H2         4.4771    7.9415   22.4630 H         1 RES1    0.0000
     29 H3         1.0167    6.3745   26.5269 H         1 RES1    0.0000
     30 H4         1.9929    7.7446   26.5547 H         1 RES1    0.0000
     31 H5         2.6875    6.1776   26.4991 H         1 RES1    0.0000
     32 H6         5.3894    9.2705   24.1888 H         1 RES1    0.0000
     33 H7         6.0058    7.6707   24.1052 H         1 RES1    0.0000
     34 H8         7.2141    8.9834   26.3042 H         1 RES1    0.0000
     35 H9         6.3213    7.6543   26.4156 H         1 RES1    0.0000
     36 H10        5.6411    9.2213   26.5269 H         1 RES1    0.0000
     37 H11        1.3106    8.0153   19.7908 H         1 RES1    0.0000
     38 H12        4.9750    6.3909   20.7372 H         1 RES1    0.0000
     39 H13        3.4968    6.2679   15.3093 H         1 RES1    0.0000
     40 H14        4.8700    5.7428   16.2001 H         1 RES1    0.0000
     41 H15        5.3890    6.0792   13.9176 H         1 RES1    0.0000
     42 H16        6.2476    7.1949   14.9196 H         1 RES1    0.0000
     43 H17        4.8743    7.7200   14.0289 H         1 RES1    0.0000
     44 H18        6.8496    6.2350   19.0949 H         1 RES1    0.0000
     45 H19        6.6246    7.4574   17.9537 H         1 RES1    0.0000
     46 H20        6.0883    5.8577   17.6475 H         1 RES1    0.0000
@<TRIPOS>BOND
     1    1    2 ar
     2    2    3 ar
     3    3    4 ar
     4    4    5 ar
     5    5    6 ar
     6    6    1 ar
     7    7    2 1
     8    8    7 2
     9    9    7 2
    10   10    4 1
    11   11    5 1
    12   12   11 1
    13   13   12 1
    14   14    1 1
    15   15   14 ar
    16   16   15 ar
    17   17   16 ar
    18   18   17 ar
    19   19   14 ar
    20   20   16 1
    21   21   20 2
    22   22   20 2
    23   23   17 1
    24   24   23 1
    25   25   24 1
    26   26   18 1
    27   27    3 1
    28   28    6 1
    29   29   10 1
    30   30   10 1
    31   31   10 1
    32   32   12 1
    33   33   12 1
    34   34   13 1
    35   35   13 1
    36   36   13 1
    37   37   15 1
    38   38   19 1
    39   39   24 1
    40   40   24 1
    41   41   25 1
    42   42   25 1
    43   43   25 1
    44   44   26 1
    45   45   26 1
    46   46   26 1
    47   18   19 ar
@<TRIPOS>SUBSTRUCTURE
     1 RES1 1

@<TRIPOS>CRYSIN
   7.8780    8.2040   27.8430  90.0000  91.3600  90.0000  14 1

