# MOL2 file generated by ConQuest
# Please check atom types

@<TRIPOS>MOLECULE
BOFHOT
    51    54     1
SMALL
NO_CHARGES
****
Generated from CSD

@<TRIPOS>ATOM
      1 N1         1.8495    0.3281   -0.0152 N.2       1 RES1    0.0000
      2 N2         1.5013    1.6218    0.1656 N.pl3     1 RES1    0.0000
      3 N3         2.5508   -1.7160    0.3262 N.2       1 RES1    0.0000
      4 N4         3.0661   -2.5717    1.1122 N.2       1 RES1    0.0000
      5 N5         3.9853   -7.6775   -1.0953 N.pl3     1 RES1    0.0000
      6 O1         4.6812   -8.4280   -0.4513 O.2       1 RES1    0.0000
      7 O2         3.4930   -7.9585   -2.1568 O.2       1 RES1    0.0000
      8 C1         2.3169   -0.4428    0.9178 C.2       1 RES1    0.0000
      9 C2         2.6816   -0.1853    2.3225 C.ar      1 RES1    0.0000
     10 C3         2.0610   -0.8510    3.3688 C.ar      1 RES1    0.0000
     11 C4         2.4971   -0.6594    4.6669 C.ar      1 RES1    0.0000
     12 C5         3.5594    0.1554    4.9222 C.ar      1 RES1    0.0000
     13 C6         4.1816    0.7944    3.9063 C.ar      1 RES1    0.0000
     14 C7         3.7494    0.6406    2.5980 C.ar      1 RES1    0.0000
     15 C8         1.1644    2.2059    1.4317 C.ar      1 RES1    0.0000
     16 C9         0.1692    1.6438    2.2058 C.ar      1 RES1    0.0000
     17 C10       -0.1479    2.2216    3.4127 C.ar      1 RES1    0.0000
     18 C11        0.4732    3.3913    3.8049 C.ar      1 RES1    0.0000
     19 C12        1.4494    3.9251    3.0256 C.ar      1 RES1    0.0000
     20 C13        1.7992    3.3520    1.8424 C.ar      1 RES1    0.0000
     21 C14        1.2212    2.3017   -1.0632 C.ar      1 RES1    0.0000
     22 C15        0.4702    3.4776   -1.0531 C.ar      1 RES1    0.0000
     23 C16        0.2238    4.1166   -2.2566 C.ar      1 RES1    0.0000
     24 C17        0.6820    3.6111   -3.4448 C.ar      1 RES1    0.0000
     25 C18        1.4187    2.4524   -3.4296 C.ar      1 RES1    0.0000
     26 C19        1.7126    1.7993   -2.2599 C.ar      1 RES1    0.0000
     27 C20        3.2721   -3.8387    0.4648 C.ar      1 RES1    0.0000
     28 C21        2.6675   -4.2093   -0.7319 C.ar      1 RES1    0.0000
     29 C22        2.8985   -5.4731   -1.2441 C.ar      1 RES1    0.0000
     30 C23        3.7446   -6.3131   -0.5544 C.ar      1 RES1    0.0000
     31 C24        4.3438   -5.9646    0.6305 C.ar      1 RES1    0.0000
     32 C25        4.1034   -4.7101    1.1443 C.ar      1 RES1    0.0000
     33 H1         1.2589   -1.5072    3.1440 H         1 RES1    0.0000
     34 H2         2.0064   -1.0833    5.5104 H         1 RES1    0.0000
     35 H3         3.9664    0.2355    5.8991 H         1 RES1    0.0000
     36 H4         4.9509    1.4758    4.1581 H         1 RES1    0.0000
     37 H5         4.2557    1.1461    1.7917 H         1 RES1    0.0000
     38 H6        -0.3595    0.8007    1.8762 H         1 RES1    0.0000
     39 H7        -0.8514    1.8212    4.0736 H         1 RES1    0.0000
     40 H8         0.1652    3.8309    4.6990 H         1 RES1    0.0000
     41 H9         1.8510    4.8514    3.3637 H         1 RES1    0.0000
     42 H10        2.5913    3.7367    1.2508 H         1 RES1    0.0000
     43 H11        0.0662    3.8623   -0.1521 H         1 RES1    0.0000
     44 H12       -0.2919    5.0555   -2.2819 H         1 RES1    0.0000
     45 H13        0.4863    4.0821   -4.3779 H         1 RES1    0.0000
     46 H14        1.8343    2.0724   -4.3103 H         1 RES1    0.0000
     47 H15        2.2526    0.8949   -2.2650 H         1 RES1    0.0000
     48 H16        2.0186   -3.5326   -1.2170 H         1 RES1    0.0000
     49 H17        2.4734   -5.8091   -2.1467 H         1 RES1    0.0000
     50 H18        4.9926   -6.6570    1.0987 H         1 RES1    0.0000
     51 H19        4.6028   -4.3804    2.0284 H         1 RES1    0.0000
@<TRIPOS>BOND
     1    1    2 1
     2    2   15 1
     3    3    4 2
     4    4   27 1
     5    5    6 2
     6    7    5 2
     7    8    1 2
     8    9    8 1
     9   10    9 ar
    10   11   10 ar
    11   12   11 ar
    12   13   12 ar
    13   14    9 ar
    14   15   16 ar
    15   16   17 ar
    16   17   18 ar
    17   18   19 ar
    18   19   20 ar
    19   20   15 ar
    20   21    2 1
    21   22   21 ar
    22   23   22 ar
    23   24   23 ar
    24   25   24 ar
    25   26   21 ar
    26   27   28 ar
    27   28   29 ar
    28   29   30 ar
    29   30    5 1
    30   31   30 ar
    31   32   27 ar
    32   33   10 1
    33   34   11 1
    34   35   12 1
    35   36   13 1
    36   37   14 1
    37   38   16 1
    38   39   17 1
    39   40   18 1
    40   41   19 1
    41   42   20 1
    42   43   22 1
    43   44   23 1
    44   45   24 1
    45   46   25 1
    46   47   26 1
    47   48   28 1
    48   49   29 1
    49   50   31 1
    50   51   32 1
    51    3    8 1
    52   13   14 ar
    53   25   26 ar
    54   31   32 ar
@<TRIPOS>SUBSTRUCTURE
     1 RES1 1

@<TRIPOS>CRYSIN
   8.1260   16.4230   16.9030  90.0000  90.0000 107.0600  14 3

