# MOL2 file generated by ConQuest
# Please check atom types

@<TRIPOS>MOLECULE
BOGFUA
    43    45     1
SMALL
NO_CHARGES
****
Generated from CSD

@<TRIPOS>ATOM
      1 O1         2.6324    5.1510   12.0682 O.3       1 RES1    0.0000
      2 O2         5.0615    7.2620   12.3761 O.3       1 RES1    0.0000
      3 O3         4.4725    5.6181   10.8366 O.3       1 RES1    0.0000
      4 O4         3.8081    9.0303   10.8502 O.3       1 RES1    0.0000
      5 O5         4.0851    6.6203   14.9894 O.3       1 RES1    0.0000
      6 H1         4.2606    7.3864   15.2864 H         1 RES1    0.0000
      7 O6         2.3081   10.5768   11.4888 O.3       1 RES1    0.0000
      8 O7         1.0776    6.4464   16.3225 O.2       1 RES1    0.0000
      9 N1         1.4516    5.9718   15.2642 N.pl3     1 RES1    0.0000
     10 O8         1.5481    4.7781   15.0436 O.2       1 RES1    0.0000
     11 C1         3.3028    6.7370   13.8144 C.3       1 RES1    0.0000
     12 C2         3.8566    7.8576   12.9022 C.3       1 RES1    0.0000
     13 H2         4.1035    8.6447   13.4678 H         1 RES1    0.0000
     14 C3         3.6360    5.4593   13.0201 C.3       1 RES1    0.0000
     15 H3         3.8368    4.6848   13.6198 H         1 RES1    0.0000
     16 C4         1.8250    6.9176   14.1603 C.3       1 RES1    0.0000
     17 H4         1.6601    7.8501   14.4476 H         1 RES1    0.0000
     18 H5         1.2692    6.7362   13.3614 H         1 RES1    0.0000
     19 C5         3.1369   10.1946   10.4006 C.3       1 RES1    0.0000
     20 C6         4.8601    5.8794   12.1821 C.3       1 RES1    0.0000
     21 H6         5.6729    5.3535   12.4355 H         1 RES1    0.0000
     22 C7         2.9555    8.3297   11.7634 C.3       1 RES1    0.0000
     23 H7         2.5224    7.5493   11.3121 H         1 RES1    0.0000
     24 C8         2.4119    5.1233    9.6848 C.3       1 RES1    0.0000
     25 H8         2.8571    4.8713    8.8496 H         1 RES1    0.0000
     26 H9         2.2319    6.0868    9.6815 H         1 RES1    0.0000
     27 H10        1.5665    4.6336    9.7644 H         1 RES1    0.0000
     28 C9         1.8978    9.3856   12.1576 C.3       1 RES1    0.0000
     29 H11        0.9962    9.1076   11.8593 H         1 RES1    0.0000
     30 H12        1.8842    9.5200   13.1389 H         1 RES1    0.0000
     31 C10        3.7252    3.3273   10.8809 C.3       1 RES1    0.0000
     32 H13        4.1767    3.1014   10.0407 H         1 RES1    0.0000
     33 H14        2.9342    2.7586   10.9887 H         1 RES1    0.0000
     34 H15        4.3378    3.1803   11.6313 H         1 RES1    0.0000
     35 C11        3.3023    4.7823   10.8515 C.3       1 RES1    0.0000
     36 C12        4.1636   11.2706   10.1720 C.3       1 RES1    0.0000
     37 H16        3.7189   12.0846    9.8556 H         1 RES1    0.0000
     38 H17        4.8082   10.9691    9.4990 H         1 RES1    0.0000
     39 H18        4.6317   11.4597   11.0122 H         1 RES1    0.0000
     40 C13        2.3153    9.8888    9.1715 C.3       1 RES1    0.0000
     41 H19        1.8546   10.7019    8.8744 H         1 RES1    0.0000
     42 H20        1.6538    9.1983    9.3843 H         1 RES1    0.0000
     43 H21        2.9041    9.5679    8.4571 H         1 RES1    0.0000
@<TRIPOS>BOND
     1    1   14 1
     2    2   12 1
     3    3   20 1
     4    4   19 1
     5    5    6 1
     6    7   19 1
     7    8    9 2
     8    9   10 2
     9   11    5 1
    10   12   11 1
    11   13   12 1
    12   14   11 1
    13   15   14 1
    14   16    9 1
    15   17   16 1
    16   18   16 1
    17   19   36 1
    18   20    2 1
    19   21   20 1
    20   22    4 1
    21   23   22 1
    22   24   25 1
    23   26   24 1
    24   27   24 1
    25   28    7 1
    26   29   28 1
    27   30   28 1
    28   31   32 1
    29   33   31 1
    30   34   31 1
    31   35    1 1
    32   36   37 1
    33   38   36 1
    34   39   36 1
    35   40   19 1
    36   41   40 1
    37   42   40 1
    38   43   40 1
    39    3   35 1
    40   11   16 1
    41   12   22 1
    42   14   20 1
    43   22   28 1
    44   24   35 1
    45   31   35 1
@<TRIPOS>SUBSTRUCTURE
     1 RES1 1

@<TRIPOS>CRYSIN
   9.6998    9.6998   13.8188  90.0000  90.0000 120.0000 145 1

