# MOL2 file generated by ConQuest
# Please check atom types

@<TRIPOS>MOLECULE
BOGGIP
    68    72     1
SMALL
NO_CHARGES
****
Generated from CSD

@<TRIPOS>ATOM
      1 N1         4.1680    7.5297    7.1122 N.pl3     1 RES1    0.0000
      2 H1         4.5789    6.7605    7.0600 H         1 RES1    0.0000
      3 N2         4.0026    9.0627    3.8026 N.3       1 RES1    0.0000
      4 N3         3.6856    7.5048    0.3726 N.pl3     1 RES1    0.0000
      5 O1         3.2307    8.2927   -0.4277 O.2       1 RES1    0.0000
      6 O2         4.4341    6.6061    0.0899 O.2       1 RES1    0.0000
      7 C1         3.7600    8.2093    8.2488 C.ar      1 RES1    0.0000
      8 C2         3.8510    7.8437    9.5854 C.ar      1 RES1    0.0000
      9 H2         4.2511    7.0479    9.8507 H         1 RES1    0.0000
     10 C3         3.3148    8.7256   10.4929 C.ar      1 RES1    0.0000
     11 H3         3.3833    8.5295   11.3990 H         1 RES1    0.0000
     12 C4         2.6838    9.8843   10.1146 C.ar      1 RES1    0.0000
     13 H4         2.3149   10.4361   10.7655 H         1 RES1    0.0000
     14 C5         2.5898   10.2392    8.7982 C.ar      1 RES1    0.0000
     15 H5         2.1730   11.0332    8.5503 H         1 RES1    0.0000
     16 C6         3.1289    9.3928    7.8371 C.ar      1 RES1    0.0000
     17 C7         3.1641    9.3884    6.3830 C.2       1 RES1    0.0000
     18 C8         2.6945   10.4157    5.4059 C.3       1 RES1    0.0000
     19 H6         3.2268   11.2213    5.4973 H         1 RES1    0.0000
     20 H7         1.7689   10.6420    5.5900 H         1 RES1    0.0000
     21 C9         2.8178    9.8781    3.9954 C.3       1 RES1    0.0000
     22 H8         2.0321    9.3484    3.7895 H         1 RES1    0.0000
     23 H9         2.8442   10.6242    3.3749 H         1 RES1    0.0000
     24 C10        4.3177    8.7904    2.3891 C.3       1 RES1    0.0000
     25 H10        4.1592    9.6235    1.8977 H         1 RES1    0.0000
     26 C11        3.3363    7.7524    1.8310 C.3       1 RES1    0.0000
     27 H11        2.4401    8.1480    1.8571 H         1 RES1    0.0000
     28 C12        3.2835    6.4420    2.6051 C.3       1 RES1    0.0000
     29 H12        4.1699    6.0259    2.5747 H         1 RES1    0.0000
     30 C13        2.9509    6.8039    4.0954 C.3       1 RES1    0.0000
     31 H13        2.0859    7.2644    4.0867 H         1 RES1    0.0000
     32 C14        3.9762    7.8118    4.5970 C.3       1 RES1    0.0000
     33 H14        4.8617    7.3966    4.5303 H         1 RES1    0.0000
     34 C15        3.7903    8.2607    6.0076 C.2       1 RES1    0.0000
     35 C16        5.7657    8.4399    2.1963 C.3       1 RES1    0.0000
     36 H15        5.9223    7.5492    2.5471 H         1 RES1    0.0000
     37 H16        5.9604    8.4222    1.2467 H         1 RES1    0.0000
     38 C17        6.7030    9.3946    2.8646 C.3       1 RES1    0.0000
     39 H17        6.4281   10.2951    2.6327 H         1 RES1    0.0000
     40 H18        6.5934    9.2987    3.8229 H         1 RES1    0.0000
     41 C18        8.1129    9.2650    2.5602 C.3       1 RES1    0.0000
     42 H19        8.2626    9.4966    1.6295 H         1 RES1    0.0000
     43 H20        8.3849    8.3423    2.6848 H         1 RES1    0.0000
     44 C19        8.9631   10.1673    3.4445 C.3       1 RES1    0.0000
     45 H21        8.7596   11.0829    3.2575 H         1 RES1    0.0000
     46 H22        9.8926    9.9996    3.2676 H         1 RES1    0.0000
     47 H23        8.7743    9.9757    4.3665 H         1 RES1    0.0000
     48 C20        2.2797    5.4785    2.0165 C.ar      1 RES1    0.0000
     49 C21        2.7082    4.2426    1.5541 C.ar      1 RES1    0.0000
     50 H24        3.6074    4.0093    1.6019 H         1 RES1    0.0000
     51 C22        1.7856    3.3607    1.0235 C.ar      1 RES1    0.0000
     52 H25        2.0693    2.5294    0.7191 H         1 RES1    0.0000
     53 C23        0.4628    3.6952    0.9380 C.ar      1 RES1    0.0000
     54 H26       -0.1477    3.1025    0.5625 H         1 RES1    0.0000
     55 C24        0.0499    4.8876    1.4033 C.ar      1 RES1    0.0000
     56 H27       -0.8532    5.1067    1.3627 H         1 RES1    0.0000
     57 C25        0.9373    5.7881    1.9382 C.ar      1 RES1    0.0000
     58 H28        0.6330    6.6096    2.2485 H         1 RES1    0.0000
     59 C26        2.7865    5.5894    4.9841 C.3       1 RES1    0.0000
     60 H29        3.5937    5.4572    5.5060 H         1 RES1    0.0000
     61 H30        2.6515    4.8015    4.4346 H         1 RES1    0.0000
     62 C27        1.5635    5.7703    5.9481 C.3       1 RES1    0.0000
     63 H31        1.7024    6.5830    6.4599 H         1 RES1    0.0000
     64 H32        0.7710    5.9052    5.4045 H         1 RES1    0.0000
     65 C28        1.2915    4.6942    6.8803 C.3       1 RES1    0.0000
     66 H33        0.7876    4.0075    6.4381 H         1 RES1    0.0000
     67 H34        0.7866    5.0340    7.6225 H         1 RES1    0.0000
     68 H35        2.1212    4.3286    7.1978 H         1 RES1    0.0000
@<TRIPOS>BOND
     1    1    2 1
     2    3   21 1
     3    4    5 2
     4    6    4 2
     5    7    1 1
     6    8    7 ar
     7    9    8 1
     8   10    8 ar
     9   11   10 1
    10   12   10 ar
    11   13   12 1
    12   14   12 ar
    13   15   14 1
    14   16    7 ar
    15   17   16 1
    16   18   17 1
    17   19   18 1
    18   20   18 1
    19   21   18 1
    20   22   21 1
    21   23   21 1
    22   24    3 1
    23   25   24 1
    24   26    4 1
    25   27   26 1
    26   28   26 1
    27   29   28 1
    28   30   28 1
    29   31   30 1
    30   32    3 1
    31   33   32 1
    32   34    1 1
    33   35   24 1
    34   36   35 1
    35   37   35 1
    36   38   35 1
    37   39   38 1
    38   40   38 1
    39   41   38 1
    40   42   41 1
    41   43   41 1
    42   44   41 1
    43   45   44 1
    44   46   44 1
    45   47   44 1
    46   48   28 1
    47   49   48 ar
    48   50   49 1
    49   51   49 ar
    50   52   51 1
    51   53   51 ar
    52   54   53 1
    53   55   53 ar
    54   56   55 1
    55   57   48 ar
    56   58   57 1
    57   59   30 1
    58   60   59 1
    59   61   59 1
    60   62   59 1
    61   63   62 1
    62   64   62 1
    63   65   62 1
    64   66   65 1
    65   67   65 1
    66   68   65 1
    67   14   16 ar
    68   17   34 2
    69   24   26 1
    70   30   32 1
    71   32   34 1
    72   55   57 ar
@<TRIPOS>SUBSTRUCTURE
     1 RES1 1

@<TRIPOS>CRYSIN
   9.7840    8.8720   14.4970  90.0000  90.0000  90.0000   4 1

