# MOL2 file generated by ConQuest
# Please check atom types

@<TRIPOS>MOLECULE
BOHLIT01
    44    44     2
SMALL
NO_CHARGES
****
Generated from CSD

@<TRIPOS>ATOM
      1 C1         0.8124    6.9705    4.5513 C.ar      1 RES1    0.0000
      2 C2         0.6454    8.2736    4.9468 C.ar      1 RES1    0.0000
      3 C3         0.9191    9.2952    4.0652 C.ar      1 RES1    0.0000
      4 C4         1.2669    6.6878    3.2625 C.ar      1 RES1    0.0000
      5 C5         1.5355    7.7070    2.3892 C.ar      1 RES1    0.0000
      6 C6         1.3503    9.0078    2.8027 C.ar      1 RES1    0.0000
      7 N1         0.4915    5.9187    5.4886 N.pl3     1 RES1    0.0000
      8 O1         0.9853    5.9932    6.6365 O.2       1 RES1    0.0000
      9 N2        -0.2762    5.0147    5.0384 N.2       1 RES1    0.0000
     10 N3         1.5573    5.3149    2.8837 N.pl3     1 RES1    0.0000
     11 O2         2.2656    4.6482    3.6601 O.2       1 RES1    0.0000
     12 N4         1.0839    4.9460    1.7591 N.2       1 RES1    0.0000
     13 C7        -0.5409    3.9059    5.8979 C.ar      1 RES1    0.0000
     14 C8        -1.0237    3.9466    7.2025 C.ar      1 RES1    0.0000
     15 N5        -1.3545    5.2125    7.8558 N.pl3     1 RES1    0.0000
     16 O3        -1.7986    6.1165    7.1856 O.2       1 RES1    0.0000
     17 O4        -1.2162    5.2788    9.0699 O.2       1 RES1    0.0000
     18 C9        -1.2805    2.7866    7.9168 C.ar      1 RES1    0.0000
     19 C10       -1.0629    1.5800    7.3382 C.ar      1 RES1    0.0000
     20 C11       -0.5823    1.5091    6.0536 C.ar      1 RES1    0.0000
     21 C12       -0.3439    2.6551    5.3393 C.ar      1 RES1    0.0000
     22 C13        1.3696    3.5894    1.4098 C.ar      1 RES1    0.0000
     23 C14        2.6122    3.0437    1.1331 C.ar      1 RES1    0.0000
     24 N6         3.8100    3.8942    0.9500 N.pl3     1 RES1    0.0000
     25 N7         3.8618    3.7814    1.6307 Du        2 SUP2    0.0000
     26 O5         3.7711    5.0182    1.2698 O.2       1 RES1    0.0000
     27 O6         4.7926    3.4044    0.4377 O.2       1 RES1    0.0000
     28 O7         4.7701    3.2229    2.0831 Du        2 SUP2    0.0000
     29 C15        2.7471    1.7162    0.7712 C.ar      1 RES1    0.0000
     30 C16        1.6510    0.9296    0.6407 C.ar      1 RES1    0.0000
     31 C17        0.4076    1.4567    0.8816 C.ar      1 RES1    0.0000
     32 C18        0.2793    2.7668    1.2509 C.ar      1 RES1    0.0000
     33 H1         0.2419    8.4354    5.7969 H         1 RES1    0.0000
     34 H2         0.8329   10.2039    4.3240 H         1 RES1    0.0000
     35 H3         1.8408    7.5162    1.5991 H         1 RES1    0.0000
     36 H4         1.6080    9.7501    2.2409 H         1 RES1    0.0000
     37 H5        -1.5758    3.1065    8.8374 H         1 RES1    0.0000
     38 H6        -1.2267    0.8610    7.7853 H         1 RES1    0.0000
     39 H7        -0.4094    0.6865    5.7127 H         1 RES1    0.0000
     40 H8        -0.0496    2.6179    4.4713 H         1 RES1    0.0000
     41 H9         3.6325    1.3962    0.6628 H         1 RES1    0.0000
     42 H10        1.6303    0.0233    0.4629 H         1 RES1    0.0000
     43 H11       -0.2889    0.8726    0.8522 H         1 RES1    0.0000
     44 H12       -0.6084    3.2462    1.3887 H         1 RES1    0.0000
@<TRIPOS>BOND
     1    1    2 ar
     2    2    3 ar
     3    3    6 ar
     4    4    1 ar
     5    5    4 ar
     6    6    5 ar
     7    7    1 1
     8    8    7 2
     9    9    7 2
    10   10    4 1
    11   11   10 2
    12   12   10 2
    13   13    9 1
    14   14   13 ar
    15   15   14 1
    16   16   15 2
    17   17   15 2
    18   18   14 ar
    19   19   18 ar
    20   20   19 ar
    21   21   13 ar
    22   22   12 1
    23   23   22 ar
    24   24   23 1
    25   26   24 2
    26   27   24 2
    27   29   23 ar
    28   30   29 ar
    29   31   30 ar
    30   32   22 ar
    31   33    2 1
    32   34    3 1
    33   35    5 1
    34   36    6 1
    35   37   18 1
    36   38   19 1
    37   39   20 1
    38   40   21 1
    39   41   29 1
    40   42   30 1
    41   43   31 1
    42   44   32 1
    43   20   21 ar
    44   31   32 ar
@<TRIPOS>SUBSTRUCTURE
     1 RES1 1
     2 SUP2 25

@<TRIPOS>CRYSIN
   7.6380   11.6350   11.1090  90.0000 108.7300  90.0000   4 1

