# MOL2 file generated by ConQuest
# Please check atom types

@<TRIPOS>MOLECULE
BOHLIT
    42    44     1
SMALL
USER_CHARGES
****
Generated from CSD

@<TRIPOS>ATOM
      1 C1         0.5713    9.6592    5.9788 C.ar      1 RES1    0.0000
      2 C2         1.0002    9.3906    7.2305 C.ar      1 RES1    0.0000
      3 C3         1.2983   10.3855    8.1522 C.ar      1 RES1    0.0000
      4 C4         1.1044   11.7307    7.6940 C.ar      1 RES1    0.0000
      5 C5         0.6658   11.9958    6.4518 C.ar      1 RES1    0.0000
      6 C6         0.4012   10.9974    5.5574 C.ar      1 RES1    0.0000
      7 N1         0.2503    8.6223    5.0372 N.pl3     1 RES1    1.0000
      8 N2         1.2934    7.9906    7.6425 N.pl3     1 RES1    1.0000
      9 O1         0.7164    8.6935    3.8685 O.2       1 RES1   -1.0000
     10 O2         2.0045    7.3402    6.8553 O.2       1 RES1   -1.0000
     11 C7        -0.7959    6.5917    4.6063 C.ar      1 RES1    0.0000
     12 C8        -1.2609    6.6536    3.3315 C.ar      1 RES1    0.0000
     13 C9        -1.5391    5.4648    2.5769 C.ar      1 RES1    0.0000
     14 C10       -1.2949    4.2481    3.1770 C.ar      1 RES1    0.0000
     15 C11       -0.8544    4.1874    4.4381 C.ar      1 RES1    0.0000
     16 C12       -0.5591    5.3504    5.1959 C.ar      1 RES1    0.0000
     17 N3        -0.5381    7.7033    5.4786 N.2       1 RES1    0.0000
     18 N4        -1.5884    7.8878    2.6473 N.pl3     1 RES1    0.0000
     19 O3        -2.0556    8.7951    3.3399 O.2       1 RES1    0.0000
     20 O4        -1.4750    7.9672    1.4493 O.2       1 RES1    0.0000
     21 C13        1.1217    6.2612    9.1159 C.ar      1 RES1    0.0000
     22 C14        2.3372    5.7357    9.3671 C.ar      1 RES1    0.0000
     23 C15        2.4984    4.3894    9.7423 C.ar      1 RES1    0.0000
     24 C16        1.3932    3.6012    9.8621 C.ar      1 RES1    0.0000
     25 C17        0.1602    4.1115    9.6582 C.ar      1 RES1    0.0000
     26 C18        0.0268    5.4625    9.2504 C.ar      1 RES1    0.0000
     27 N5         0.8517    7.6484    8.7617 N.2       1 RES1    0.0000
     28 N6         3.5419    6.5706    9.3860 N.pl3     1 RES1    0.0000
     29 O5         3.5032    7.7103    9.2536 O.2       1 RES1    0.0000
     30 O6         4.5165    6.0825    9.9787 O.2       1 RES1    0.0000
     31 H1         1.6137   10.2291    9.2483 H         1 RES1    0.0000
     32 H2         1.4013   12.4710    8.4181 H         1 RES1    0.0000
     33 H3         0.5950   12.8681    5.9904 H         1 RES1    0.0000
     34 H4         0.0646   11.1048    4.6031 H         1 RES1    0.0000
     35 H5        -1.8464    5.5699    1.5449 H         1 RES1    0.0000
     36 H6        -1.2653    3.5498    2.4067 H         1 RES1    0.0000
     37 H7        -0.5666    3.4330    5.0340 H         1 RES1    0.0000
     38 H8        -0.1775    5.3364    6.1165 H         1 RES1    0.0000
     39 H9         3.3933    4.0636   10.0050 H         1 RES1    0.0000
     40 H10        1.3980    2.6974   10.2993 H         1 RES1    0.0000
     41 H11       -0.5533    3.5965    9.7107 H         1 RES1    0.0000
     42 H12       -0.9181    5.7568    9.0381 H         1 RES1    0.0000
@<TRIPOS>BOND
     1    1    2 ar
     2    2    3 ar
     3    3    4 ar
     4    4    5 ar
     5    5    6 ar
     6    6    1 ar
     7    7    1 1
     8    8    2 1
     9    9    7 1
    10   10    8 1
    11   11   12 ar
    12   12   13 ar
    13   13   14 ar
    14   14   15 ar
    15   15   16 ar
    16   16   11 ar
    17   17    7 2
    18   18   12 1
    19   19   18 2
    20   20   18 2
    21   21   22 ar
    22   22   23 ar
    23   23   24 ar
    24   24   25 ar
    25   25   26 ar
    26   26   21 ar
    27   27    8 2
    28   28   22 1
    29   29   28 2
    30   30   28 2
    31   31    3 1
    32   32    4 1
    33   33    5 1
    34   34    6 1
    35   35   13 1
    36   36   14 1
    37   37   15 1
    38   38   16 1
    39   39   23 1
    40   40   24 1
    41   41   25 1
    42   42   26 1
    43   11   17 1
    44   21   27 1
@<TRIPOS>SUBSTRUCTURE
     1 RES1 1

@<TRIPOS>CRYSIN
   7.6180   11.6770   11.2670  90.0000 111.1300  90.0000   4 1

