# MOL2 file generated by ConQuest
# Please check atom types

@<TRIPOS>MOLECULE
BOJHEN
    42    46     1
SMALL
NO_CHARGES
****
Generated from CSD

@<TRIPOS>ATOM
      1 O1         6.2983    0.3843    9.5406 O.3       1 RES1    0.0000
      2 O2         7.4341   -1.7446    5.2620 O.2       1 RES1    0.0000
      3 O3         8.9182   -2.4345    6.8285 O.3       1 RES1    0.0000
      4 O4         6.7968    1.3156    5.3909 O.3       1 RES1    0.0000
      5 O5         4.6043    1.8915    5.7204 O.3       1 RES1    0.0000
      6 O6         4.2348    0.6703    8.4408 O.3       1 RES1    0.0000
      7 O7         3.3379    4.1279    7.7505 O.3       1 RES1    0.0000
      8 O8         2.1974    4.4952   10.5343 O.2       1 RES1    0.0000
      9 O9         3.5646    2.9041   10.9782 O.2       1 RES1    0.0000
     10 O10        0.2950    2.3899    7.6144 O.3       1 RES1    0.0000
     11 O11       -1.1405    4.1148    9.8472 O.3       1 RES1    0.0000
     12 O12       -2.4178    2.5053    8.9044 O.3       1 RES1    0.0000
     13 O13        0.2296    0.2138    8.4397 O.3       1 RES1    0.0000
     14 N1         7.3982   -0.9392    7.4148 N.am      1 RES1    0.0000
     15 N2         2.6702    3.4275   10.3223 N.pl3     1 RES1    0.0000
     16 C1         5.4172   -0.1036    8.5634 C.3       1 RES1    0.0000
     17 C2         6.1978   -0.1233    7.2578 C.3       1 RES1    0.0000
     18 C3         6.5237    1.3012    6.8067 C.3       1 RES1    0.0000
     19 C4         5.3307    2.2391    6.9065 C.3       1 RES1    0.0000
     20 C5         4.4891    2.0686    8.1528 C.3       1 RES1    0.0000
     21 C6         3.1337    2.7441    7.9699 C.3       1 RES1    0.0000
     22 C7         2.1685    2.5998    9.1476 C.3       1 RES1    0.0000
     23 C8         0.7579    3.1179    8.7724 C.3       1 RES1    0.0000
     24 C9        -0.3033    2.9526    9.8202 C.3       1 RES1    0.0000
     25 C10       -1.2170    1.8154    9.2911 C.3       1 RES1    0.0000
     26 C11       -0.5340    1.3169    8.0728 C.3       1 RES1    0.0000
     27 C12        5.8679    0.1640   10.8940 C.3       1 RES1    0.0000
     28 C13        7.8726   -1.6803    6.4158 C.2       1 RES1    0.0000
     29 C14        9.4877   -3.2976    5.8285 C.3       1 RES1    0.0000
     30 C15       10.3942   -4.2761    6.4948 C.ar      1 RES1    0.0000
     31 C16       11.6815   -4.4362    6.0593 C.ar      1 RES1    0.0000
     32 C17       12.5084   -5.4108    6.6476 C.ar      1 RES1    0.0000
     33 C18       12.0629   -6.1624    7.6591 C.ar      1 RES1    0.0000
     34 C19       10.7744   -6.0181    8.1372 C.ar      1 RES1    0.0000
     35 C20        9.9463   -5.0710    7.5489 C.ar      1 RES1    0.0000
     36 C21        5.5542    1.6055    4.6902 C.3       1 RES1    0.0000
     37 C22        5.8269    2.8306    3.8160 C.3       1 RES1    0.0000
     38 C23        5.0736    0.3673    3.9272 C.3       1 RES1    0.0000
     39 C24       -2.5160    3.7436    9.6612 C.3       1 RES1    0.0000
     40 C25       -3.2166    4.7654    8.8389 C.3       1 RES1    0.0000
     41 C26       -3.1679    3.4590   11.0510 C.3       1 RES1    0.0000
     42 C27        0.8236   -0.4683    7.2453 C.3       1 RES1    0.0000
@<TRIPOS>BOND
     1    1   16 1
     2    2   28 2
     3    3   28 1
     4    4   18 1
     5    5   19 1
     6    6   16 1
     7    7   21 1
     8    8   15 2
     9    9   15 2
    10   10   23 1
    11   11   24 1
    12   12   25 1
    13   13   26 1
    14   14   17 1
    15   15   22 1
    16   16   17 1
    17   17   18 1
    18   18   19 1
    19   19   20 1
    20   20    6 1
    21   21   20 1
    22   22   21 1
    23   23   22 1
    24   24   23 1
    25   25   24 1
    26   26   10 1
    27   27    1 1
    28   28   14 1
    29   29    3 1
    30   30   29 1
    31   31   30 ar
    32   32   31 ar
    33   33   32 ar
    34   34   33 ar
    35   35   30 ar
    36   36    4 1
    37   37   36 1
    38   38   36 1
    39   39   11 1
    40   40   39 1
    41   41   39 1
    42   42   13 1
    43    5   36 1
    44   12   39 1
    45   25   26 1
    46   34   35 ar
@<TRIPOS>SUBSTRUCTURE
     1 RES1 1

@<TRIPOS>CRYSIN
  11.1970   13.1170   10.3990  90.0000  91.5800  90.0000   4 1

