# MOL2 file generated by ConQuest
# Please check atom types

@<TRIPOS>MOLECULE
BOJTID
    31    34     1
SMALL
NO_CHARGES
****
Generated from CSD

@<TRIPOS>ATOM
      1 O1         1.5005    1.8425   13.0874 O.3       1 RES1    0.0000
      2 O2         2.6561   -0.5403   12.4051 O.2       1 RES1    0.0000
      3 O3         4.4554   -0.7583   13.5969 O.2       1 RES1    0.0000
      4 O4         4.3504    0.2939   18.2451 O.2       1 RES1    0.0000
      5 O5         2.6721    1.4231   19.0743 O.2       1 RES1    0.0000
      6 O6        -0.9726    2.4314   14.2978 O.2       1 RES1    0.0000
      7 O7        -0.7177    3.1601   16.3244 O.2       1 RES1    0.0000
      8 N1         0.2897   -0.0995   13.9278 N.pl3     1 RES1    0.0000
      9 N2         3.3025   -0.3543   13.4481 N.pl3     1 RES1    0.0000
     10 N3         3.2849    0.9088   18.1354 N.pl3     1 RES1    0.0000
     11 N4        -0.3301    2.4954   15.3520 N.pl3     1 RES1    0.0000
     12 C1         1.3231    0.9669   14.2346 C.3       1 RES1    0.0000
     13 C2         2.6717    0.3602   14.5246 C.2       1 RES1    0.0000
     14 C3         3.3023    0.3851   15.7220 C.2       1 RES1    0.0000
     15 C4         2.7134    1.0356   16.8097 C.3       1 RES1    0.0000
     16 C5         1.5314    1.7501   16.6498 C.2       1 RES1    0.0000
     17 C6         0.8964    1.7596   15.4468 C.2       1 RES1    0.0000
     18 C7        -0.5033   -0.0450   12.8996 C.2       1 RES1    0.0000
     19 C8        -0.4141    0.9669   11.9105 C.ar      1 RES1    0.0000
     20 C9         0.6309    1.8710   12.0351 C.ar      1 RES1    0.0000
     21 C10        0.8634    2.8864   11.0980 C.ar      1 RES1    0.0000
     22 C11       -0.0211    3.0227   10.0438 C.ar      1 RES1    0.0000
     23 C12       -1.1518    2.1767    9.9136 C.ar      1 RES1    0.0000
     24 C13       -1.3698    1.1245   10.8358 C.ar      1 RES1    0.0000
     25 C14       -2.5258    0.3211   10.7187 C.ar      1 RES1    0.0000
     26 C15       -3.4148    0.5451    9.6868 C.ar      1 RES1    0.0000
     27 C16       -3.1904    1.5818    8.7609 C.ar      1 RES1    0.0000
     28 C17       -2.0864    2.3769    8.8464 C.ar      1 RES1    0.0000
     29 C18        0.1551   -1.1576   14.9969 C.3       1 RES1    0.0000
     30 C19        0.5259   -2.5179   14.4038 C.3       1 RES1    0.0000
     31 C20       -1.2398   -1.1126   15.5956 C.3       1 RES1    0.0000
@<TRIPOS>BOND
     1    1   12 1
     2    2    9 2
     3    3    9 2
     4    4   10 2
     5    5   10 2
     6    6   11 2
     7    7   11 2
     8    8   12 1
     9    9   13 1
    10   10   15 1
    11   11   17 1
    12   12   13 1
    13   13   14 2
    14   14   15 1
    15   15   16 1
    16   16   17 2
    17   17   12 1
    18   18    8 2
    19   19   18 1
    20   20    1 1
    21   21   20 ar
    22   22   21 ar
    23   23   22 ar
    24   24   19 ar
    25   25   24 ar
    26   26   25 ar
    27   27   26 ar
    28   28   23 ar
    29   29    8 1
    30   30   29 1
    31   31   29 1
    32   19   20 ar
    33   23   24 ar
    34   27   28 ar
@<TRIPOS>SUBSTRUCTURE
     1 RES1 1

@<TRIPOS>CRYSIN
   8.4640   11.8490   18.7360  90.0000  97.0900  90.0000  14 1

