# MOL2 file generated by ConQuest
# Please check atom types

@<TRIPOS>MOLECULE
BOLKEU
    51    50     2
SMALL
NO_CHARGES
****
Generated from CSD

@<TRIPOS>ATOM
      1 C1        15.7215    0.3590    5.8844 C.ar      1 RES1    0.0000
      2 C2        15.2501   -0.8512    5.5210 C.ar      1 RES1    0.0000
      3 H1        15.6608   -1.3387    4.8445 H         1 RES1    0.0000
      4 C3        14.1454   -1.3486    6.1784 C.ar      1 RES1    0.0000
      5 H2        13.7914   -2.1706    5.9266 H         1 RES1    0.0000
      6 C4        13.5589   -0.6381    7.2102 C.ar      1 RES1    0.0000
      7 C5        14.0631    0.6007    7.5519 C.ar      1 RES1    0.0000
      8 H3        13.6629    1.0946    8.2311 H         1 RES1    0.0000
      9 C6        15.1665    1.1075    6.8808 C.ar      1 RES1    0.0000
     10 H4        15.5192    1.9382    7.1054 H         1 RES1    0.0000
     11 C7        12.3777   -1.2470    7.8990 C.2       1 RES1    0.0000
     12 C8        11.7846   -0.5330    9.0860 C.3       1 RES1    0.0000
     13 H5        11.4914    0.3480    8.8042 H         1 RES1    0.0000
     14 H6        12.4780   -0.4122    9.7543 H         1 RES1    0.0000
     15 C9        10.6108   -1.2558    9.7271 C.3       1 RES1    0.0000
     16 H7         9.9445   -1.4438    9.0329 H         1 RES1    0.0000
     17 C10       10.9605   -2.5577   10.4267 C.3       1 RES1    0.0000
     18 H8        11.4750   -3.1170    9.8237 H         1 RES1    0.0000
     19 H9        10.1431   -3.0306   10.6486 H         1 RES1    0.0000
     20 C11       11.7592   -2.3171   11.6913 C.3       1 RES1    0.0000
     21 H10       11.8442   -3.1485   12.1840 H         1 RES1    0.0000
     22 H11       12.6501   -2.0118   11.4599 H         1 RES1    0.0000
     23 C12       11.0828   -1.2896   12.5529 C.3       1 RES1    0.0000
     24 H12       10.2373   -1.6405   12.8701 H         1 RES1    0.0000
     25 H13       11.6389   -1.0981   13.3247 H         1 RES1    0.0000
     26 O1        10.8515   -0.0701   11.8100 O.3       1 RES1    0.0000
     27 C13        8.6815   -0.1851   10.8555 C.2       1 RES1    0.0000
     28 C14        7.0439    1.0900   11.9036 C.3       1 RES1    0.0000
     29 H14        6.3795    0.4192   11.6831 H         1 RES1    0.0000
     30 H15        7.0099    1.7946   11.2380 H         1 RES1    0.0000
     31 C15        6.7991    1.6574   13.3097 C.ar      1 RES1    0.0000
     32 C16        6.0723    1.1197   14.3647 C.ar      1 RES1    0.0000
     33 H16        5.6935    0.2726   14.2993 H         1 RES1    0.0000
     34 C17        5.9231    1.8740   15.5203 C.ar      1 RES1    0.0000
     35 H17        5.4269    1.5448   16.2349 H         1 RES1    0.0000
     36 C18        6.5018    3.1000   15.6061 C.ar      1 RES1    0.0000
     37 H18        6.4017    3.6074   16.3792 H         1 RES1    0.0000
     38 C19        7.2177    3.5863   14.5824 C.ar      1 RES1    0.0000
     39 H19        7.6341    4.4142   14.6546 H         1 RES1    0.0000
     40 C20        7.3293    2.8665   13.4486 C.ar      1 RES1    0.0000
     41 H20        7.7981    3.2326   12.7339 H         1 RES1    0.0000
     42 N1        16.9249    0.8926    5.2011 N.pl3     1 RES1    0.0000
     43 N2        10.0177   -0.3433   10.7085 N.am      1 RES1    0.0000
     44 O2        17.2934    1.9984    5.4516 O.2       1 RES1    0.0000
     45 O3        17.4550    0.1465    4.3926 O.2       1 RES1    0.0000
     46 O4        11.9243   -2.3055    7.5056 O.2       1 RES1    0.0000
     47 O5         7.8916   -0.5651   10.0388 O.2       1 RES1    0.0000
     48 O6         8.3823    0.4962   11.9638 O.3       1 RES1    0.0000
     49 C21        6.9133    0.6597   12.2167 Du        2 SUP2    0.0000
     50 H21        6.4632    0.9750   11.4177 Du        2 SUP2    0.0000
     51 H22        6.5180   -0.1851   12.4849 Du        2 SUP2    0.0000
@<TRIPOS>BOND
     1    1    2 ar
     2    2    3 1
     3    4    2 ar
     4    5    4 1
     5    6    4 ar
     6    7    6 ar
     7    8    7 1
     8    9    1 ar
     9   10    9 1
    10   11    6 1
    11   12   11 1
    12   13   12 1
    13   14   12 1
    14   15   12 1
    15   16   15 1
    16   17   15 1
    17   18   17 1
    18   19   17 1
    19   20   17 1
    20   21   20 1
    21   22   20 1
    22   23   20 1
    23   24   23 1
    24   25   23 1
    25   26   23 1
    26   27   43 1
    27   28   29 1
    28   30   28 1
    29   31   28 1
    30   32   31 ar
    31   33   32 1
    32   34   32 ar
    33   35   34 1
    34   36   34 ar
    35   37   36 1
    36   38   36 ar
    37   39   38 1
    38   40   31 ar
    39   41   40 1
    40   42    1 1
    41   43   15 1
    42   44   42 2
    43   45   42 2
    44   46   11 2
    45   47   27 2
    46   48   27 1
    47    7    9 ar
    48   26   43 1
    49   28   48 1
    50   38   40 ar
@<TRIPOS>SUBSTRUCTURE
     1 RES1 1
     2 SUP2 49

@<TRIPOS>CRYSIN
  11.9298    5.8381   13.6572  90.0000  94.6670  90.0000   4 1

