# MOL2 file generated by ConQuest
# Please check atom types

@<TRIPOS>MOLECULE
BOLNOF
    44    43     1
SMALL
NO_CHARGES
****
Generated from CSD

@<TRIPOS>ATOM
      1 O1         2.1520    7.0616   -0.5075 O.3       1 RES1    0.0000
      2 N1         3.0103    7.9154    0.2268 N.2       1 RES1    0.0000
      3 C1         4.0559    7.3325    0.6629 C.2       1 RES1    0.0000
      4 C2         4.9584    8.1939    1.5577 C.3       1 RES1    0.0000
      5 N2         6.3996    7.8804    1.3954 N.3       1 RES1    0.0000
      6 C3         6.9201    7.9230    0.0182 C.3       1 RES1    0.0000
      7 C4         4.3724    5.8882    0.4004 C.3       1 RES1    0.0000
      8 C5         4.7392    9.6793    1.2770 C.3       1 RES1    0.0000
      9 C6         4.6266    7.8789    3.0246 C.3       1 RES1    0.0000
     10 H1         1.5523    7.6247   -0.7707 H         1 RES1    0.0000
     11 H2         6.5746    7.0921    1.7607 H         1 RES1    0.0000
     12 H3         7.0007    8.8727   -0.2569 H         1 RES1    0.0000
     13 H4         6.3159    7.4269   -0.6517 H         1 RES1    0.0000
     14 H5         3.6373    5.3419    0.3885 H         1 RES1    0.0000
     15 H6         5.1897    5.6310    0.7394 H         1 RES1    0.0000
     16 H7         4.6266    5.5397   -0.5263 H         1 RES1    0.0000
     17 H8         5.3419   10.2424    1.8234 H         1 RES1    0.0000
     18 H9         4.9005    9.8771    0.3070 H         1 RES1    0.0000
     19 H10        3.7895    9.9532    1.4349 H         1 RES1    0.0000
     20 H11        4.7940    6.9399    3.2395 H         1 RES1    0.0000
     21 H12        3.6982    8.0661    3.2145 H         1 RES1    0.0000
     22 H13        5.2049    8.3705    3.5466 H         1 RES1    0.0000
     23 C3D        8.2989    7.2960   -0.0182 C.3       1 RES1    0.0000
     24 N2D        8.8194    7.3386   -1.3954 N.3       1 RES1    0.0000
     25 H3D        8.2183    6.3463    0.2569 H         1 RES1    0.0000
     26 H4D        8.9031    7.7921    0.6517 H         1 RES1    0.0000
     27 C2D       10.2606    7.0251   -1.5577 C.3       1 RES1    0.0000
     28 H2D        8.6444    8.1269   -1.7607 H         1 RES1    0.0000
     29 C1D       11.1631    7.8865   -0.6629 C.2       1 RES1    0.0000
     30 C5D       10.4798    5.5397   -1.2770 C.3       1 RES1    0.0000
     31 C6D       10.5924    7.3401   -3.0246 C.3       1 RES1    0.0000
     32 N1D       12.2087    7.3036   -0.2268 N.2       1 RES1    0.0000
     33 C4D       10.8466    9.3308   -0.4004 C.3       1 RES1    0.0000
     34 H8D        9.8771    4.9766   -1.8234 H         1 RES1    0.0000
     35 H9D       10.3185    5.3419   -0.3070 H         1 RES1    0.0000
     36 H10D      11.4295    5.2658   -1.4349 H         1 RES1    0.0000
     37 H11D      10.4250    8.2791   -3.2395 H         1 RES1    0.0000
     38 H12D      11.5208    7.1529   -3.2145 H         1 RES1    0.0000
     39 H13D      10.0141    6.8485   -3.5466 H         1 RES1    0.0000
     40 O1D       13.0670    8.1574    0.5075 O.3       1 RES1    0.0000
     41 H5D       11.5817    9.8771   -0.3885 H         1 RES1    0.0000
     42 H6D       10.0293    9.5880   -0.7394 H         1 RES1    0.0000
     43 H7D       10.5924    9.6793    0.5263 H         1 RES1    0.0000
     44 H1D       13.6667    7.5943    0.7707 H         1 RES1    0.0000
@<TRIPOS>BOND
     1    1    2 1
     2    2    3 2
     3    3    4 1
     4    4    5 1
     5    5    6 1
     6    6   12 1
     7    7    3 1
     8    8    4 1
     9    9    4 1
    10   10    1 1
    11   11    5 1
    12   13    6 1
    13   14    7 1
    14   15    7 1
    15   16    7 1
    16   17    8 1
    17   18    8 1
    18   19    8 1
    19   20    9 1
    20   21    9 1
    21   22    9 1
    22   23    6 1
    23   24   23 1
    24   25   23 1
    25   26   23 1
    26   27   24 1
    27   28   24 1
    28   29   27 1
    29   30   27 1
    30   31   27 1
    31   32   29 2
    32   33   29 1
    33   34   30 1
    34   35   30 1
    35   36   30 1
    36   37   31 1
    37   38   31 1
    38   39   31 1
    39   40   32 1
    40   41   33 1
    41   42   33 1
    42   43   33 1
    43   44   40 1
@<TRIPOS>SUBSTRUCTURE
     1 RES1 1

@<TRIPOS>CRYSIN
  15.2190   15.2190    6.2660  90.0000  90.0000  90.0000  86 1

