# MOL2 file generated by ConQuest
# Please check atom types

@<TRIPOS>MOLECULE
BONGAO
    17    16     1
SMALL
USER_CHARGES
****
Generated from CSD

@<TRIPOS>ATOM
      1 O1         0.7651    4.4985    8.5380 O.3       1 RES1    0.0000
      2 H1         1.1908    4.8866    9.1212 H         1 RES1    0.0000
      3 N1         0.0015    5.4459    7.7975 N.4       1 RES1    1.0000
      4 O2         0.1977    8.2113   10.1352 O.co2     1 RES1    0.0000
      5 O3         1.5522    6.4551    9.8777 O.co2     1 RES1   -1.0000
      6 C1        -0.5432    6.4990    8.7227 C.3       1 RES1    0.0000
      7 H2        -1.2471    6.1055    9.2610 H         1 RES1    0.0000
      8 H3        -0.9411    7.2054    8.1895 H         1 RES1    0.0000
      9 C2        -1.1028    4.6650    7.1751 C.3       1 RES1    0.0000
     10 H4        -0.7338    3.9450    6.6587 H         1 RES1    0.0000
     11 H5        -1.6174    5.2385    6.6026 H         1 RES1    0.0000
     12 H6        -1.6696    4.3079    7.8629 H         1 RES1    0.0000
     13 C3         0.5046    7.1202    9.6596 C.2       1 RES1    0.0000
     14 C4         0.8698    6.0609    6.7463 C.3       1 RES1    0.0000
     15 H7         1.5712    6.5652    7.1649 H         1 RES1    0.0000
     16 H8         0.3414    6.6438    6.1954 H         1 RES1    0.0000
     17 H9         1.2536    5.3685    6.2026 H         1 RES1    0.0000
@<TRIPOS>BOND
     1    1    2 1
     2    3    1 1
     3    4   13 2
     4    5   13 1
     5    6    3 1
     6    7    6 1
     7    8    6 1
     8    9    3 1
     9   10    9 1
    10   11    9 1
    11   12    9 1
    12   13    6 1
    13   14    3 1
    14   15   14 1
    15   16   14 1
    16   17   14 1
@<TRIPOS>SUBSTRUCTURE
     1 RES1 1

@<TRIPOS>CRYSIN
   5.5044   10.0817   10.2203  90.0000  93.1420  90.0000 231 1

