# MOL2 file generated by ConQuest
# Please check atom types

@<TRIPOS>MOLECULE
BOPCEP01
    45    47     1
SMALL
NO_CHARGES
****
Generated from CSD

@<TRIPOS>ATOM
      1 O1         3.4760    6.6188    1.0118 O.3       1 RES1    0.0000
      2 O2         1.6529    4.4523    0.8425 O.3       1 RES1    0.0000
      3 O3         0.6413    6.7798    6.0667 O.2       1 RES1    0.0000
      4 O4         1.3205    4.7472    5.3346 O.3       1 RES1    0.0000
      5 N1         1.5161    6.4890    3.9944 N.am      1 RES1    0.0000
      6 N2         1.5287    4.2082   -0.5411 N.2       1 RES1    0.0000
      7 C1         2.3287    6.5399    1.8435 C.3       1 RES1    0.0000
      8 C2         1.8708    7.9449    2.2620 C.3       1 RES1    0.0000
      9 C3         1.9005    7.8915    3.7663 C.3       1 RES1    0.0000
     10 C4         3.3327    7.9071    4.2431 C.3       1 RES1    0.0000
     11 C5         3.8633    6.5046    3.8348 C.3       1 RES1    0.0000
     12 C6         2.6092    5.8942    3.2041 C.3       1 RES1    0.0000
     13 C7         1.2096    5.8128    1.1260 C.3       1 RES1    0.0000
     14 C8         1.0866    5.2270   -1.1305 C.2       1 RES1    0.0000
     15 C9         0.8357    6.3822   -0.2259 C.3       1 RES1    0.0000
     16 C10        0.8305    5.2081   -2.5724 C.3       1 RES1    0.0000
     17 C11        1.1215    6.0683    5.2245 C.2       1 RES1    0.0000
     18 C12        0.8977    3.9979    6.5316 C.3       1 RES1    0.0000
     19 C13       -0.5886    4.1162    6.7038 C.3       1 RES1    0.0000
     20 C14        1.2846    2.6004    6.1630 C.3       1 RES1    0.0000
     21 C15        1.6318    4.4794    7.7582 C.3       1 RES1    0.0000
     22 H1         0.9840    8.0435    2.0319 H         1 RES1    0.0000
     23 H2         0.4669    5.6855    1.7375 H         1 RES1    0.0000
     24 H3         2.6397    4.9871    3.1711 H         1 RES1    0.0000
     25 H4         1.4622    7.1808   -0.4320 H         1 RES1    0.0000
     26 H5         4.0384    6.1209    4.6911 H         1 RES1    0.0000
     27 H6         1.2728    8.4378    4.2079 H         1 RES1    0.0000
     28 H7         4.5545    6.6385    3.1391 H         1 RES1    0.0000
     29 H8        -0.0790    6.6221   -0.2848 H         1 RES1    0.0000
     30 H9         3.2655    8.0763    5.2094 H         1 RES1    0.0000
     31 H10        2.4325    8.5529    1.8879 H         1 RES1    0.0000
     32 H11        3.8311    8.5857    3.8847 H         1 RES1    0.0000
     33 H12        1.2780    5.8827   -3.0655 H         1 RES1    0.0000
     34 H13       -0.9204    3.7465    5.9134 H         1 RES1    0.0000
     35 H14        0.9930    4.3134   -3.0271 H         1 RES1    0.0000
     36 H15       -0.8925    3.5247    7.4398 H         1 RES1    0.0000
     37 H16        1.2959    3.9190    8.5117 H         1 RES1    0.0000
     38 H17       -0.7716    5.0282    6.8318 H         1 RES1    0.0000
     39 H18        1.2990    5.4226    7.9230 H         1 RES1    0.0000
     40 H19        0.8670    2.3744    5.3214 H         1 RES1    0.0000
     41 H20        2.5729    4.3463    7.6094 H         1 RES1    0.0000
     42 H21        0.9868    2.0458    6.8766 H         1 RES1    0.0000
     43 H22        2.2880    2.4977    5.9902 H         1 RES1    0.0000
     44 H23       -0.1561    5.3650   -2.7615 H         1 RES1    0.0000
     45 H24        3.6872    5.7841    0.8928 H         1 RES1    0.0000
@<TRIPOS>BOND
     1    1    7 1
     2    2    6 1
     3    3   17 2
     4    4   17 1
     5    5    9 1
     6    6   14 2
     7    7    8 1
     8    8    9 1
     9    9   10 1
    10   10   11 1
    11   11   12 1
    12   12    5 1
    13   13    2 1
    14   14   15 1
    15   15   13 1
    16   16   14 1
    17   17    5 1
    18   18    4 1
    19   19   18 1
    20   20   18 1
    21   21   18 1
    22   22    8 1
    23   23   13 1
    24   24   12 1
    25   25   15 1
    26   26   11 1
    27   27    9 1
    28   28   11 1
    29   29   15 1
    30   30   10 1
    31   31    8 1
    32   32   10 1
    33   33   16 1
    34   34   19 1
    35   35   16 1
    36   36   19 1
    37   37   21 1
    38   38   19 1
    39   39   21 1
    40   40   20 1
    41   41   21 1
    42   42   20 1
    43   43   20 1
    44   44   16 1
    45   45    1 1
    46    7   12 1
    47    7   13 1
@<TRIPOS>SUBSTRUCTURE
     1 RES1 1

@<TRIPOS>CRYSIN
   6.1740    8.2160   32.0100  90.0000  91.5000  90.0000  14 1

