# MOL2 file generated by ConQuest
# Please check atom types

@<TRIPOS>MOLECULE
BOPJOG
    54    57     1
SMALL
NO_CHARGES
****
Generated from CSD

@<TRIPOS>ATOM
      1 N1        -4.3489    5.2404   -5.2558 N.pl3     1 RES1    0.0000
      2 O1         1.7846    5.2335    5.2248 O.3       1 RES1    0.0000
      3 O2         4.0997    4.0396   11.5501 O.2       1 RES1    0.0000
      4 O3        -5.3942    4.6377   -5.4247 O.2       1 RES1    0.0000
      5 O4        -3.8088    5.9464   -6.1142 O.2       1 RES1    0.0000
      6 C1         3.0363    5.8208    5.4598 C.3       1 RES1    0.0000
      7 H1         2.9714    6.7819    5.3459 H         1 RES1    0.0000
      8 H2         3.6807    5.4831    4.8182 H         1 RES1    0.0000
      9 C2         3.5084    5.5069    6.8684 C.ar      1 RES1    0.0000
     10 C3         4.5661    6.2106    7.4060 C.ar      1 RES1    0.0000
     11 H3         4.9609    6.8907    6.9092 H         1 RES1    0.0000
     12 C4         5.0486    5.9219    8.6654 C.ar      1 RES1    0.0000
     13 H4         5.7561    6.4128    9.0172 H         1 RES1    0.0000
     14 C5         4.4810    4.9019    9.4055 C.ar      1 RES1    0.0000
     15 C6         3.4225    4.2065    8.8793 C.ar      1 RES1    0.0000
     16 H5         3.0149    3.5411    9.3873 H         1 RES1    0.0000
     17 C7         2.9498    4.4761    7.6213 C.ar      1 RES1    0.0000
     18 H6         2.2565    3.9676    7.2695 H         1 RES1    0.0000
     19 C8         4.9036    4.5818   10.8268 C.2       1 RES1    0.0000
     20 C9         6.2462    4.9471   11.2982 C.ar      1 RES1    0.0000
     21 C10        7.3462    4.9340   10.4961 C.ar      1 RES1    0.0000
     22 H7         7.2543    4.7242    9.5955 H         1 RES1    0.0000
     23 C11        8.5866    5.2274   11.0055 C.ar      1 RES1    0.0000
     24 H8         9.3341    5.1852   10.4539 H         1 RES1    0.0000
     25 C12        8.7313    5.5834   12.3240 C.ar      1 RES1    0.0000
     26 H9         9.5631    5.8254   12.6632 H         1 RES1    0.0000
     27 C13        7.6402    5.5743   13.1149 C.ar      1 RES1    0.0000
     28 H10        7.7351    5.7657   14.0197 H         1 RES1    0.0000
     29 C14        6.4014    5.2917   12.6238 C.ar      1 RES1    0.0000
     30 H11        5.6598    5.3307   13.1838 H         1 RES1    0.0000
     31 C15        1.2252    5.3307    4.0090 C.ar      1 RES1    0.0000
     32 C16        0.0768    4.6591    3.7994 C.ar      1 RES1    0.0000
     33 H12       -0.2751    4.1483    4.4917 H         1 RES1    0.0000
     34 C17       -0.5960    4.7005    2.5990 C.ar      1 RES1    0.0000
     35 H13       -1.4047    4.2540    2.5034 H         1 RES1    0.0000
     36 C18       -0.0555    5.4196    1.5169 C.ar      1 RES1    0.0000
     37 C19        1.1089    6.0659    1.7519 C.ar      1 RES1    0.0000
     38 H14        1.4760    6.5598    1.0554 H         1 RES1    0.0000
     39 C20        1.7900    6.0422    2.9593 C.ar      1 RES1    0.0000
     40 H15        2.5991    6.4886    3.0620 H         1 RES1    0.0000
     41 C21       -0.6791    5.5130    0.2237 C.2       1 RES1    0.0000
     42 H16       -0.2196    6.0085   -0.4137 H         1 RES1    0.0000
     43 C22       -1.8018    4.9945   -0.1646 C.2       1 RES1    0.0000
     44 H17       -2.2645    4.5167    0.4855 H         1 RES1    0.0000
     45 C23       -2.4503    5.0489   -1.4803 C.ar      1 RES1    0.0000
     46 C24       -3.6807    4.4707   -1.7097 C.ar      1 RES1    0.0000
     47 H18       -4.1073    4.0358   -1.0089 H         1 RES1    0.0000
     48 C25       -4.2996    4.5152   -2.9480 C.ar      1 RES1    0.0000
     49 H19       -5.1236    4.1047   -3.0887 H         1 RES1    0.0000
     50 C26       -3.6552    5.1883   -3.9598 C.ar      1 RES1    0.0000
     51 C27       -2.4639    5.7404   -3.7769 C.ar      1 RES1    0.0000
     52 H20       -2.0456    6.1746   -4.4847 H         1 RES1    0.0000
     53 C28       -1.8524    5.6776   -2.5737 C.ar      1 RES1    0.0000
     54 H21       -1.0107    6.0621   -2.4724 H         1 RES1    0.0000
@<TRIPOS>BOND
     1    1    4 2
     2    2    6 1
     3    3   19 2
     4    5    1 2
     5    6    7 1
     6    8    6 1
     7    9    6 1
     8   10    9 ar
     9   11   10 1
    10   12   10 ar
    11   13   12 1
    12   14   12 ar
    13   15   14 ar
    14   16   15 1
    15   17    9 ar
    16   18   17 1
    17   19   14 1
    18   20   19 1
    19   21   20 ar
    20   22   21 1
    21   23   21 ar
    22   24   23 1
    23   25   23 ar
    24   26   25 1
    25   27   25 ar
    26   28   27 1
    27   29   20 ar
    28   30   29 1
    29   31    2 1
    30   32   31 ar
    31   33   32 1
    32   34   32 ar
    33   35   34 1
    34   36   34 ar
    35   37   36 ar
    36   38   37 1
    37   39   31 ar
    38   40   39 1
    39   41   36 1
    40   42   41 1
    41   43   41 2
    42   44   43 1
    43   45   43 1
    44   46   45 ar
    45   47   46 1
    46   48   46 ar
    47   49   48 1
    48   50    1 1
    49   51   50 ar
    50   52   51 1
    51   53   45 ar
    52   54   53 1
    53   15   17 ar
    54   27   29 ar
    55   37   39 ar
    56   48   50 ar
    57   51   53 ar
@<TRIPOS>SUBSTRUCTURE
     1 RES1 1

@<TRIPOS>CRYSIN
  20.2000    7.6580   14.4900  90.0000 103.8000  90.0000  14 1

