# MOL2 file generated by ConQuest
# Please check atom types

@<TRIPOS>MOLECULE
BOPQUU
    33    34     1
SMALL
NO_CHARGES
****
Generated from CSD

@<TRIPOS>ATOM
      1 O1        11.3948    2.7918    3.0488 O.3       1 RES1    0.0000
      2 O2        12.2088    1.0584    2.0019 O.2       1 RES1    0.0000
      3 O3         3.7586    2.8693    0.5792 O.2       1 RES1    0.0000
      4 O4         5.8255    3.3680    0.2888 O.2       1 RES1    0.0000
      5 N1         6.6588   -2.2013    2.7288 N.pl3     1 RES1    0.0000
      6 H1         6.2984   -2.9167    3.0592 H         1 RES1    0.0000
      7 N2         4.9417    2.5997    0.6712 N.pl3     1 RES1    0.0000
      8 C1        11.3016    1.5951    2.5736 C.2       1 RES1    0.0000
      9 C2         9.9767    0.9699    2.8446 C.3       1 RES1    0.0000
     10 H2         9.2852    1.6449    2.7548 H         1 RES1    0.0000
     11 H3         9.9618    0.6513    3.7609 H         1 RES1    0.0000
     12 C3         9.6578   -0.1842    1.9194 C.3       1 RES1    0.0000
     13 H4         9.6992    0.1280    1.0017 H         1 RES1    0.0000
     14 H5        10.3335   -0.8711    2.0286 H         1 RES1    0.0000
     15 C4         8.3055   -0.7881    2.1674 C.2       1 RES1    0.0000
     16 C5         8.0144   -2.0061    2.6790 C.2       1 RES1    0.0000
     17 H6         8.6465   -2.6274    2.9582 H         1 RES1    0.0000
     18 C6         7.0491   -0.1692    1.8823 C.ar      1 RES1    0.0000
     19 C7         6.6755    1.0529    1.3670 C.ar      1 RES1    0.0000
     20 H7         7.3133    1.6820    1.1183 H         1 RES1    0.0000
     21 C8         5.3314    1.3161    1.2296 C.ar      1 RES1    0.0000
     22 C9         4.3364    0.4189    1.5979 C.ar      1 RES1    0.0000
     23 H8         3.4408    0.6489    1.4977 H         1 RES1    0.0000
     24 C10        4.6775   -0.8031    2.1088 C.ar      1 RES1    0.0000
     25 H9         4.0239   -1.4196    2.3508 H         1 RES1    0.0000
     26 C11        6.0334   -1.0995    2.2551 C.ar      1 RES1    0.0000
     27 C12       12.6637    3.4945    2.8186 C.3       1 RES1    0.0000
     28 H10       13.3714    3.0756    3.3325 H         1 RES1    0.0000
     29 H11       12.9018    3.4471    1.8793 H         1 RES1    0.0000
     30 C13       12.5301    4.7600    3.1847 C.3       1 RES1    0.0000
     31 H12       11.8513    5.1789    2.6493 H         1 RES1    0.0000
     32 H13       13.3647    5.2192    3.0615 H         1 RES1    0.0000
     33 H14       12.2764    4.8003    4.1099 H         1 RES1    0.0000
@<TRIPOS>BOND
     1    1    8 1
     2    2    8 2
     3    3    7 2
     4    4    7 2
     5    5    6 1
     6    7   21 1
     7    8    9 1
     8    9   10 1
     9   11    9 1
    10   12    9 1
    11   13   12 1
    12   14   12 1
    13   15   12 1
    14   16    5 1
    15   17   16 1
    16   18   15 1
    17   19   18 ar
    18   20   19 1
    19   21   19 ar
    20   22   21 ar
    21   23   22 1
    22   24   22 ar
    23   25   24 1
    24   26    5 1
    25   27    1 1
    26   28   27 1
    27   29   27 1
    28   30   27 1
    29   31   30 1
    30   32   30 1
    31   33   30 1
    32   15   16 2
    33   18   26 ar
    34   24   26 ar
@<TRIPOS>SUBSTRUCTURE
     1 RES1 1

@<TRIPOS>CRYSIN
  22.2560    7.9043    7.4253  90.0000  90.0000  90.0000  29 1

