# MOL2 file generated by ConQuest
# Please check atom types

@<TRIPOS>MOLECULE
BOPQUU01
    33    34     1
SMALL
NO_CHARGES
****
Generated from CSD

@<TRIPOS>ATOM
      1 O1        11.2545    2.8287    3.5034 O.3       1 RES1    0.0000
      2 O2        12.0888    1.0309    4.5383 O.2       1 RES1    0.0000
      3 O3         3.6698    3.0087    5.9741 O.2       1 RES1    0.0000
      4 O4         5.7631    3.4653    6.2613 O.2       1 RES1    0.0000
      5 N1         6.4835   -2.1739    3.9107 N.pl3     1 RES1    0.0000
      6 H1         6.1334   -2.8464    3.6550 H         1 RES1    0.0000
      7 N2         4.8601    2.7055    5.8839 N.pl3     1 RES1    0.0000
      8 C1        11.1783    1.5857    3.9768 C.2       1 RES1    0.0000
      9 C2         9.8327    0.9702    3.6973 C.3       1 RES1    0.0000
     10 H2         9.8165    0.6308    2.7678 H         1 RES1    0.0000
     11 H3         9.1311    1.6647    3.7819 H         1 RES1    0.0000
     12 C3         9.5231   -0.1763    4.6569 C.3       1 RES1    0.0000
     13 H4        10.2063   -0.8835    4.5466 H         1 RES1    0.0000
     14 H5         9.5800    0.1567    5.5879 H         1 RES1    0.0000
     15 C4         8.1646   -0.7704    4.4340 C.2       1 RES1    0.0000
     16 C5         7.8534   -2.0027    3.9524 C.2       1 RES1    0.0000
     17 H6         8.4895   -2.6553    3.6830 H         1 RES1    0.0000
     18 C6         6.9110   -0.1177    4.7014 C.ar      1 RES1    0.0000
     19 C7         6.5692    1.1274    5.1980 C.ar      1 RES1    0.0000
     20 H7         7.2348    1.7614    5.4388 H         1 RES1    0.0000
     21 C8         5.2229    1.4162    5.3320 C.ar      1 RES1    0.0000
     22 C9         4.1966    0.5119    4.9873 C.ar      1 RES1    0.0000
     23 H8         3.2846    0.7572    5.0948 H         1 RES1    0.0000
     24 C10        4.5259   -0.7245    4.4950 C.ar      1 RES1    0.0000
     25 H9         3.8517   -1.3512    4.2577 H         1 RES1    0.0000
     26 C11        5.8811   -1.0360    4.3516 C.ar      1 RES1    0.0000
     27 C12       12.5173    3.5204    3.7346 C.3       1 RES1    0.0000
     28 H10       13.2325    3.1222    3.1777 H         1 RES1    0.0000
     29 H11       12.7792    3.4445    4.6856 H         1 RES1    0.0000
     30 C13       12.3196    4.9284    3.3741 C.3       1 RES1    0.0000
     31 H12       12.0500    4.9900    2.4338 H         1 RES1    0.0000
     32 H13       13.1558    5.4201    3.5067 H         1 RES1    0.0000
     33 H14       11.6208    5.3162    3.9403 H         1 RES1    0.0000
@<TRIPOS>BOND
     1    1    8 1
     2    2    8 2
     3    3    7 2
     4    4    7 2
     5    5    6 1
     6    7   21 1
     7    8    9 1
     8    9   10 1
     9   11    9 1
    10   12    9 1
    11   13   12 1
    12   14   12 1
    13   15   12 1
    14   16    5 1
    15   17   16 1
    16   18   15 1
    17   19   18 ar
    18   20   19 1
    19   21   19 ar
    20   22   21 ar
    21   23   22 1
    22   24   22 ar
    23   25   24 1
    24   26    5 1
    25   27    1 1
    26   28   27 1
    27   29   27 1
    28   30   27 1
    29   31   30 1
    30   32   30 1
    31   33   30 1
    32   15   16 2
    33   18   26 ar
    34   24   26 ar
@<TRIPOS>SUBSTRUCTURE
     1 RES1 1

@<TRIPOS>CRYSIN
  21.8972    7.9955    7.1667  90.0000  90.0000  90.0000  29 1

