# MOL2 file generated by ConQuest
# Please check atom types

@<TRIPOS>MOLECULE
BOSSEJ
    57    61     1
SMALL
NO_CHARGES
****
Generated from CSD

@<TRIPOS>ATOM
      1 O1        -0.7019    1.5409    4.5976 O.3       1 RES1    0.0000
      2 O2        -1.5361    1.5456    6.5942 O.3       1 RES1    0.0000
      3 O3         3.1302    1.7229    8.3007 O.2       1 RES1    0.0000
      4 O4         0.0898    6.4732    5.4294 O.3       1 RES1    0.0000
      5 O5         3.1678    4.4310    8.2079 O.3       1 RES1    0.0000
      6 O6         2.7844    7.4205    7.4191 O.3       1 RES1    0.0000
      7 N1         0.9826    7.4580    5.9596 N.2       1 RES1    0.0000
      8 C1        -0.2843    1.6167    5.9440 C.3       1 RES1    0.0000
      9 C2         0.5418    0.4278    6.3090 C.2       1 RES1    0.0000
     10 H1         0.2641   -0.4059    6.0073 H         1 RES1    0.0000
     11 C3         1.6351    0.4903    7.0274 C.2       1 RES1    0.0000
     12 H2         2.0805   -0.3009    7.2288 H         1 RES1    0.0000
     13 C4         2.1902    1.7529    7.5313 C.2       1 RES1    0.0000
     14 C5         1.5710    3.0191    7.0414 C.ar      1 RES1    0.0000
     15 C6         0.4165    2.9479    6.2251 C.ar      1 RES1    0.0000
     16 C7        -0.1578    4.0662    5.6662 C.ar      1 RES1    0.0000
     17 H3        -0.9206    4.0121    5.1360 H         1 RES1    0.0000
     18 C8         0.4581    5.2693    5.9333 C.ar      1 RES1    0.0000
     19 C9         1.5532    5.4028    6.7562 C.ar      1 RES1    0.0000
     20 C10        2.1333    4.2712    7.3415 C.ar      1 RES1    0.0000
     21 C11        1.8135    6.8126    6.7282 C.2       1 RES1    0.0000
     22 C12        0.3471    1.4940    3.6531 C.3       1 RES1    0.0000
     23 H4         0.7975    2.3419    3.6317 H         1 RES1    0.0000
     24 H5        -0.0135    1.3016    2.7842 H         1 RES1    0.0000
     25 H6         0.9702    0.8071    3.9005 H         1 RES1    0.0000
     26 C13       -1.5446    1.8274    7.9785 C.3       1 RES1    0.0000
     27 H7        -0.8594    1.3156    8.4134 H         1 RES1    0.0000
     28 H8        -2.4005    1.5955    8.3468 H         1 RES1    0.0000
     29 H9        -1.3808    2.7641    8.1150 H         1 RES1    0.0000
     30 C14        4.4648    4.4889    7.5708 C.3       1 RES1    0.0000
     31 H10        4.4909    5.2227    6.9387 H         1 RES1    0.0000
     32 H11        4.6345    3.6645    7.0891 H         1 RES1    0.0000
     33 C15        5.5014    4.6857    8.6238 C.ar      1 RES1    0.0000
     34 C16        6.3169    3.6591    9.0217 C.ar      1 RES1    0.0000
     35 H12        6.2160    2.8108    8.6559 H         1 RES1    0.0000
     36 C17        7.3038    3.9024    9.9867 C.ar      1 RES1    0.0000
     37 H13        7.8597    3.2120   10.2662 H         1 RES1    0.0000
     38 C18        7.4528    5.1527   10.5177 C.ar      1 RES1    0.0000
     39 H14        8.1138    5.3137   11.1515 H         1 RES1    0.0000
     40 C19        6.6468    6.1438   10.1265 C.ar      1 RES1    0.0000
     41 H15        6.7418    6.9908   10.4964 H         1 RES1    0.0000
     42 C20        5.6865    5.9190    9.1885 C.ar      1 RES1    0.0000
     43 H16        5.1396    6.6223    8.9238 H         1 RES1    0.0000
     44 C21        2.9996    8.8198    7.0529 C.3       1 RES1    0.0000
     45 H17        2.1633    9.3094    7.0916 H         1 RES1    0.0000
     46 H18        3.3498    8.8802    6.1495 H         1 RES1    0.0000
     47 C22        3.9758    9.3948    8.0188 C.ar      1 RES1    0.0000
     48 C23        5.3311    9.2007    7.8519 C.ar      1 RES1    0.0000
     49 H19        5.6421    8.7123    7.1244 H         1 RES1    0.0000
     50 C24        6.2316    9.7323    8.7635 C.ar      1 RES1    0.0000
     51 H20        7.1444    9.5870    8.6583 H         1 RES1    0.0000
     52 C25        4.4397   10.6985    9.9670 C.ar      1 RES1    0.0000
     53 H21        4.1321   11.2198   10.6731 H         1 RES1    0.0000
     54 C26        3.5446   10.1559    9.0702 C.ar      1 RES1    0.0000
     55 H22        2.6347   10.3101    9.1820 H         1 RES1    0.0000
     56 C27        5.7686   10.4738    9.8198 C.ar      1 RES1    0.0000
     57 H23        6.3693   10.8233   10.4380 H         1 RES1    0.0000
@<TRIPOS>BOND
     1    1    8 1
     2    2    8 1
     3    3   13 2
     4    4    7 1
     5    5   20 1
     6    6   21 1
     7    7   21 2
     8    8    9 1
     9    9   10 1
    10   11    9 2
    11   12   11 1
    12   13   11 1
    13   14   13 1
    14   15    8 1
    15   16   15 ar
    16   17   16 1
    17   18    4 1
    18   19   18 ar
    19   20   14 ar
    20   21   19 1
    21   22    1 1
    22   23   22 1
    23   24   22 1
    24   25   22 1
    25   26    2 1
    26   27   26 1
    27   28   26 1
    28   29   26 1
    29   30    5 1
    30   31   30 1
    31   32   30 1
    32   33   30 1
    33   34   33 ar
    34   35   34 1
    35   36   34 ar
    36   37   36 1
    37   38   36 ar
    38   39   38 1
    39   40   38 ar
    40   41   40 1
    41   42   33 ar
    42   43   42 1
    43   44    6 1
    44   45   44 1
    45   46   44 1
    46   47   44 1
    47   48   47 ar
    48   49   48 1
    49   50   48 ar
    50   51   50 1
    51   52   53 1
    52   54   47 ar
    53   55   54 1
    54   56   50 ar
    55   57   56 1
    56   14   15 ar
    57   16   18 ar
    58   19   20 ar
    59   40   42 ar
    60   52   54 ar
    61   52   56 ar
@<TRIPOS>SUBSTRUCTURE
     1 RES1 1

@<TRIPOS>CRYSIN
  11.7311   23.3260    8.5134  90.0000 105.0810  90.0000  14 1

