# MOL2 file generated by ConQuest
# Please check atom types

@<TRIPOS>MOLECULE
BOSVIO
    32    34     1
SMALL
NO_CHARGES
****
Generated from CSD

@<TRIPOS>ATOM
      1 O1         4.1529    2.2757    5.3030 O.2       1 RES1    0.0000
      2 O2         2.1418    0.0407   -2.2495 O.2       1 RES1    0.0000
      3 O3         0.9689    1.8458   -2.5203 O.2       1 RES1    0.0000
      4 O4         0.3857    4.8005    1.1119 O.2       1 RES1    0.0000
      5 O5         1.4629    4.6166    2.9701 O.2       1 RES1    0.0000
      6 O6         7.6620   -1.1679    5.6398 O.2       1 RES1    0.0000
      7 O7         7.5951   -2.7750    4.1787 O.2       1 RES1    0.0000
      8 O8         5.2876   -1.6996   -0.2790 O.2       1 RES1    0.0000
      9 O9         6.0716    0.3139   -0.4895 O.2       1 RES1    0.0000
     10 N1         3.1553    2.6538    3.3276 N.am      1 RES1    0.0000
     11 N2         1.7243    1.1308   -1.8879 N.pl3     1 RES1    0.0000
     12 N3         1.1984    4.2421    1.8260 N.pl3     1 RES1    0.0000
     13 N4         7.2732   -1.6640    4.5939 N.pl3     1 RES1    0.0000
     14 N5         5.6158   -0.6158    0.1585 N.pl3     1 RES1    0.0000
     15 C1         3.1681    0.9182    0.0875 C.ar      1 RES1    0.0000
     16 C2         2.1577    1.6186   -0.5523 C.ar      1 RES1    0.0000
     17 C3         1.5458    2.7118   -0.0050 C.ar      1 RES1    0.0000
     18 C4         1.9123    3.0607    1.2828 C.ar      1 RES1    0.0000
     19 C5         4.0095    1.9492    4.1358 C.2       1 RES1    0.0000
     20 C6         5.6350    0.1295    4.3099 C.ar      1 RES1    0.0000
     21 C7         6.3712   -0.8712    3.7478 C.ar      1 RES1    0.0000
     22 C8         6.3202   -1.1606    2.3923 C.ar      1 RES1    0.0000
     23 C9         5.4788   -0.3875    1.6205 C.ar      1 RES1    0.0000
     24 C10        4.6087    0.5756    2.1215 C.ar      1 RES1    0.0000
     25 C11        3.5697    1.3005    1.3695 C.ar      1 RES1    0.0000
     26 C12        2.8780    2.3561    2.0060 C.ar      1 RES1    0.0000
     27 C13        4.7489    0.8513    3.4976 C.ar      1 RES1    0.0000
     28 H1         3.6015    0.0940   -0.4045 H         1 RES1    0.0000
     29 H2         0.7968    3.1390   -0.4540 H         1 RES1    0.0000
     30 H3         5.6732    0.3656    5.2584 H         1 RES1    0.0000
     31 H4         6.8206   -1.9116    1.9647 H         1 RES1    0.0000
     32 H5         2.6454    3.3950    3.7065 H         1 RES1    0.0000
@<TRIPOS>BOND
     1    1   19 2
     2    2   11 2
     3    3   11 2
     4    4   12 2
     5    5   12 2
     6    6   13 2
     7    7   13 2
     8    8   14 2
     9    9   14 2
    10   10   19 1
    11   11   16 1
    12   12   18 1
    13   13   21 1
    14   14   23 1
    15   15   16 ar
    16   16   17 ar
    17   17   18 ar
    18   18   26 ar
    19   19   27 1
    20   20   21 ar
    21   21   22 ar
    22   22   23 ar
    23   23   24 ar
    24   24   25 1
    25   25   15 ar
    26   26   10 1
    27   27   20 ar
    28   28   15 1
    29   29   17 1
    30   30   20 1
    31   31   22 1
    32   32   10 1
    33   24   27 ar
    34   25   26 ar
@<TRIPOS>SUBSTRUCTURE
     1 RES1 1

@<TRIPOS>CRYSIN
  31.8720    5.2230    8.2550  90.0000  90.0000  90.0000  19 1

