# MOL2 file generated by ConQuest
# Please check atom types

@<TRIPOS>MOLECULE
BOSWUB
    36    37     1
SMALL
NO_CHARGES
****
Generated from CSD

@<TRIPOS>ATOM
      1 C1         2.7114   13.1982    1.3569 C.3       1 RES1    0.0000
      2 H1         3.6275   13.3140    1.6200 H         1 RES1    0.0000
      3 O1         1.8147   13.2741    2.4404 O.3       1 RES1    0.0000
      4 C2         2.5023   11.8468    0.7265 C.3       1 RES1    0.0000
      5 H2         1.5712   11.7603    0.5094 H         1 RES1    0.0000
      6 O2         2.7965   10.7897    1.6283 O.3       1 RES1    0.0000
      7 H3         3.6989   10.4701    1.5573 H         1 RES1    0.0000
      8 C3         3.2834   11.7336   -0.5699 C.3       1 RES1    0.0000
      9 H4         4.2140   11.6737   -0.3424 H         1 RES1    0.0000
     10 O3         2.8600   10.5607   -1.2713 O.3       1 RES1    0.0000
     11 H5         3.7074   10.2132   -1.5573 H         1 RES1    0.0000
     12 C4         3.1344   12.9559   -1.4592 C.3       1 RES1    0.0000
     13 H6         2.2654   12.9385   -1.8663 H         1 RES1    0.0000
     14 O4         4.1821   12.9066   -2.4279 O.3       1 RES1    0.0000
     15 H7         3.8761   12.9678   -3.3360 H         1 RES1    0.0000
     16 C5         3.2331   14.2553   -0.6785 C.3       1 RES1    0.0000
     17 H8         4.1478   14.3591   -0.4050 H         1 RES1    0.0000
     18 C6         2.8036   15.4269   -1.5135 C.3       1 RES1    0.0000
     19 H9         1.9204   15.2538   -1.8475 H         1 RES1    0.0000
     20 H10        3.4131   15.5121   -2.2504 H         1 RES1    0.0000
     21 O5         2.7815   16.6611   -0.8016 O.3       1 RES1    0.0000
     22 H11        3.6284   16.8688   -0.3987 H         1 RES1    0.0000
     23 O6         2.3340   14.2034    0.4405 O.3       1 RES1    0.0000
     24 C7         1.9829   14.2673    3.3673 C.ar      1 RES1    0.0000
     25 C8         1.2521   14.1821    4.5551 C.ar      1 RES1    0.0000
     26 N1         0.3624   13.0610    4.8224 N.pl3     1 RES1    0.0000
     27 O7        -0.1278   12.4206    3.9184 O.2       1 RES1    0.0000
     28 O8         0.0893   12.7961    6.0102 O.2       1 RES1    0.0000
     29 C9         1.3672   15.1513    5.5342 C.ar      1 RES1    0.0000
     30 H12        0.8601   15.0754    6.3463 H         1 RES1    0.0000
     31 C10        2.1973   16.2111    5.3505 C.ar      1 RES1    0.0000
     32 H13        2.2621   16.8955    6.0186 H         1 RES1    0.0000
     33 C11        2.9469   16.2950    4.1940 C.ar      1 RES1    0.0000
     34 H14        3.5588   17.0259    4.0792 H         1 RES1    0.0000
     35 C12        2.8271   15.3417    3.2024 C.ar      1 RES1    0.0000
     36 H15        3.3356   15.4296    2.3924 H         1 RES1    0.0000
@<TRIPOS>BOND
     1    1    2 1
     2    3    1 1
     3    4    1 1
     4    5    4 1
     5    6    4 1
     6    7    6 1
     7    8    4 1
     8    9    8 1
     9   10    8 1
    10   11   10 1
    11   12    8 1
    12   13   12 1
    13   14   12 1
    14   15   14 1
    15   16   12 1
    16   17   16 1
    17   18   16 1
    18   19   18 1
    19   20   18 1
    20   21   18 1
    21   22   21 1
    22   23    1 1
    23   24    3 1
    24   25   24 ar
    25   26   25 1
    26   27   26 2
    27   28   26 2
    28   29   25 ar
    29   30   29 1
    30   31   29 ar
    31   32   31 1
    32   33   31 ar
    33   34   33 1
    34   35   24 ar
    35   36   35 1
    36   16   23 1
    37   33   35 ar
@<TRIPOS>SUBSTRUCTURE
     1 RES1 1

@<TRIPOS>CRYSIN
   4.7000   13.3140   20.8760  90.0000  90.0000  90.0000  19 1

