# MOL2 file generated by ConQuest
# Please check atom types

@<TRIPOS>MOLECULE
BOSWIP
    39    39     1
SMALL
NO_CHARGES
****
Generated from CSD

@<TRIPOS>ATOM
      1 O1         0.1315    6.7127    1.7260 O.3       1 RES1    0.0000
      2 O2        -0.9786    5.0736   -1.1887 O.2       1 RES1    0.0000
      3 O3         0.6081    6.6220   -0.9603 O.3       1 RES1    0.0000
      4 O4        -3.8714    5.3410    2.6313 O.2       1 RES1    0.0000
      5 O5        -3.7017    5.8979    0.4802 O.3       1 RES1    0.0000
      6 O6         0.0401    3.1039    3.9152 O.2       1 RES1    0.0000
      7 O7        -1.8621    2.8294    2.7751 O.3       1 RES1    0.0000
      8 O8        -1.8056    5.2582    5.1209 O.2       1 RES1    0.0000
      9 O9        -1.8368    7.0314    3.7693 O.3       1 RES1    0.0000
     10 N1         0.3857    5.4798    2.4790 N.3       1 RES1    0.0000
     11 C1        -0.9227    6.3735    0.8376 C.3       1 RES1    0.0000
     12 C2        -1.7305    5.2495    1.5272 C.3       1 RES1    0.0000
     13 C3        -0.9843    5.0239    2.8619 C.3       1 RES1    0.0000
     14 C4        -0.4420    5.9286   -0.5351 C.2       1 RES1    0.0000
     15 C5         1.0522    6.3270   -2.3161 C.3       1 RES1    0.0000
     16 C6        -3.2124    5.5192    1.6541 C.2       1 RES1    0.0000
     17 C7        -5.1374    6.1345    0.4357 C.3       1 RES1    0.0000
     18 C8        -0.8563    3.5488    3.2595 C.2       1 RES1    0.0000
     19 C9        -1.8265    1.3954    3.0628 C.3       1 RES1    0.0000
     20 C10       -1.6018    5.7717    4.0506 C.2       1 RES1    0.0000
     21 C11       -2.5381    7.7949    4.7973 C.3       1 RES1    0.0000
     22 C12        1.2321    5.9223    3.6001 C.3       1 RES1    0.0000
     23 H1        -1.4355    7.2175    0.6557 H         1 RES1    0.0000
     24 H2        -1.6587    4.4331    0.9518 H         1 RES1    0.0000
     25 H3         0.3047    6.5944   -2.9190 H         1 RES1    0.0000
     26 H4         1.4466    5.3323   -2.4113 H         1 RES1    0.0000
     27 H5         2.0700    6.8547   -2.3267 H         1 RES1    0.0000
     28 H6        -5.3194    6.9336    0.7615 H         1 RES1    0.0000
     29 H7        -5.7009    5.3086    0.8038 H         1 RES1    0.0000
     30 H8        -5.3973    6.4761   -0.4865 H         1 RES1    0.0000
     31 H9        -1.0080    0.9308    2.6863 H         1 RES1    0.0000
     32 H10       -1.9669    1.1201    4.0189 H         1 RES1    0.0000
     33 H11       -2.5115    1.0885    2.4536 H         1 RES1    0.0000
     34 H12       -3.3625    7.2412    4.9707 H         1 RES1    0.0000
     35 H13       -2.7409    8.7163    4.3785 H         1 RES1    0.0000
     36 H14       -2.1503    7.8091    5.3515 H         1 RES1    0.0000
     37 H15        2.1411    6.1211    3.1728 H         1 RES1    0.0000
     38 H16        0.8323    6.7443    4.0400 H         1 RES1    0.0000
     39 H17        1.3180    5.1272    4.2304 H         1 RES1    0.0000
@<TRIPOS>BOND
     1    1   10 1
     2    2   14 2
     3    3   14 1
     4    4   16 2
     5    5   16 1
     6    6   18 2
     7    7   18 1
     8    8   20 2
     9    9   20 1
    10   10   13 1
    11   11    1 1
    12   12   11 1
    13   13   12 1
    14   14   11 1
    15   15    3 1
    16   16   12 1
    17   17    5 1
    18   18   13 1
    19   19    7 1
    20   20   13 1
    21   21    9 1
    22   22   10 1
    23   23   11 1
    24   24   12 1
    25   25   15 1
    26   26   15 1
    27   27   15 1
    28   28   17 1
    29   29   17 1
    30   30   17 1
    31   31   19 1
    32   32   19 1
    33   33   19 1
    34   34   21 1
    35   35   21 1
    36   36   21 1
    37   37   22 1
    38   38   22 1
    39   39   22 1
@<TRIPOS>SUBSTRUCTURE
     1 RES1 1

@<TRIPOS>CRYSIN
   8.6260    8.8490   21.1520  90.0000  90.0000 116.9500   9 3

