# MOL2 file generated by ConQuest
# Please check atom types

@<TRIPOS>MOLECULE
BOTLEC
    34    35     1
SMALL
NO_CHARGES
****
Generated from CSD

@<TRIPOS>ATOM
      1 O1        10.1669    4.9972    3.9813 O.3       1 RES1    0.0000
      2 O2         8.8607    3.9646    2.4690 O.2       1 RES1    0.0000
      3 C1         7.6578    3.7996    5.4121 C.2       1 RES1    0.0000
      4 C2         6.6977    3.1884    6.2940 C.ar      1 RES1    0.0000
      5 C3         8.8117    3.2568    4.7419 C.2       1 RES1    0.0000
      6 N1         6.1871    5.3750    6.0604 N.3       1 RES1    0.0000
      7 C4         7.2740    5.1314    5.3021 C.2       1 RES1    0.0000
      8 H1         7.7067    5.7656    4.7774 H         1 RES1    0.0000
      9 O3        10.9893    2.1720    3.4430 O.2       1 RES1    0.0000
     10 C5         5.7931    4.1928    6.6707 C.ar      1 RES1    0.0000
     11 N2        10.5291    1.5865    4.4092 N.pl3     1 RES1    0.0000
     12 C6         6.4670    1.8848    6.7575 C.ar      1 RES1    0.0000
     13 H2         7.0337    1.1899    6.5105 H         1 RES1    0.0000
     14 C7         9.3840    2.0840    5.0770 C.2       1 RES1    0.0000
     15 H3         9.0144    1.5848    5.7705 H         1 RES1    0.0000
     16 C8         9.2997    4.0774    3.5800 C.2       1 RES1    0.0000
     17 C9         4.7077    3.9646    7.5012 C.ar      1 RES1    0.0000
     18 H4         4.1311    4.6527    7.7421 H         1 RES1    0.0000
     19 O4        11.0361    0.5531    4.8471 O.2       1 RES1    0.0000
     20 C10        5.3962    1.6489    7.5795 C.ar      1 RES1    0.0000
     21 H5         5.2508    0.7864    7.8950 H         1 RES1    0.0000
     22 C11        5.5523    6.6649    6.2292 C.3       1 RES1    0.0000
     23 H6         4.8044    6.5777    6.8248 H         1 RES1    0.0000
     24 H7         5.2472    6.9863    5.3779 H         1 RES1    0.0000
     25 H8         6.1837    7.2872    6.5985 H         1 RES1    0.0000
     26 C12        4.5149    2.6678    7.9586 C.ar      1 RES1    0.0000
     27 H9         3.7981    2.4764    8.5176 H         1 RES1    0.0000
     28 C13       10.6626    5.9246    2.9721 C.3       1 RES1    0.0000
     29 H10       10.8963    6.7657    3.3941 H         1 RES1    0.0000
     30 H11        9.9629    6.0973    2.3226 H         1 RES1    0.0000
     31 C14       11.8521    5.3724    2.2823 C.3       1 RES1    0.0000
     32 H12       12.1509    5.9939    1.6145 H         1 RES1    0.0000
     33 H13       11.6211    4.5398    1.8652 H         1 RES1    0.0000
     34 H14       12.5533    5.2271    2.9207 H         1 RES1    0.0000
@<TRIPOS>BOND
     1    1   16 1
     2    2   16 2
     3    3    4 1
     4    4   10 ar
     5    5    3 1
     6    6    7 1
     7    7    3 2
     8    8    7 1
     9    9   11 2
    10   10    6 1
    11   11   14 1
    12   12    4 ar
    13   13   12 1
    14   14    5 2
    15   15   14 1
    16   16    5 1
    17   17   10 ar
    18   18   17 1
    19   19   11 2
    20   20   12 ar
    21   21   20 1
    22   22    6 1
    23   23   22 1
    24   24   22 1
    25   25   22 1
    26   26   17 ar
    27   27   26 1
    28   28    1 1
    29   29   28 1
    30   30   28 1
    31   31   28 1
    32   32   31 1
    33   33   31 1
    34   34   31 1
    35   20   26 ar
@<TRIPOS>SUBSTRUCTURE
     1 RES1 1

@<TRIPOS>CRYSIN
  12.8990    8.5480   13.6620  90.0000 116.4600  90.0000 231 1

