# MOL2 file generated by ConQuest
# Please check atom types

@<TRIPOS>MOLECULE
BOTMUT
    34    36     1
SMALL
NO_CHARGES
****
Generated from CSD

@<TRIPOS>ATOM
      1 N1        -0.3216    8.6689    1.1770 N.2       1 RES1    0.0000
      2 C1         0.5101    9.3258    1.9334 C.2       1 RES1    0.0000
      3 N2         1.4569    8.7346    2.7381 N.am      1 RES1    0.0000
      4 C2         1.6361    7.3524    2.7752 C.2       1 RES1    0.0000
      5 O1         2.4707    6.8363    3.4907 O.2       1 RES1    0.0000
      6 C3         0.7236    6.5983    1.9258 C.ar      1 RES1    0.0000
      7 C4         0.7968    5.2089    1.8802 C.ar      1 RES1    0.0000
      8 H1         1.4335    4.7480    2.3779 H         1 RES1    0.0000
      9 C5        -0.0891    4.5383    1.0876 C.ar      1 RES1    0.0000
     10 N3        -0.0342    3.0705    1.0531 N.pl3     1 RES1    0.0000
     11 O2        -0.7245    2.4927    0.2363 O.2       1 RES1    0.0000
     12 O3         0.7052    2.5078    1.8235 O.2       1 RES1    0.0000
     13 C6        -1.0665    5.1800    0.3331 C.ar      1 RES1    0.0000
     14 H2        -1.6571    4.7007   -0.2000 H         1 RES1    0.0000
     15 C7        -1.1242    6.5383    0.4075 C.ar      1 RES1    0.0000
     16 N4        -2.1708    7.2436   -0.3394 N.pl3     1 RES1    0.0000
     17 C8        -0.2363    7.2964    1.1835 C.ar      1 RES1    0.0000
     18 O4        -3.0979    7.7040    0.2757 O.2       1 RES1    0.0000
     19 O5        -2.0620    7.3309   -1.5248 O.2       1 RES1    0.0000
     20 C9         0.4385   10.8133    1.9025 C.3       1 RES1    0.0000
     21 H3         0.3232   11.1404    2.8087 H         1 RES1    0.0000
     22 H4        -0.3419   11.0795    1.3918 H         1 RES1    0.0000
     23 C10        1.6757   11.4760    1.2941 C.3       1 RES1    0.0000
     24 H5         1.9890   10.9329    0.5545 H         1 RES1    0.0000
     25 H6         1.4218   12.3404    0.9359 H         1 RES1    0.0000
     26 C11        2.8174   11.6707    2.2747 C.3       1 RES1    0.0000
     27 H7         3.5424   12.1306    1.8244 H         1 RES1    0.0000
     28 H8         2.5136   12.2389    3.0003 H         1 RES1    0.0000
     29 C12        3.3470   10.3740    2.8543 C.3       1 RES1    0.0000
     30 H9         3.7024    9.8344    2.1314 H         1 RES1    0.0000
     31 H10        4.0820   10.5810    3.4525 H         1 RES1    0.0000
     32 C13        2.3296    9.5534    3.6097 C.3       1 RES1    0.0000
     33 H11        2.7959    8.9660    4.2246 H         1 RES1    0.0000
     34 H12        1.7748   10.1502    4.1353 H         1 RES1    0.0000
@<TRIPOS>BOND
     1    1    2 2
     2    2    3 1
     3    3    4 1
     4    4    5 2
     5    6    4 1
     6    7    6 ar
     7    8    7 1
     8    9    7 ar
     9   10    9 1
    10   11   10 2
    11   12   10 2
    12   13    9 ar
    13   14   13 1
    14   15   13 ar
    15   16   15 1
    16   17    1 1
    17   18   16 2
    18   19   16 2
    19   20    2 1
    20   21   20 1
    21   22   20 1
    22   23   20 1
    23   24   23 1
    24   25   23 1
    25   26   23 1
    26   27   26 1
    27   28   26 1
    28   29   26 1
    29   30   29 1
    30   31   29 1
    31   32    3 1
    32   33   32 1
    33   34   32 1
    34    6   17 ar
    35   15   17 ar
    36   29   32 1
@<TRIPOS>SUBSTRUCTURE
     1 RES1 1

@<TRIPOS>CRYSIN
   6.3830   22.5560    9.3100  90.0000  92.1700  90.0000  14 1

