# MOL2 file generated by ConQuest
# Please check atom types

@<TRIPOS>MOLECULE
BOVXOA
    56    58     1
SMALL
NO_CHARGES
****
Generated from CSD

@<TRIPOS>ATOM
      1 O1         3.4935   -0.7605   13.5760 O.3       1 RES1    0.0000
      2 C1         4.0094   -0.7594   14.9021 C.3       1 RES1    0.0000
      3 H1         4.9669   -1.0488   14.8856 H         1 RES1    0.0000
      4 C2         3.9324    0.7059   15.2891 C.3       1 RES1    0.0000
      5 H2         3.0388    0.9347   15.6494 H         1 RES1    0.0000
      6 H3         4.6221    0.9359   15.9606 H         1 RES1    0.0000
      7 O2         4.1756    1.3706   14.0514 O.3       1 RES1    0.0000
      8 C3         3.6006    0.5565   13.0244 C.3       1 RES1    0.0000
      9 C4         4.5248    0.5547   11.7999 C.3       1 RES1    0.0000
     10 H4         4.0823   -0.0312   11.1203 H         1 RES1    0.0000
     11 C5         4.5536    1.9589   11.1915 C.3       1 RES1    0.0000
     12 H5         4.9549    2.5883   11.8421 H         1 RES1    0.0000
     13 H6         5.1235    1.9524   10.3814 H         1 RES1    0.0000
     14 C6         3.1642    2.4406   10.8217 C.3       1 RES1    0.0000
     15 H7         2.7987    1.8624   10.1064 H         1 RES1    0.0000
     16 H8         3.2228    3.3630   10.4673 H         1 RES1    0.0000
     17 C7         2.2104    2.4218   12.0183 C.3       1 RES1    0.0000
     18 H9         2.5552    3.0724   12.6956 H         1 RES1    0.0000
     19 C8         2.2084    1.0400   12.6599 C.3       1 RES1    0.0000
     20 H10        1.6513    1.0653   13.4784 H         1 RES1    0.0000
     21 H11        1.7963    0.3941   12.0330 H         1 RES1    0.0000
     22 C9         0.7977    2.8530   11.6326 C.3       1 RES1    0.0000
     23 H12        0.4444    2.2430   10.9523 H         1 RES1    0.0000
     24 H13        0.8217    3.7648   11.2731 H         1 RES1    0.0000
     25 H14        0.2210    2.8289   12.4244 H         1 RES1    0.0000
     26 C10        5.9093   -0.0688   12.0626 C.3       1 RES1    0.0000
     27 H15        5.7817   -0.8318   12.6956 H         1 RES1    0.0000
     28 C11        6.5039   -0.6377   10.7648 C.3       1 RES1    0.0000
     29 H16        6.6406    0.0894   10.1217 H         1 RES1    0.0000
     30 H17        5.8872   -1.2977   10.3852 H         1 RES1    0.0000
     31 H18        7.3626   -1.0671   10.9599 H         1 RES1    0.0000
     32 C12        6.9196    0.8883   12.6898 C.3       1 RES1    0.0000
     33 H19        7.7227    0.3906   12.9495 H         1 RES1    0.0000
     34 H20        6.5240    1.3071   13.4822 H         1 RES1    0.0000
     35 H21        7.1608    1.5806   12.0406 H         1 RES1    0.0000
     36 C13        3.2136   -1.7142   15.7441 C.3       1 RES1    0.0000
     37 H22        3.1396   -2.5901   15.2885 H         1 RES1    0.0000
     38 H23        3.6597   -1.8518   16.6175 H         1 RES1    0.0000
     39 O3         1.8937   -1.1417   15.9421 O.3       1 RES1    0.0000
     40 C14        1.0936   -1.7877   16.7786 C.2       1 RES1    0.0000
     41 C15       -0.1561   -1.0165   17.0679 C.ar      1 RES1    0.0000
     42 C16       -1.0252   -1.5359   18.0197 C.ar      1 RES1    0.0000
     43 H24       -0.8179   -2.3465   18.4696 H         1 RES1    0.0000
     44 C17       -2.1943   -0.8565   18.3004 C.ar      1 RES1    0.0000
     45 C18       -2.5306    0.3335   17.6875 C.ar      1 RES1    0.0000
     46 H25       -3.3350    0.7941   17.8967 H         1 RES1    0.0000
     47 C19       -1.6326    0.8218   16.7511 C.ar      1 RES1    0.0000
     48 C20       -0.4550    0.1829   16.4246 C.ar      1 RES1    0.0000
     49 H26        0.1360    0.5506   15.7792 H         1 RES1    0.0000
     50 O4         1.3370   -2.8589   17.2754 O.2       1 RES1    0.0000
     51 N1        -1.9462    2.0959   16.0702 N.pl3     1 RES1    0.0000
     52 O5        -1.1356    2.5242   15.2576 O.2       1 RES1    0.0000
     53 O6        -2.9973    2.6571   16.3675 O.2       1 RES1    0.0000
     54 N2        -3.1151   -1.4436   19.2881 N.pl3     1 RES1    0.0000
     55 O7        -4.1355   -0.8235   19.5642 O.2       1 RES1    0.0000
     56 O8        -2.8204   -2.5295   19.7729 O.2       1 RES1    0.0000
@<TRIPOS>BOND
     1    1    2 1
     2    2    3 1
     3    4    2 1
     4    5    4 1
     5    6    4 1
     6    7    4 1
     7    8    1 1
     8    9    8 1
     9   10    9 1
    10   11    9 1
    11   12   11 1
    12   13   11 1
    13   14   11 1
    14   15   14 1
    15   16   14 1
    16   17   14 1
    17   18   17 1
    18   19    8 1
    19   20   19 1
    20   21   19 1
    21   22   17 1
    22   23   22 1
    23   24   22 1
    24   25   22 1
    25   26    9 1
    26   27   26 1
    27   28   26 1
    28   29   28 1
    29   30   28 1
    30   31   28 1
    31   32   26 1
    32   33   32 1
    33   34   32 1
    34   35   32 1
    35   36    2 1
    36   37   36 1
    37   38   36 1
    38   39   36 1
    39   40   39 1
    40   41   40 1
    41   42   41 ar
    42   43   42 1
    43   44   42 ar
    44   45   44 ar
    45   46   45 1
    46   47   45 ar
    47   48   41 ar
    48   49   48 1
    49   50   40 2
    50   51   47 1
    51   52   51 2
    52   53   51 2
    53   54   44 1
    54   55   54 2
    55   56   54 2
    56    7    8 1
    57   17   19 1
    58   47   48 ar
@<TRIPOS>SUBSTRUCTURE
     1 RES1 1

@<TRIPOS>CRYSIN
   9.4396    5.8825   19.6719  90.0000 103.9230  90.0000   4 1

