# MOL2 file generated by ConQuest
# Please check atom types

@<TRIPOS>MOLECULE
BOWDOH
    49    51     1
SMALL
NO_CHARGES
****
Generated from CSD

@<TRIPOS>ATOM
      1 O1         3.3400    5.5567   19.9050 O.2       1 RES1    0.0000
      2 O2         4.1846    7.1706   18.7659 O.2       1 RES1    0.0000
      3 O3         0.9487    6.9177   20.6572 O.3       1 RES1    0.0000
      4 H1         0.6691    7.4083   21.2526 H         1 RES1    0.0000
      5 N1        -0.1102    5.7914   17.4812 N.3       1 RES1    0.0000
      6 N2         3.2375    6.4528   19.0882 N.pl3     1 RES1    0.0000
      7 C1         1.1884    5.4439   18.0870 C.3       1 RES1    0.0000
      8 H2         1.0440    4.8942   18.8866 H         1 RES1    0.0000
      9 C2         1.8836    6.7629   18.4820 C.3       1 RES1    0.0000
     10 H3         2.0403    7.2703   17.6586 H         1 RES1    0.0000
     11 C3         1.0999    7.6741   19.4435 C.3       1 RES1    0.0000
     12 C4        -0.2640    7.8885   18.7713 C.3       1 RES1    0.0000
     13 H4        -0.8387    8.3899   19.3698 H         1 RES1    0.0000
     14 H5        -0.1430    8.4151   17.9661 H         1 RES1    0.0000
     15 C5        -0.9432    6.5776   18.4106 C.3       1 RES1    0.0000
     16 H6        -1.1017    6.0631   19.2171 H         1 RES1    0.0000
     17 H7        -1.8020    6.7619   17.9975 H         1 RES1    0.0000
     18 C6         2.0871    4.7059   17.1147 C.ar      1 RES1    0.0000
     19 C7         2.7717    3.5581   17.5295 C.ar      1 RES1    0.0000
     20 H8         2.6388    3.2360   18.3908 H         1 RES1    0.0000
     21 C8         3.6434    2.8926   16.6858 C.ar      1 RES1    0.0000
     22 H9         4.0953    2.1284   16.9640 H         1 RES1    0.0000
     23 C9         3.8231    3.4222   15.3783 C.ar      1 RES1    0.0000
     24 H10        4.4216    3.0104   14.7967 H         1 RES1    0.0000
     25 C10        3.1430    4.5126   14.9599 C.ar      1 RES1    0.0000
     26 H11        3.2566    4.8167   14.0896 H         1 RES1    0.0000
     27 C11        2.2649    5.1952   15.8193 C.ar      1 RES1    0.0000
     28 H12        1.8130    5.9554   15.5310 H         1 RES1    0.0000
     29 C12        1.7928    8.9940   19.7207 C.3       1 RES1    0.0000
     30 H13        2.6306    8.8289   20.1606 H         1 RES1    0.0000
     31 H14        1.2365    9.5347   20.2861 H         1 RES1    0.0000
     32 H15        1.9505    9.4531   18.8929 H         1 RES1    0.0000
     33 C13       -0.8313    4.6012   16.9299 C.3       1 RES1    0.0000
     34 H16       -0.1586    4.0716   16.4536 H         1 RES1    0.0000
     35 C14       -1.8487    5.0452   15.8762 C.3       1 RES1    0.0000
     36 H17       -2.5123    5.6040   16.2883 H         1 RES1    0.0000
     37 H18       -2.2722    4.2730   15.4954 H         1 RES1    0.0000
     38 H19       -1.3996    5.5376   15.1858 H         1 RES1    0.0000
     39 C15       -1.4363    3.6769   17.9701 C.ar      1 RES1    0.0000
     40 C16       -0.7415    2.5493   18.4171 C.ar      1 RES1    0.0000
     41 H20        0.0999    2.3650   18.0665 H         1 RES1    0.0000
     42 C17       -1.2805    1.6935   19.3782 C.ar      1 RES1    0.0000
     43 H21       -0.7919    0.9545   19.6627 H         1 RES1    0.0000
     44 C18       -2.5123    1.9281   19.9043 C.ar      1 RES1    0.0000
     45 H22       -2.8735    1.3471   20.5351 H         1 RES1    0.0000
     46 C19       -3.2126    3.0285   19.4956 C.ar      1 RES1    0.0000
     47 H23       -4.0531    3.1997   19.8552 H         1 RES1    0.0000
     48 C20       -2.6837    3.8894   18.5519 C.ar      1 RES1    0.0000
     49 H24       -3.1778    4.6344   18.2966 H         1 RES1    0.0000
@<TRIPOS>BOND
     1    1    6 2
     2    2    6 2
     3    3    4 1
     4    5    7 1
     5    6    9 1
     6    7    8 1
     7    9    7 1
     8   10    9 1
     9   11    3 1
    10   12   11 1
    11   13   12 1
    12   14   12 1
    13   15    5 1
    14   16   15 1
    15   17   15 1
    16   18    7 1
    17   19   18 ar
    18   20   19 1
    19   21   19 ar
    20   22   21 1
    21   23   21 ar
    22   24   23 1
    23   25   23 ar
    24   26   25 1
    25   27   18 ar
    26   28   27 1
    27   29   11 1
    28   30   29 1
    29   31   29 1
    30   32   29 1
    31   33    5 1
    32   34   33 1
    33   35   33 1
    34   36   35 1
    35   37   35 1
    36   38   35 1
    37   39   33 1
    38   40   39 ar
    39   41   40 1
    40   42   40 ar
    41   43   42 1
    42   44   42 ar
    43   45   44 1
    44   46   44 ar
    45   47   46 1
    46   48   39 ar
    47   49   48 1
    48    9   11 1
    49   12   15 1
    50   25   27 ar
    51   46   48 ar
@<TRIPOS>SUBSTRUCTURE
     1 RES1 1

@<TRIPOS>CRYSIN
   9.1658   10.0683   20.9200  90.0000  90.0000  90.0000  19 1

