# MOL2 file generated by ConQuest
# Please check atom types

@<TRIPOS>MOLECULE
BOWDUN
    53    55     1
SMALL
NO_CHARGES
****
Generated from CSD

@<TRIPOS>ATOM
      1 O1         6.9788   13.5282    3.5089 O.2       1 RES1    0.0000
      2 O2         8.5981   12.8655    2.2427 O.2       1 RES1    0.0000
      3 O3         9.6337   10.4080    3.1286 O.3       1 RES1    0.0000
      4 H1         9.7522   11.1166    2.7349 H         1 RES1    0.0000
      5 O4         2.9249    4.3717    4.3870 O.3       1 RES1    0.0000
      6 N1         6.3859    9.1798    2.4777 N.3       1 RES1    0.0000
      7 N2         7.6568   12.6538    3.0011 N.pl3     1 RES1    0.0000
      8 C1         6.8659   10.5048    2.0200 C.3       1 RES1    0.0000
      9 H2         7.6430   10.3786    1.4362 H         1 RES1    0.0000
     10 C2         7.3168   11.2195    3.3087 C.3       1 RES1    0.0000
     11 H3         6.5623   11.2157    3.9346 H         1 RES1    0.0000
     12 C3         8.5085   10.5310    4.0006 C.3       1 RES1    0.0000
     13 C4         8.0440    9.1054    4.2890 C.3       1 RES1    0.0000
     14 H4         8.7889    8.5915    4.6399 H         1 RES1    0.0000
     15 H5         7.3512    9.1268    4.9667 H         1 RES1    0.0000
     16 C5         7.5077    8.4239    3.0490 C.3       1 RES1    0.0000
     17 H6         8.2159    8.3489    2.3909 H         1 RES1    0.0000
     18 H7         7.2118    7.5288    3.2746 H         1 RES1    0.0000
     19 C6         5.8231   11.3214    1.2847 C.ar      1 RES1    0.0000
     20 C7         6.0937   11.7863    0.0049 C.ar      1 RES1    0.0000
     21 H8         6.8883   11.5415   -0.4128 H         1 RES1    0.0000
     22 C8         5.1988   12.6098   -0.6607 C.ar      1 RES1    0.0000
     23 H9         5.3985   12.9163   -1.5158 H         1 RES1    0.0000
     24 C9         4.0252   12.9717   -0.0636 C.ar      1 RES1    0.0000
     25 H10        3.4270   13.5279   -0.5096 H         1 RES1    0.0000
     26 C10        3.7318   12.5121    1.1963 C.ar      1 RES1    0.0000
     27 H11        2.9307   12.7568    1.6018 H         1 RES1    0.0000
     28 C11        4.6226   11.6834    1.8725 C.ar      1 RES1    0.0000
     29 H12        4.4099   11.3718    2.7220 H         1 RES1    0.0000
     30 C12        8.8997   11.2485    5.2922 C.3       1 RES1    0.0000
     31 H13        9.5973   10.7579    5.7321 H         1 RES1    0.0000
     32 H14        8.1352   11.3057    5.8697 H         1 RES1    0.0000
     33 H15        9.2110   12.1326    5.0849 H         1 RES1    0.0000
     34 C13        5.6368    8.4155    1.4448 C.3       1 RES1    0.0000
     35 H16        4.9445    9.0186    1.1008 H         1 RES1    0.0000
     36 C14        6.4686    7.9845    0.2415 C.3       1 RES1    0.0000
     37 H17        6.8614    8.7578   -0.1699 H         1 RES1    0.0000
     38 H18        5.9054    7.5368   -0.3935 H         1 RES1    0.0000
     39 H19        7.1638    7.3876    0.5289 H         1 RES1    0.0000
     40 C15        4.9073    7.2729    2.1365 C.ar      1 RES1    0.0000
     41 C16        5.3154    5.9493    2.0662 C.ar      1 RES1    0.0000
     42 H20        6.0350    5.7246    1.5222 H         1 RES1    0.0000
     43 C17        4.6723    4.9452    2.7929 C.ar      1 RES1    0.0000
     44 H21        4.9657    4.0640    2.7327 H         1 RES1    0.0000
     45 C18        3.6088    5.2639    3.5938 C.ar      1 RES1    0.0000
     46 C19        3.1459    6.5759    3.6347 C.ar      1 RES1    0.0000
     47 H22        2.4010    6.7896    4.1475 H         1 RES1    0.0000
     48 C20        3.7930    7.5586    2.9140 C.ar      1 RES1    0.0000
     49 H23        3.4751    8.4320    2.9499 H         1 RES1    0.0000
     50 C21        3.5142    3.1180    4.6175 C.3       1 RES1    0.0000
     51 H24        3.5053    2.6060    3.8056 H         1 RES1    0.0000
     52 H25        3.0195    2.6516    5.2956 H         1 RES1    0.0000
     53 H26        4.4205    3.2393    4.9086 H         1 RES1    0.0000
@<TRIPOS>BOND
     1    1    7 2
     2    2    7 2
     3    3    4 1
     4    5   45 1
     5    6    8 1
     6    7   10 1
     7    8    9 1
     8   10    8 1
     9   11   10 1
    10   12    3 1
    11   13   12 1
    12   14   13 1
    13   15   13 1
    14   16    6 1
    15   17   16 1
    16   18   16 1
    17   19    8 1
    18   20   19 ar
    19   21   20 1
    20   22   20 ar
    21   23   22 1
    22   24   22 ar
    23   25   24 1
    24   26   24 ar
    25   27   26 1
    26   28   19 ar
    27   29   28 1
    28   30   12 1
    29   31   30 1
    30   32   30 1
    31   33   30 1
    32   34    6 1
    33   35   34 1
    34   36   34 1
    35   37   36 1
    36   38   36 1
    37   39   36 1
    38   40   34 1
    39   41   40 ar
    40   42   41 1
    41   43   41 ar
    42   44   43 1
    43   45   43 ar
    44   46   45 ar
    45   47   46 1
    46   48   40 ar
    47   49   48 1
    48   50    5 1
    49   51   50 1
    50   52   50 1
    51   53   50 1
    52   10   12 1
    53   13   16 1
    54   26   28 ar
    55   46   48 ar
@<TRIPOS>SUBSTRUCTURE
     1 RES1 1

@<TRIPOS>CRYSIN
   8.1499   11.3900   21.5007  90.0000  90.0000  90.0000  19 1

