# MOL2 file generated by ConQuest
# Please check atom types

@<TRIPOS>MOLECULE
BOWHIE
    23    23     1
SMALL
NO_CHARGES
****
Generated from CSD

@<TRIPOS>ATOM
      1 C1         9.3720    2.4924   -0.1088 C.ar      1 RES1    0.0000
      2 C2         9.2276    3.5764    0.7485 C.ar      1 RES1    0.0000
      3 C3         9.7389    3.5591    2.0166 C.ar      1 RES1    0.0000
      4 C4        10.4506    2.4577    2.4858 C.ar      1 RES1    0.0000
      5 C5        10.6159    1.3839    1.6193 C.ar      1 RES1    0.0000
      6 C6        10.0899    1.3859    0.3519 C.ar      1 RES1    0.0000
      7 C7        11.0263    2.4394    3.8719 C.3       1 RES1    0.0000
      8 C8         8.8655    2.6362   -1.4956 C.2       1 RES1    0.0000
      9 C9         7.7972    1.6980   -3.4845 C.3       1 RES1    0.0000
     10 N1         8.3505    1.5980   -2.1545 N.am      1 RES1    0.0000
     11 O1         8.9448    3.7335   -2.0792 O.2       1 RES1    0.0000
     12 O2         7.9133    0.4813   -1.4245 O.3       1 RES1    0.0000
     13 H1         8.7316    4.3749    0.4265 H         1 RES1    0.0000
     14 H2         9.6185    4.2220    2.6372 H         1 RES1    0.0000
     15 H3        11.1080    0.5813    1.8908 H         1 RES1    0.0000
     16 H4        10.2205    0.6731   -0.2417 H         1 RES1    0.0000
     17 H5        11.9448    2.2028    4.0375 H         1 RES1    0.0000
     18 H6        10.4087    2.2130    4.5493 H         1 RES1    0.0000
     19 H7        10.9359    3.1920    4.1371 H         1 RES1    0.0000
     20 H8         6.9420    1.7439   -3.5257 H         1 RES1    0.0000
     21 H9         8.1079    2.4067   -3.9949 H         1 RES1    0.0000
     22 H10        8.0116    1.0402   -3.9238 H         1 RES1    0.0000
     23 H11        8.7007   -0.0612   -1.6136 H         1 RES1    0.0000
@<TRIPOS>BOND
     1    1    2 ar
     2    2    3 ar
     3    3    4 ar
     4    4    5 ar
     5    5    6 ar
     6    6    1 ar
     7    7    4 1
     8    8    1 1
     9    9   10 1
    10   10    8 1
    11   11    8 2
    12   12   10 1
    13   13    2 1
    14   14    3 1
    15   15    5 1
    16   16    6 1
    17   17    7 1
    18   18    7 1
    19   19    7 1
    20   20    9 1
    21   21    9 1
    22   22    9 1
    23   23   12 1
@<TRIPOS>SUBSTRUCTURE
     1 RES1 1

@<TRIPOS>CRYSIN
  12.1060   10.1980    7.2020  90.0000  99.2500  90.0000 231 1

