# MOL2 file generated by ConQuest
# Please check atom types

@<TRIPOS>MOLECULE
BOWHUR
    46    48     1
SMALL
NO_CHARGES
****
Generated from CSD

@<TRIPOS>ATOM
      1 O1         6.2278   -0.5128    2.6997 O.3       1 RES1    0.0000
      2 H1         6.2560   -0.7537    1.9162 H         1 RES1    0.0000
      3 O2         3.8063    1.2546    0.3851 O.2       1 RES1    0.0000
      4 O3         5.9054    1.6488    0.4769 O.2       1 RES1    0.0000
      5 N1         3.5992    2.1747    4.4848 N.3       1 RES1    0.0000
      6 N2         4.8242    1.4478    1.0038 N.pl3     1 RES1    0.0000
      7 C1         3.5668    2.1988    3.0102 C.3       1 RES1    0.0000
      8 H2         2.7474    1.7685    2.6881 H         1 RES1    0.0000
      9 C2         4.7948    1.4217    2.5134 C.3       1 RES1    0.0000
     10 H3         5.5896    1.8994    2.8292 H         1 RES1    0.0000
     11 C3         4.9111   -0.0427    3.0070 C.3       1 RES1    0.0000
     12 C4         4.8437    0.0521    4.5316 C.3       1 RES1    0.0000
     13 H4         4.8359   -0.8430    4.9063 H         1 RES1    0.0000
     14 H5         5.6380    0.5037    4.8569 H         1 RES1    0.0000
     15 C5         3.6212    0.7981    5.0055 C.3       1 RES1    0.0000
     16 H6         2.8242    0.3299    4.7101 H         1 RES1    0.0000
     17 H7         3.6137    0.8213    5.9759 H         1 RES1    0.0000
     18 C6         2.4389    2.8990    5.0391 C.3       1 RES1    0.0000
     19 H8         1.6387    2.3688    4.9006 H         1 RES1    0.0000
     20 H9         2.3276    3.7342    4.5578 H         1 RES1    0.0000
     21 C7         2.5855    3.1940    6.5121 C.ar      1 RES1    0.0000
     22 C8         3.6877    3.8705    6.9868 C.ar      1 RES1    0.0000
     23 H10        4.3744    4.0951    6.4006 H         1 RES1    0.0000
     24 C9         3.7891    4.2206    8.3216 C.ar      1 RES1    0.0000
     25 H11        4.5413    4.6737    8.6287 H         1 RES1    0.0000
     26 C10        2.7777    3.8985    9.1918 C.ar      1 RES1    0.0000
     27 H12        2.8385    4.1477   10.0863 H         1 RES1    0.0000
     28 C11        1.6852    3.2145    8.7510 C.ar      1 RES1    0.0000
     29 H13        1.0084    2.9862    9.3469 H         1 RES1    0.0000
     30 C12        1.5798    2.8565    7.4063 C.ar      1 RES1    0.0000
     31 H14        0.8330    2.3896    7.1090 H         1 RES1    0.0000
     32 C13        3.6309    3.6333    2.5063 C.ar      1 RES1    0.0000
     33 C14        2.6275    4.1524    1.7005 C.ar      1 RES1    0.0000
     34 H15        1.9131    3.6146    1.4435 H         1 RES1    0.0000
     35 C15        2.6887    5.4836    1.2735 C.ar      1 RES1    0.0000
     36 H16        2.0050    5.8318    0.7479 H         1 RES1    0.0000
     37 C16        3.7476    6.2780    1.6234 C.ar      1 RES1    0.0000
     38 H17        3.7887    7.1584    1.3278 H         1 RES1    0.0000
     39 C17        4.7510    5.7667    2.4155 C.ar      1 RES1    0.0000
     40 H18        5.4718    6.3033    2.6528 H         1 RES1    0.0000
     41 C18        4.6909    4.4581    2.8604 C.ar      1 RES1    0.0000
     42 H19        5.3694    4.1268    3.4035 H         1 RES1    0.0000
     43 C19        3.8704   -0.9922    2.4395 C.3       1 RES1    0.0000
     44 H20        3.9896   -1.0661    1.4901 H         1 RES1    0.0000
     45 H21        2.9916   -0.6533    2.6260 H         1 RES1    0.0000
     46 H22        3.9720   -1.8571    2.8433 H         1 RES1    0.0000
@<TRIPOS>BOND
     1    1    2 1
     2    3    6 2
     3    4    6 2
     4    5    7 1
     5    6    9 1
     6    7    8 1
     7    9    7 1
     8   10    9 1
     9   11    1 1
    10   12   11 1
    11   13   12 1
    12   14   12 1
    13   15    5 1
    14   16   15 1
    15   17   15 1
    16   18    5 1
    17   19   18 1
    18   20   18 1
    19   21   18 1
    20   22   21 ar
    21   23   22 1
    22   24   22 ar
    23   25   24 1
    24   26   24 ar
    25   27   26 1
    26   28   26 ar
    27   29   28 1
    28   30   21 ar
    29   31   30 1
    30   32    7 1
    31   33   32 ar
    32   34   33 1
    33   35   33 ar
    34   36   35 1
    35   37   35 ar
    36   38   37 1
    37   39   37 ar
    38   40   39 1
    39   41   32 ar
    40   42   41 1
    41   43   11 1
    42   44   43 1
    43   45   43 1
    44   46   43 1
    45    9   11 1
    46   12   15 1
    47   28   30 ar
    48   39   41 ar
@<TRIPOS>SUBSTRUCTURE
     1 RES1 1

@<TRIPOS>CRYSIN
   5.7787   10.6482   14.3895  86.8010  78.7490  78.6060   2 1

