# MOL2 file generated by ConQuest
# Please check atom types

@<TRIPOS>MOLECULE
BOWHIE01
    23    23     1
SMALL
NO_CHARGES
****
Generated from CSD

@<TRIPOS>ATOM
      1 C1         6.8321    7.5735    2.6902 C.ar      1 RES1    0.0000
      2 C2         5.9817    8.6753    2.6890 C.ar      1 RES1    0.0000
      3 C3         4.8003    8.6630    1.9676 C.ar      1 RES1    0.0000
      4 C4         4.4415    7.5500    1.2083 C.ar      1 RES1    0.0000
      5 C5         5.3088    6.4605    1.1952 C.ar      1 RES1    0.0000
      6 C6         6.4887    6.4564    1.9226 C.ar      1 RES1    0.0000
      7 C7         3.1566    7.5459    0.4146 C.3       1 RES1    0.0000
      8 C8         8.1311    7.7175    3.4140 C.2       1 RES1    0.0000
      9 C9         9.9324    6.7740    4.7869 C.3       1 RES1    0.0000
     10 N1         8.7018    6.6668    4.0165 N.am      1 RES1    0.0000
     11 O1         8.7172    8.8148    3.4303 O.2       1 RES1    0.0000
     12 O2         7.9082    5.5584    4.3545 O.3       1 RES1    0.0000
     13 H1         6.2077    9.4962    3.2102 H         1 RES1    0.0000
     14 H2         4.2200    9.4043    1.9309 H         1 RES1    0.0000
     15 H3         5.1085    5.6977    0.6634 H         1 RES1    0.0000
     16 H4         7.0832    5.6671    1.8835 H         1 RES1    0.0000
     17 H5         3.1820    6.9435   -0.3435 H         1 RES1    0.0000
     18 H6         2.4394    7.2804    0.9477 H         1 RES1    0.0000
     19 H7         3.1194    8.4649   -0.2014 H         1 RES1    0.0000
     20 H8        10.3492    5.9428    4.7384 H         1 RES1    0.0000
     21 H9         9.7560    7.0456    5.6742 H         1 RES1    0.0000
     22 H10       10.4742    7.4132    4.2527 H         1 RES1    0.0000
     23 H11        8.1506    4.9625    3.6959 H         1 RES1    0.0000
@<TRIPOS>BOND
     1    1    2 ar
     2    2    3 ar
     3    3    4 ar
     4    4    5 ar
     5    5    6 ar
     6    6    1 ar
     7    7    4 1
     8    8    1 1
     9    9   10 1
    10   10    8 1
    11   11    8 2
    12   12   10 1
    13   13    2 1
    14   14    3 1
    15   15    5 1
    16   16    6 1
    17   17    7 1
    18   18    7 1
    19   19    7 1
    20   20    9 1
    21   21    9 1
    22   22    9 1
    23   23   12 1
@<TRIPOS>SUBSTRUCTURE
     1 RES1 1

@<TRIPOS>CRYSIN
   7.1060   10.2110   11.9620  90.0000  97.9900  90.0000 231 1

