# MOL2 file generated by ConQuest
# Please check atom types

@<TRIPOS>MOLECULE
BOWJON
    54    53     2
SMALL
NO_CHARGES
****
Generated from CSD

@<TRIPOS>ATOM
      1 O1         0.6382   -0.5487    4.6019 O.2       1 RES1    0.0000
      2 O2        -0.8224   -1.2826    3.1946 O.2       1 RES1    0.0000
      3 O3        -1.1463    1.6376    2.1737 O.3       1 RES1    0.0000
      4 H1        -1.5451    2.1888    2.6315 H         1 RES1    0.0000
      5 N1         5.7163    1.6763   -4.4086 Du        2 SUP2    0.0000
      6 O4         5.1449    0.9663   -5.2161 O.2       1 RES1    0.0000
      7 O5         6.6730    2.3961   -4.6102 O.2       1 RES1    0.0000
      8 N2         5.7646    1.7547   -4.3649 N.pl3     1 RES1    0.0000
      9 O6         4.9277    1.6763   -5.2555 Du        2 SUP2    0.0000
     10 O7         6.8958    2.0838   -4.6625 Du        2 SUP2    0.0000
     11 N3         2.8311    0.8455    1.2834 N.3       1 RES1    0.0000
     12 N4         0.1429   -0.5984    3.4831 N.pl3     1 RES1    0.0000
     13 C1         2.2802    0.0521    2.3991 C.3       1 RES1    0.0000
     14 H2         2.6439    0.3781    3.2491 H         1 RES1    0.0000
     15 C2         0.7536    0.2337    2.3834 C.3       1 RES1    0.0000
     16 H3         0.4285   -0.1302    1.5328 H         1 RES1    0.0000
     17 C3         0.2544    1.6907    2.4738 C.3       1 RES1    0.0000
     18 C4         0.9658    2.4287    1.3363 C.3       1 RES1    0.0000
     19 H4         0.6406    2.0922    0.4864 H         1 RES1    0.0000
     20 H5         0.7475    3.3721    1.3846 H         1 RES1    0.0000
     21 C5         2.4665    2.2646    1.3918 C.3       1 RES1    0.0000
     22 H6         2.8741    2.7615    0.6656 H         1 RES1    0.0000
     23 H7         2.8014    2.6229    2.2283 H         1 RES1    0.0000
     24 C6         2.6075   -1.4275    2.2311 C.ar      1 RES1    0.0000
     25 C7         3.2361   -2.1333    3.2410 C.ar      1 RES1    0.0000
     26 H8         3.4705   -1.7057    4.0321 H         1 RES1    0.0000
     27 C8         3.5179   -3.4925    3.0688 C.ar      1 RES1    0.0000
     28 H9         3.9426   -3.9659    3.7472 H         1 RES1    0.0000
     29 C9         3.1722   -4.1310    1.9051 C.ar      1 RES1    0.0000
     30 H10        3.3695   -5.0330    1.7952 H         1 RES1    0.0000
     31 C10        2.5373   -3.4433    0.9035 C.ar      1 RES1    0.0000
     32 H11        2.2957   -3.8819    0.1195 H         1 RES1    0.0000
     33 C11        2.2562   -2.0922    1.0593 C.ar      1 RES1    0.0000
     34 H12        1.8304   -1.6272    0.3755 H         1 RES1    0.0000
     35 C12        0.4800    2.3596    3.8195 C.3       1 RES1    0.0000
     36 H13        0.2101    3.2797    3.7686 H         1 RES1    0.0000
     37 H14        1.4118    2.3120    4.0481 H         1 RES1    0.0000
     38 H15       -0.0379    1.9101    4.4907 H         1 RES1    0.0000
     39 C13        4.2827    0.6487    1.0784 C.3       1 RES1    0.0000
     40 H16        4.4331   -0.3179    1.1403 H         1 RES1    0.0000
     41 C14        5.1791    1.2799    2.1510 C.3       1 RES1    0.0000
     42 H17        5.1391    2.2364    2.0790 H         1 RES1    0.0000
     43 H18        6.0846    0.9873    2.0246 H         1 RES1    0.0000
     44 H19        4.8745    1.0111    3.0208 H         1 RES1    0.0000
     45 C15        4.6430    1.0354   -0.3534 C.ar      1 RES1    0.0000
     46 C16        3.7942    0.6636   -1.3987 C.ar      1 RES1    0.0000
     47 H20        2.9868    0.2465   -1.2053 H         1 RES1    0.0000
     48 C17        4.1346    0.9053   -2.7160 C.ar      1 RES1    0.0000
     49 H21        3.5626    0.6596   -3.4070 H         1 RES1    0.0000
     50 C18        5.3380    1.5186   -2.9859 C.ar      1 RES1    0.0000
     51 C19        6.1888    1.9353   -1.9889 C.ar      1 RES1    0.0000
     52 H22        6.9860    2.3694   -2.1920 H         1 RES1    0.0000
     53 C20        5.8260    1.6900   -0.6677 C.ar      1 RES1    0.0000
     54 H23        6.3880    1.9703    0.0181 H         1 RES1    0.0000
@<TRIPOS>BOND
     1    1   12 2
     2    2   12 2
     3    3    4 1
     4    6    8 2
     5    7    8 2
     6    8   50 1
     7   11   13 1
     8   12   15 1
     9   13   14 1
    10   15   13 1
    11   16   15 1
    12   17    3 1
    13   18   17 1
    14   19   18 1
    15   20   18 1
    16   21   11 1
    17   22   21 1
    18   23   21 1
    19   24   13 1
    20   25   24 ar
    21   26   25 1
    22   27   25 ar
    23   28   27 1
    24   29   27 ar
    25   30   29 1
    26   31   29 ar
    27   32   31 1
    28   33   24 ar
    29   34   33 1
    30   35   17 1
    31   36   35 1
    32   37   35 1
    33   38   35 1
    34   39   11 1
    35   40   39 1
    36   41   39 1
    37   42   41 1
    38   43   41 1
    39   44   41 1
    40   45   39 1
    41   46   45 ar
    42   47   46 1
    43   48   46 ar
    44   49   48 1
    45   50   48 ar
    46   51   50 ar
    47   52   51 1
    48   53   45 ar
    49   54   53 1
    50   15   17 1
    51   18   21 1
    52   31   33 ar
    53   51   53 ar
@<TRIPOS>SUBSTRUCTURE
     1 RES1 1
     2 SUP2 5

@<TRIPOS>CRYSIN
  13.0395   14.0038   10.7809  90.0000  98.3430  90.0000  14 1

