# MOL2 file generated by ConQuest
# Please check atom types

@<TRIPOS>MOLECULE
BOWSIP
    27    27     1
SMALL
NO_CHARGES
****
Generated from CSD

@<TRIPOS>ATOM
      1 C1         3.6996    6.6117    9.9475 C.ar      1 RES1    0.0000
      2 C2         4.7505    5.7182    9.9429 C.ar      1 RES1    0.0000
      3 C3         4.9051    4.8940    8.8619 C.ar      1 RES1    0.0000
      4 C4         4.0052    4.9189    7.8126 C.ar      1 RES1    0.0000
      5 C5         2.9710    5.8363    7.8312 C.ar      1 RES1    0.0000
      6 C6         2.8282    6.6688    8.8926 C.ar      1 RES1    0.0000
      7 N1         3.5022    7.4507   11.1188 N.pl3     1 RES1    0.0000
      8 O1         4.1981    7.2773   12.1020 O.2       1 RES1    0.0000
      9 O2         2.6266    8.2934   11.0909 O.2       1 RES1    0.0000
     10 N2         4.1402    4.0144    6.7735 N.3       1 RES1    0.0000
     11 N3         3.2297    4.0107    5.7810 N.2       1 RES1    0.0000
     12 C7         3.2914    3.1035    4.8611 C.2       1 RES1    0.0000
     13 C8         2.2055    3.1892    3.8611 C.2       1 RES1    0.0000
     14 O3         2.1144    2.3373    2.9859 O.2       1 RES1    0.0000
     15 C9         4.3166    2.0238    4.7661 C.3       1 RES1    0.0000
     16 C10        1.2073    4.3030    3.9356 C.3       1 RES1    0.0000
     17 H1         5.6399    4.3408    8.8647 H         1 RES1    0.0000
     18 H2         5.3110    5.7256   10.6393 H         1 RES1    0.0000
     19 H3         2.1946    7.2082    8.9168 H         1 RES1    0.0000
     20 H4         2.3584    5.9183    7.1711 H         1 RES1    0.0000
     21 H5         4.7303    3.4842    6.8471 H         1 RES1    0.0000
     22 H6         4.2105    1.5997    3.9217 H         1 RES1    0.0000
     23 H7         4.0552    1.4254    5.4561 H         1 RES1    0.0000
     24 H8         5.1897    2.2654    4.9784 H         1 RES1    0.0000
     25 H9         1.0712    4.7271    4.7745 H         1 RES1    0.0000
     26 H10        0.4249    3.8208    3.6935 H         1 RES1    0.0000
     27 H11        1.3897    4.9604    3.2746 H         1 RES1    0.0000
@<TRIPOS>BOND
     1    1    2 ar
     2    2    3 ar
     3    3    4 ar
     4    4    5 ar
     5    5    6 ar
     6    6    1 ar
     7    7    1 1
     8    8    7 2
     9    9    7 2
    10   10    4 1
    11   11   10 1
    12   12   11 2
    13   13   12 1
    14   14   13 2
    15   15   12 1
    16   16   13 1
    17   17    3 1
    18   18    2 1
    19   19    6 1
    20   20    5 1
    21   21   10 1
    22   22   15 1
    23   23   15 1
    24   24   15 1
    25   25   16 1
    26   26   16 1
    27   27   16 1
@<TRIPOS>SUBSTRUCTURE
     1 RES1 1

@<TRIPOS>CRYSIN
  12.4740    9.2200   10.0490  90.0000 112.1000  90.0000 231 1

