# MOL2 file generated by ConQuest
# Please check atom types

@<TRIPOS>MOLECULE
BOWXOB
    61    61     1
SMALL
USER_CHARGES
****
Generated from CSD

@<TRIPOS>ATOM
      1 O1         7.8388    8.1594    1.8718 O.3       1 RES1    0.0000
      2 O2         6.6338    8.2331    3.8732 O.3       1 RES1    0.0000
      3 N1         6.6806    9.6156    4.0278 N.2       1 RES1    0.0000
      4 N2         6.9024    9.8427    5.2638 N.pl3     1 RES1    1.0000
      5 C1         6.5929    7.9702    2.4618 C.3       1 RES1    0.0000
      6 H1         5.9329    8.5883    2.0350 H         1 RES1    0.0000
      7 N3         6.9764   11.2660    5.4847 N.3       1 RES1    0.0000
      8 O3         7.0603    9.0293    6.1782 O.2       1 RES1   -1.0000
      9 C2         8.3535   11.5782    5.9175 C.3       1 RES1    0.0000
     10 H2         8.5462   11.0960    6.7587 H         1 RES1    0.0000
     11 H3         8.4231   12.5494    6.1026 H         1 RES1    0.0000
     12 C3         5.9748   11.6481    6.5034 C.3       1 RES1    0.0000
     13 H4         6.0667   12.6125    6.7086 H         1 RES1    0.0000
     14 H5         6.1416   11.1392    7.3360 H         1 RES1    0.0000
     15 C4         9.3783   11.1991    4.8871 C.3       1 RES1    0.0000
     16 H6        10.2693   11.4552    5.2032 H         1 RES1    0.0000
     17 H7         9.1839   11.6636    4.0461 H         1 RES1    0.0000
     18 H8         9.3498   10.2313    4.7404 H         1 RES1    0.0000
     19 C5         4.5746   11.3709    6.0201 C.3       1 RES1    0.0000
     20 H9         3.9324   11.6314    6.7134 H         1 RES1    0.0000
     21 H10        4.4791   10.4142    5.8283 H         1 RES1    0.0000
     22 H11        4.4024   11.8864    5.2032 H         1 RES1    0.0000
     23 O4         5.6789    6.3146    1.0046 O.3       1 RES1    0.0000
     24 C6         6.0695    6.5461    2.3671 C.3       1 RES1    0.0000
     25 H12        5.2783    6.4365    2.9678 H         1 RES1    0.0000
     26 C7         4.4910    5.6652    0.8524 C.2       1 RES1    0.0000
     27 O5         3.7987    5.3308    1.7764 O.2       1 RES1    0.0000
     28 C8         4.1821    5.4311   -0.5852 C.3       1 RES1    0.0000
     29 H13        3.3205    4.9699   -0.6632 H         1 RES1    0.0000
     30 H14        4.8858    4.8778   -0.9853 H         1 RES1    0.0000
     31 H15        4.1357    6.2902   -1.0545 H         1 RES1    0.0000
     32 O6         6.7007    4.2346    2.3883 O.3       1 RES1    0.0000
     33 C9         7.1468    5.5493    2.7493 C.3       1 RES1    0.0000
     34 H16        7.3100    5.5907    3.7360 H         1 RES1    0.0000
     35 C10        6.4074    3.3815    3.3748 C.2       1 RES1    0.0000
     36 C11        5.8304    2.1117    2.8335 C.3       1 RES1    0.0000
     37 H17        5.5084    1.5565    3.5738 H         1 RES1    0.0000
     38 H18        6.5207    1.6252    2.3380 H         1 RES1    0.0000
     39 H19        5.0838    2.3214    2.2354 H         1 RES1    0.0000
     40 O7         6.6134    3.6242    4.5180 O.2       1 RES1    0.0000
     41 O8         9.4302    4.9276    2.4971 O.3       1 RES1    0.0000
     42 C12        8.4351    5.8373    2.0047 C.3       1 RES1    0.0000
     43 H20        8.3054    5.7159    1.0211 H         1 RES1    0.0000
     44 C13       10.7938    3.0379    2.3373 C.3       1 RES1    0.0000
     45 H21       11.1336    2.3791    1.6962 H         1 RES1    0.0000
     46 H22       10.2560    2.5830    3.0179 H         1 RES1    0.0000
     47 H23       11.5465    3.4943    2.7674 H         1 RES1    0.0000
     48 O9         9.7190    4.0553    0.4528 O.2       1 RES1    0.0000
     49 C14        9.9509    4.0342    1.6247 C.2       1 RES1    0.0000
     50 C15        8.8678    7.2628    2.3146 C.3       1 RES1    0.0000
     51 H24        9.0028    7.3666    3.2994 H         1 RES1    0.0000
     52 O10       10.5811    8.8940    2.1259 O.3       1 RES1    0.0000
     53 C16       10.1380    7.6315    1.5863 C.3       1 RES1    0.0000
     54 H25       10.8286    6.9365    1.7249 H         1 RES1    0.0000
     55 H26        9.9661    7.7136    0.6155 H         1 RES1    0.0000
     56 O11       12.5978    8.5210    1.2289 O.2       1 RES1    0.0000
     57 C17       11.8569    9.2221    1.8310 C.2       1 RES1    0.0000
     58 C18       12.2092   10.5805    2.3480 C.3       1 RES1    0.0000
     59 H27       12.1209   10.5916    3.3233 H         1 RES1    0.0000
     60 H28       11.6036   11.2456    1.9587 H         1 RES1    0.0000
     61 H29       13.1332   10.7944    2.1018 H         1 RES1    0.0000
@<TRIPOS>BOND
     1    1    5 1
     2    2    3 1
     3    3    4 2
     4    4    7 1
     5    5    2 1
     6    6    5 1
     7    7    9 1
     8    8    4 1
     9    9   10 1
    10   11    9 1
    11   12    7 1
    12   13   12 1
    13   14   12 1
    14   15    9 1
    15   16   15 1
    16   17   15 1
    17   18   15 1
    18   19   12 1
    19   20   19 1
    20   21   19 1
    21   22   19 1
    22   23   24 1
    23   24    5 1
    24   25   24 1
    25   26   23 1
    26   27   26 2
    27   28   26 1
    28   29   28 1
    29   30   28 1
    30   31   28 1
    31   32   33 1
    32   33   24 1
    33   34   33 1
    34   35   32 1
    35   36   35 1
    36   37   36 1
    37   38   36 1
    38   39   36 1
    39   40   35 2
    40   41   42 1
    41   42   33 1
    42   43   42 1
    43   44   45 1
    44   46   44 1
    45   47   44 1
    46   48   49 2
    47   49   41 1
    48   50    1 1
    49   51   50 1
    50   52   53 1
    51   53   50 1
    52   54   53 1
    53   55   53 1
    54   56   57 2
    55   57   52 1
    56   58   57 1
    57   59   58 1
    58   60   58 1
    59   61   58 1
    60   42   50 1
    61   44   49 1
@<TRIPOS>SUBSTRUCTURE
     1 RES1 1

@<TRIPOS>CRYSIN
   8.9190   11.0860   23.8570  90.0000  90.0000  90.0000  19 1

