# MOL2 file generated by ConQuest
# Please check atom types

@<TRIPOS>MOLECULE
BOWYOC
    36    38     1
SMALL
NO_CHARGES
****
Generated from CSD

@<TRIPOS>ATOM
      1 N1         6.9014    4.1428   10.4090 N.ar      1 RES1    0.0000
      2 N2         4.9968    4.9254   11.6584 N.ar      1 RES1    0.0000
      3 N3         7.0984    4.8008   12.6258 N.3       1 RES1    0.0000
      4 N4         8.0103    3.3424   14.8415 N.pl3     1 RES1    0.0000
      5 N5         8.6177    3.3265   17.1495 N.pl3     1 RES1    0.0000
      6 N6         9.5584    1.3290   17.4553 N.2       1 RES1    0.0000
      7 N7         9.0143    0.2892   15.3426 N.pl3     1 RES1    0.0000
      8 O1         8.2943    0.3309   14.3329 O.2       1 RES1    0.0000
      9 O2         9.6675   -0.7093   15.6604 O.2       1 RES1    0.0000
     10 C1         6.3061    4.6048   11.5327 C.ar      1 RES1    0.0000
     11 C2         6.1167    4.0537    9.3376 C.ar      1 RES1    0.0000
     12 H1         6.4937    3.7202    8.5324 H         1 RES1    0.0000
     13 C3         4.7823    4.4195    9.3311 C.ar      1 RES1    0.0000
     14 H2         4.2511    4.3809    8.5441 H         1 RES1    0.0000
     15 C4         4.2721    4.8455   10.5457 C.ar      1 RES1    0.0000
     16 H3         3.3556    5.0942   10.5867 H         1 RES1    0.0000
     17 C5         6.5279    5.0539   13.9482 C.3       1 RES1    0.0000
     18 H4         5.5831    5.3347   13.8572 H         1 RES1    0.0000
     19 H5         7.0267    5.7827   14.3950 H         1 RES1    0.0000
     20 C6         6.6115    3.7848   14.7823 C.3       1 RES1    0.0000
     21 H6         6.2754    3.9601   15.6962 H         1 RES1    0.0000
     22 H7         6.0516    3.0766   14.3760 H         1 RES1    0.0000
     23 C7         8.6037    3.0909   13.5267 C.3       1 RES1    0.0000
     24 H8         8.1297    2.3456   13.0806 H         1 RES1    0.0000
     25 H9         9.5557    2.8376   13.6287 H         1 RES1    0.0000
     26 C8         8.4913    4.3586   12.6822 C.3       1 RES1    0.0000
     27 H10        9.0515    5.0725   13.0777 H         1 RES1    0.0000
     28 H11        8.8214    4.1790   11.7663 H         1 RES1    0.0000
     29 C9         8.4752    2.6747   15.9473 C.2       1 RES1    0.0000
     30 C10        8.2110    4.6964   17.4496 C.3       1 RES1    0.0000
     31 H12        8.4251    5.2752   16.6882 H         1 RES1    0.0000
     32 H13        8.6893    5.0129   18.2443 H         1 RES1    0.0000
     33 H14        7.2465    4.7213   17.6172 H         1 RES1    0.0000
     34 C11        9.2688    2.4800   18.0040 C.2       1 RES1    0.0000
     35 H15        9.4878    2.7045   18.9008 H         1 RES1    0.0000
     36 C12        9.0475    1.4284   16.1912 C.2       1 RES1    0.0000
@<TRIPOS>BOND
     1    1   10 ar
     2    2   10 ar
     3    3   10 1
     4    4   20 1
     5    5   29 1
     6    6   34 2
     7    7    8 2
     8    9    7 2
     9   11    1 ar
    10   12   11 1
    11   13   11 ar
    12   14   13 1
    13   15    2 ar
    14   16   15 1
    15   17    3 1
    16   18   17 1
    17   19   17 1
    18   20   17 1
    19   21   20 1
    20   22   20 1
    21   23    4 1
    22   24   23 1
    23   25   23 1
    24   26    3 1
    25   27   26 1
    26   28   26 1
    27   29    4 1
    28   30    5 1
    29   31   30 1
    30   32   30 1
    31   33   30 1
    32   34    5 1
    33   35   34 1
    34   36    6 1
    35    7   36 1
    36   13   15 ar
    37   23   26 1
    38   29   36 2
@<TRIPOS>SUBSTRUCTURE
     1 RES1 1

@<TRIPOS>CRYSIN
  11.3920    7.7360   14.6800  90.0000  93.4820  90.0000  14 1

