# MOL2 file generated by ConQuest
# Please check atom types

@<TRIPOS>MOLECULE
BOYCOI
    42    43     1
SMALL
NO_CHARGES
****
Generated from CSD

@<TRIPOS>ATOM
      1 N1         2.6360    8.1516    1.0978 N.pl3     1 RES1    0.0000
      2 H1         2.8701    8.9588    1.2797 H         1 RES1    0.0000
      3 C1         2.9379    7.1585    2.0137 C.2       1 RES1    0.0000
      4 C2         2.8818    5.8588    1.6267 C.2       1 RES1    0.0000
      5 C3         2.6964    5.5343    0.1368 C.3       1 RES1    0.0000
      6 H2         2.1595    4.7159    0.0784 H         1 RES1    0.0000
      7 C4         1.9259    6.6383   -0.5572 C.2       1 RES1    0.0000
      8 C5         1.9761    7.9117   -0.0934 C.2       1 RES1    0.0000
      9 C6         1.3652    9.1237   -0.7224 C.3       1 RES1    0.0000
     10 H3         1.8296    9.3298   -1.5366 H         1 RES1    0.0000
     11 H4         1.4341    9.8664   -0.1185 H         1 RES1    0.0000
     12 H5         0.4400    8.9528   -0.9143 H         1 RES1    0.0000
     13 C7         3.3199    7.7251    3.3551 C.3       1 RES1    0.0000
     14 H6         2.5762    7.6471    3.9574 H         1 RES1    0.0000
     15 H7         3.5566    8.6500    3.2550 H         1 RES1    0.0000
     16 H8         4.0695    7.2387    3.7055 H         1 RES1    0.0000
     17 C8         2.9949    4.6731    2.4725 C.2       1 RES1    0.0000
     18 O1         2.9846    3.5579    1.9587 O.2       1 RES1    0.0000
     19 C9         3.0743    4.7466    3.9691 C.3       1 RES1    0.0000
     20 H9         3.0808    3.8584    4.3328 H         1 RES1    0.0000
     21 H10        2.3125    5.2255    4.3061 H         1 RES1    0.0000
     22 H11        3.8788    5.2030    4.2244 H         1 RES1    0.0000
     23 C10        1.1412    6.2861   -1.7468 C.2       1 RES1    0.0000
     24 O2         0.5123    7.0633   -2.4425 O.2       1 RES1    0.0000
     25 O3         1.1711    4.9729   -2.0004 O.3       1 RES1    0.0000
     26 C11        0.4239    4.5262   -3.1266 C.3       1 RES1    0.0000
     27 H12       -0.4915    4.7975   -3.0298 H         1 RES1    0.0000
     28 H13        0.4706    3.5691   -3.1816 H         1 RES1    0.0000
     29 H14        0.7894    4.9107   -3.9257 H         1 RES1    0.0000
     30 C12        4.0275    5.2600   -0.5439 C.ar      1 RES1    0.0000
     31 C13        4.9713    6.2546   -0.7241 C.ar      1 RES1    0.0000
     32 H15        4.7974    7.1105   -0.4054 H         1 RES1    0.0000
     33 C14        6.1632    6.0035   -1.3681 C.ar      1 RES1    0.0000
     34 H16        6.7773    6.6930   -1.4765 H         1 RES1    0.0000
     35 C15        6.4590    4.7571   -1.8486 C.ar      1 RES1    0.0000
     36 H17        7.2641    4.5862   -2.2807 H         1 RES1    0.0000
     37 C16        5.5245    3.7707   -1.6717 C.ar      1 RES1    0.0000
     38 C17        4.3213    3.9941   -1.0327 C.ar      1 RES1    0.0000
     39 H18        3.7116    3.3000   -0.9310 H         1 RES1    0.0000
     40 N2         5.7750    2.4404   -2.2156 N.pl3     1 RES1    0.0000
     41 O4         6.8340    2.2148   -2.7712 O.2       1 RES1    0.0000
     42 O5         4.8871    1.6047   -2.1422 O.2       1 RES1    0.0000
@<TRIPOS>BOND
     1    1    2 1
     2    3    1 1
     3    4    3 2
     4    5    4 1
     5    6    5 1
     6    7    5 1
     7    8    1 1
     8    9    8 1
     9   10    9 1
    10   11    9 1
    11   12    9 1
    12   13    3 1
    13   14   13 1
    14   15   13 1
    15   16   13 1
    16   17    4 1
    17   18   17 2
    18   19   17 1
    19   20   19 1
    20   21   19 1
    21   22   19 1
    22   23    7 1
    23   24   23 2
    24   25   23 1
    25   26   25 1
    26   27   26 1
    27   28   26 1
    28   29   26 1
    29   30    5 1
    30   31   30 ar
    31   32   31 1
    32   33   31 ar
    33   34   33 1
    34   35   33 ar
    35   36   35 1
    36   37   35 ar
    37   38   30 ar
    38   39   38 1
    39   40   37 1
    40   41   40 2
    41   42   40 2
    42    7    8 2
    43   37   38 ar
@<TRIPOS>SUBSTRUCTURE
     1 RES1 1

@<TRIPOS>CRYSIN
  12.8600    7.4950   16.7340  90.0000  94.4360  90.0000  14 1

