# MOL2 file generated by ConQuest
# Please check atom types

@<TRIPOS>MOLECULE
BOZDOK
    51    45     2
SMALL
NO_CHARGES
****
Generated from CSD

@<TRIPOS>ATOM
      1 O1         9.0057   -0.3136    1.8302 O.3       1 RES1    0.0000
      2 O2         5.2336    0.3649   -1.6938 O.3       1 RES1    0.0000
      3 O3         5.5099   -1.8690   -1.6589 O.2       1 RES1    0.0000
      4 O4         3.1546    0.8860    0.9940 O.2       1 RES1    0.0000
      5 N1         4.4992   -0.8758    1.3617 N.am      1 RES1    0.0000
      6 H1         4.5987   -1.7709    1.5998 H         1 RES1    0.0000
      7 N2         8.6887    0.9636    2.3686 N.2       1 RES1    0.0000
      8 C1         7.4567    0.9864    2.6991 C.2       1 RES1    0.0000
      9 C2         6.7079   -0.2828    2.4103 C.3       1 RES1    0.0000
     10 H2         6.2590   -0.6523    3.2230 H         1 RES1    0.0000
     11 C3         5.7204   -0.0855    1.2275 C.3       1 RES1    0.0000
     12 H3         5.4788    0.8826    1.1585 H         1 RES1    0.0000
     13 C4         6.5781   -0.4835    0.0038 C.3       1 RES1    0.0000
     14 H4         7.1846    0.2817   -0.2130 H         1 RES1    0.0000
     15 C5         7.4302   -1.6375    0.5103 C.3       1 RES1    0.0000
     16 H5         6.9081   -2.4779    0.5436 H         1 RES1    0.0000
     17 H6         8.2257   -1.7720   -0.0629 H         1 RES1    0.0000
     18 C6         7.8302   -1.1848    1.9038 C.3       1 RES1    0.0000
     19 H7         7.9843   -1.9613    2.5149 H         1 RES1    0.0000
     20 C7         6.8476    2.1974    3.3239 C.3       1 RES1    0.0000
     21 H8         6.5960    1.9955    4.2496 H         1 RES1    0.0000
     22 H9         6.0510    2.4596    2.8182 H         1 RES1    0.0000
     23 H10        7.4965    2.9317    3.3148 H         1 RES1    0.0000
     24 C8         5.7382   -0.7720   -1.2040 C.2       1 RES1    0.0000
     25 C9         4.2217    0.2486   -2.7348 C.3       1 RES1    0.0000
     26 H11        3.4500   -0.2794   -2.4080 H         1 RES1    0.0000
     27 H12        4.5977   -0.2018   -3.5324 H         1 RES1    0.0000
     28 C10        3.7942    1.6375   -3.0752 C.3       1 RES1    0.0000
     29 H13        3.4567    2.0822   -2.2700 H         1 RES1    0.0000
     30 H14        3.0872    1.6055   -3.7515 H         1 RES1    0.0000
     31 H15        4.5604    2.1369   -3.4277 H         1 RES1    0.0000
     32 C11        3.2753   -0.3079    1.2457 C.2       1 RES1    0.0000
     33 C12        2.0731   -1.1699    1.4724 C.ar      1 RES1    0.0000
     34 C13        0.8256   -0.5667    1.1979 C.ar      1 RES1    0.0000
     35 H16        0.7816    0.3341    0.9007 H         1 RES1    0.0000
     36 C14       -0.3377   -1.3034    1.3723 C.ar      1 RES1    0.0000
     37 H17       -1.1819   -0.9122    1.1775 H         1 RES1    0.0000
     38 C15       -0.2657   -2.6261    1.8318 C.ar      1 RES1    0.0000
     39 H18       -1.1160   -3.1016    1.9637 H         1 RES1    0.0000
     40 C16        0.9501   -3.1780    2.0547 C.ar      1 RES1    0.0000
     41 H19        1.0194   -4.1028    2.2586 H         1 RES1    0.0000
     42 C17        2.0951   -2.5588    1.4102 C.ar      1 RES1    0.0000
     43 H20        2.9232   -3.0195    1.3389 H         1 RES1    0.0000
     44 C18        0.9371   -0.5781    1.9637 Du        2 SUP2    0.0000
     45 C19       -0.2168   -1.3079    2.1532 Du        2 SUP2    0.0000
     46 C20        0.9003   -3.2727    1.4405 Du        2 SUP2    0.0000
     47 C21        2.1031   -2.3946    1.9864 Du        2 SUP2    0.0000
     48 H21        0.9460    0.3478    2.1722 Du        2 SUP2    0.0000
     49 H22       -0.9871   -0.8826    2.5103 Du        2 SUP2    0.0000
     50 H23        0.8818   -4.1883    1.1987 Du        2 SUP2    0.0000
     51 H24        2.9257   -2.7413    2.3117 Du        2 SUP2    0.0000
@<TRIPOS>BOND
     1    1    7 1
     2    2   24 1
     3    3   24 2
     4    4   32 2
     5    5    6 1
     6    7    8 2
     7    8    9 1
     8    9   10 1
     9   11    5 1
    10   12   11 1
    11   13   11 1
    12   14   13 1
    13   15   13 1
    14   16   15 1
    15   17   15 1
    16   18    1 1
    17   19   18 1
    18   20    8 1
    19   21   20 1
    20   22   20 1
    21   23   20 1
    22   24   13 1
    23   25    2 1
    24   26   25 1
    25   27   25 1
    26   28   25 1
    27   29   28 1
    28   30   28 1
    29   31   28 1
    30   32    5 1
    31   33   32 1
    32   34   33 ar
    33   35   34 1
    34   36   34 ar
    35   37   36 1
    36   38   36 ar
    37   39   38 1
    38   40   38 ar
    39   41   40 1
    40   42   33 ar
    41   43   42 1
    42    9   11 1
    43    9   18 1
    44   15   18 1
    45   40   42 ar
@<TRIPOS>SUBSTRUCTURE
     1 RES1 1
     2 SUP2 44

@<TRIPOS>CRYSIN
  18.1690   11.4030    7.6170  90.0000  95.5100  90.0000  14 1

