# MOL2 file generated by ConQuest
# Please check atom types

@<TRIPOS>MOLECULE
BUAGLN10
    85    84     1
SMALL
NO_CHARGES
****
Generated from CSD

@<TRIPOS>ATOM
      1 C1         3.0877   30.3021    3.0859 C.3       1 RES1    0.0000
      2 C2         4.2749   30.3431    2.1913 C.2       1 RES1    0.0000
      3 C3         5.5267   30.8885    2.5789 C.2       1 RES1    0.0000
      4 C4         5.7084   31.4338    3.9989 C.3       1 RES1    0.0000
      5 C5         6.3125   32.8419    4.0343 C.3       1 RES1    0.0000
      6 C6         5.5323   33.8727    3.2184 C.3       1 RES1    0.0000
      7 C7         5.9982   35.2920    3.5258 C.3       1 RES1    0.0000
      8 C8         5.2268   36.4275    2.8439 C.3       1 RES1    0.0000
      9 C9         5.8711   37.7310    3.1829 C.3       1 RES1    0.0000
     10 N1         4.1099   29.8352    0.9593 N.3       1 RES1    0.0000
     11 C10        2.9305   29.0994    0.4746 C.3       1 RES1    0.0000
     12 C11        2.0265   29.9696   -0.3845 C.3       1 RES1    0.0000
     13 C12        0.8427   29.1517   -0.9269 C.3       1 RES1    0.0000
     14 C13       -0.0959   29.9248   -1.8045 C.3       1 RES1    0.0000
     15 O1         7.8085   31.1424    2.2622 O.3       1 RES1    0.0000
     16 O2         6.6169   30.4029    0.5193 O.2       1 RES1    0.0000
     17 C14        6.6224   30.7540    1.6959 C.2       1 RES1    0.0000
     18 C15        9.0257   30.9146    1.4986 C.3       1 RES1    0.0000
     19 C16       10.1282   31.3591    2.2622 C.3       1 RES1    0.0000
     20 O3         4.8969   29.0546    5.5222 O.2       1 RES1    0.0000
     21 O4         6.5689   28.2403    4.4504 O.2       1 RES1    0.0000
     22 N2         5.9781   29.1367    4.9520 N.pl3     1 RES1    0.0000
     23 C17        6.5990   30.5112    4.8773 C.3       1 RES1    0.0000
     24 O5         6.3170   33.2863    5.4382 O.3       1 RES1    0.0000
     25 O6         8.5375   33.0137    5.5430 O.2       1 RES1    0.0000
     26 C18        7.5309   33.3685    6.0577 C.2       1 RES1    0.0000
     27 C19        7.3838   33.8802    7.4500 C.3       1 RES1    0.0000
     28 O7         4.1188   33.8391    3.5505 O.3       1 RES1    0.0000
     29 O8         3.5949   33.4731    1.3715 O.2       1 RES1    0.0000
     30 C20        3.2516   33.6934    2.4756 C.2       1 RES1    0.0000
     31 C21        1.8315   33.9287    2.9687 C.3       1 RES1    0.0000
     32 O9         7.3871   35.3182    3.0943 O.3       1 RES1    0.0000
     33 O10        7.9991   36.2967    5.0475 O.2       1 RES1    0.0000
     34 C22        8.2967   35.8149    3.9850 C.2       1 RES1    0.0000
     35 C23        9.6801   35.6693    3.4333 C.3       1 RES1    0.0000
     36 O11        5.2893   36.2258    1.4008 O.3       1 RES1    0.0000
     37 O12        3.0777   36.6441    1.1827 O.2       1 RES1    0.0000
     38 C24        4.1255   36.3602    0.6873 C.2       1 RES1    0.0000
     39 C25        4.3707   36.1287   -0.7659 C.3       1 RES1    0.0000
     40 O13        5.0384   38.7992    2.6721 O.3       1 RES1    0.0000
     41 O14        5.8901   40.1363    4.2262 O.2       1 RES1    0.0000
     42 C26        5.1555   39.9645    3.2885 C.2       1 RES1    0.0000
     43 C27        4.2871   41.0327    2.7091 C.3       1 RES1    0.0000
     44 H1         2.2740   30.9258    2.5966 H         1 RES1    0.0000
     45 H2         2.7087   29.3198    3.1822 H         1 RES1    0.0000
     46 H3         3.1657   30.7391    4.0837 H         1 RES1    0.0000
     47 H4         4.7486   31.4114    4.5382 H         1 RES1    0.0000
     48 H5         7.3347   32.6813    3.6445 H         1 RES1    0.0000
     49 H6         5.7184   33.5777    2.1651 H         1 RES1    0.0000
     50 H7         5.8745   35.5199    4.5845 H         1 RES1    0.0000
     51 H8         4.1913   36.3789    3.2207 H         1 RES1    0.0000
     52 H9         6.9111   37.7982    2.7815 H         1 RES1    0.0000
     53 H10        6.1309   37.8356    4.2378 H         1 RES1    0.0000
     54 H11        4.9158   29.9921    0.2389 H         1 RES1    0.0000
     55 H12        3.2103   28.1619   -0.0616 H         1 RES1    0.0000
     56 H13        2.3743   28.6475    1.2790 H         1 RES1    0.0000
     57 H14        1.7055   30.8511    0.1387 H         1 RES1    0.0000
     58 H15        2.5861   30.4403   -1.1943 H         1 RES1    0.0000
     59 H16        0.3121   28.6475   -0.0925 H         1 RES1    0.0000
     60 H17        1.1816   28.2366   -1.4485 H         1 RES1    0.0000
     61 H18       -0.5128   30.8138   -1.1943 H         1 RES1    0.0000
     62 H19        0.4124   30.3656   -2.6351 H         1 RES1    0.0000
     63 H20       -0.9586   29.3945   -2.1497 H         1 RES1    0.0000
     64 H21        9.1517   29.8427    1.1480 H         1 RES1    0.0000
     65 H22        9.0068   31.3740    0.4854 H         1 RES1    0.0000
     66 H23       10.0434   32.4198    2.5195 H         1 RES1    0.0000
     67 H24       10.1884   30.8138    3.2284 H         1 RES1    0.0000
     68 H25       11.0467   31.1873    1.7182 H         1 RES1    0.0000
     69 H26        6.7997   30.9258    5.8558 H         1 RES1    0.0000
     70 H27        7.6245   30.4776    4.4920 H         1 RES1    0.0000
     71 H28        6.9334   34.8476    7.4199 H         1 RES1    0.0000
     72 H29        6.7216   33.2042    8.0209 H         1 RES1    0.0000
     73 H30        8.3268   33.9512    7.9670 H         1 RES1    0.0000
     74 H31        1.5717   33.1668    3.7446 H         1 RES1    0.0000
     75 H32        1.7278   34.9223    3.3979 H         1 RES1    0.0000
     76 H33        1.1147   33.8018    2.1651 H         1 RES1    0.0000
     77 H34        9.9320   34.6235    3.2130 H         1 RES1    0.0000
     78 H35        9.7759   36.2295    2.4810 H         1 RES1    0.0000
     79 H36       10.4447   36.0428    4.1068 H         1 RES1    0.0000
     80 H37        5.1165   36.8271   -1.1326 H         1 RES1    0.0000
     81 H38        4.7709   35.1090   -0.9246 H         1 RES1    0.0000
     82 H39        3.4779   36.2295   -1.3638 H         1 RES1    0.0000
     83 H40        4.4922   41.1597    1.6720 H         1 RES1    0.0000
     84 H41        3.2215   40.6742    2.7969 H         1 RES1    0.0000
     85 H42        4.3027   41.9814    3.2053 H         1 RES1    0.0000
@<TRIPOS>BOND
     1    1    2 1
     2    2    3 2
     3    3    4 1
     4    4    5 1
     5    5    6 1
     6    6    7 1
     7    7    8 1
     8    8    9 1
     9    9   40 1
    10   10    2 1
    11   11   10 1
    12   12   11 1
    13   13   12 1
    14   14   13 1
    15   15   17 1
    16   16   17 2
    17   17    3 1
    18   18   15 1
    19   19   18 1
    20   20   22 2
    21   21   22 2
    22   22   23 1
    23   23    4 1
    24   24    5 1
    25   25   26 2
    26   26   24 1
    27   27   26 1
    28   28    6 1
    29   29   30 2
    30   30   28 1
    31   31   30 1
    32   32    7 1
    33   33   34 2
    34   34   32 1
    35   35   34 1
    36   36    8 1
    37   37   38 2
    38   38   36 1
    39   39   38 1
    40   40   42 1
    41   41   42 2
    42   42   43 1
    43   43   83 1
    44   44    1 1
    45   45    1 1
    46   46    1 1
    47   47    4 1
    48   48    5 1
    49   49    6 1
    50   50    7 1
    51   51    8 1
    52   52    9 1
    53   53    9 1
    54   54   10 1
    55   55   11 1
    56   56   11 1
    57   57   12 1
    58   58   12 1
    59   59   13 1
    60   60   13 1
    61   61   14 1
    62   62   14 1
    63   63   14 1
    64   64   18 1
    65   65   18 1
    66   66   19 1
    67   67   19 1
    68   68   19 1
    69   69   23 1
    70   70   23 1
    71   71   27 1
    72   72   27 1
    73   73   27 1
    74   74   31 1
    75   75   31 1
    76   76   31 1
    77   77   35 1
    78   78   35 1
    79   79   35 1
    80   80   39 1
    81   81   39 1
    82   82   39 1
    83   84   43 1
    84   85   43 1
@<TRIPOS>SUBSTRUCTURE
     1 RES1 1

@<TRIPOS>CRYSIN
  11.1470   37.3500    7.7050  90.0000  90.0000  90.0000  19 1

