# MOL2 file generated by ConQuest
# Please check atom types

@<TRIPOS>MOLECULE
BUBLOZ
    17    17     1
SMALL
NO_CHARGES
****
Generated from CSD

@<TRIPOS>ATOM
      1 C1        -0.7788    7.7168    7.4560 C.ar      1 RES1    0.0000
      2 C2        -1.3746    7.4193    6.2460 C.ar      1 RES1    0.0000
      3 C3        -1.7421    8.3858    5.3438 C.ar      1 RES1    0.0000
      4 C4        -1.5098    9.7121    5.6722 C.ar      1 RES1    0.0000
      5 C5        -0.9345   10.0307    6.8865 C.ar      1 RES1    0.0000
      6 C6        -0.5530    9.0548    7.7861 C.ar      1 RES1    0.0000
      7 C7        -1.4383   12.3447    6.7163 C.2       1 RES1    0.0000
      8 C8        -0.9272   13.5041    6.4007 C.2       1 RES1    0.0000
      9 N1        -1.6283    6.0060    5.9048 N.pl3     1 RES1    0.0000
     10 O1        -0.6530   11.3335    7.2627 O.3       1 RES1    0.0000
     11 O2        -2.2712    5.7649    4.8871 O.2       1 RES1    0.0000
     12 O3        -1.1837    5.1288    6.6393 O.2       1 RES1    0.0000
     13 H1        -0.5648    7.1606    8.0212 H         1 RES1    0.0000
     14 H2        -0.1796    9.2653    8.5429 H         1 RES1    0.0000
     15 H3        -2.3465   12.0872    6.6274 H         1 RES1    0.0000
     16 H4         0.0113   13.6510    6.4478 H         1 RES1    0.0000
     17 H5        -1.4987   14.3330    6.0972 H         1 RES1    0.0000
@<TRIPOS>BOND
     1    1    2 ar
     2    2    3 ar
     3    3    4 ar
     4    4    5 ar
     5    5    6 ar
     6    6    1 ar
     7    7    8 2
     8    8   16 1
     9    9    2 1
    10   10    5 1
    11   11    9 2
    12   12    9 2
    13   13    1 1
    14   14    6 1
    15   15    7 1
    16   17    8 1
    17    7   10 1
@<TRIPOS>SUBSTRUCTURE
     1 RES1 1

@<TRIPOS>CRYSIN
   7.5530   11.7580    8.7510  90.0000 102.2600  90.0000  14 2

