# MOL2 file generated by ConQuest
# Please check atom types

@<TRIPOS>MOLECULE
BUBQEU
    24    25     1
SMALL
NO_CHARGES
****
Generated from CSD

@<TRIPOS>ATOM
      1 O1         7.0130    1.4237    9.8894 O.3       1 RES1    0.0000
      2 N1         7.9441    1.7002    8.8542 N.2       1 RES1    0.0000
      3 C1         9.1336    1.4505    9.2829 C.2       1 RES1    0.0000
      4 C2        10.3120    1.6661    8.4013 C.3       1 RES1    0.0000
      5 H1        10.0120    2.0081    7.5327 H         1 RES1    0.0000
      6 H2        10.7841    0.8168    8.2735 H         1 RES1    0.0000
      7 H3        10.9160    2.3160    8.8181 H         1 RES1    0.0000
      8 C3         9.1642    0.9740   10.6618 C.2       1 RES1    0.0000
      9 C4         7.7190    0.8796   11.0319 C.3       1 RES1    0.0000
     10 H4         7.4578   -0.0620   11.1909 H         1 RES1    0.0000
     11 H5         7.5294    1.4076   11.8476 H         1 RES1    0.0000
     12 C5        10.2837    0.7599   11.3745 C.2       1 RES1    0.0000
     13 H6        11.1023    0.8929   10.9105 H         1 RES1    0.0000
     14 C6        10.3996    0.3468   12.7747 C.ar      1 RES1    0.0000
     15 C7         9.3501   -0.2267   13.5015 C.ar      1 RES1    0.0000
     16 H7         8.5086   -0.3626   13.0830 H         1 RES1    0.0000
     17 C8         9.5241   -0.5975   14.8236 C.ar      1 RES1    0.0000
     18 H8         8.8046   -0.9963   15.2976 H         1 RES1    0.0000
     19 C9        10.7287   -0.3959   15.4574 C.ar      1 RES1    0.0000
     20 H9        10.8408   -0.6521   16.3648 H         1 RES1    0.0000
     21 C10       11.7811    0.1854   14.7594 C.ar      1 RES1    0.0000
     22 H10       12.6106    0.3419   15.1955 H         1 RES1    0.0000
     23 C11       11.6212    0.5369   13.4306 C.ar      1 RES1    0.0000
     24 H11       12.3528    0.9128   12.9549 H         1 RES1    0.0000
@<TRIPOS>BOND
     1    1    2 1
     2    2    3 2
     3    3    4 1
     4    4    5 1
     5    6    4 1
     6    7    4 1
     7    8    3 1
     8    9    1 1
     9   10    9 1
    10   11    9 1
    11   12    8 2
    12   13   12 1
    13   14   12 1
    14   15   14 ar
    15   16   15 1
    16   17   15 ar
    17   18   17 1
    18   19   17 ar
    19   20   19 1
    20   21   19 ar
    21   22   21 1
    22   23   14 ar
    23   24   23 1
    24    8    9 1
    25   21   23 ar
@<TRIPOS>SUBSTRUCTURE
     1 RES1 1

@<TRIPOS>CRYSIN
  12.3331    7.3853   20.0230  90.0000  90.0000  90.0000  61 1

