# MOL2 file generated by ConQuest
# Please check atom types

@<TRIPOS>MOLECULE
BUCNAO
    32    34     1
SMALL
NO_CHARGES
****
Generated from CSD

@<TRIPOS>ATOM
      1 O1         3.6343    2.7936    1.4105 O.2       1 RES1    0.0000
      2 N1         2.9137    1.8842    1.9194 N.3       1 RES1    0.0000
      3 C1         3.4496    0.8010    2.7786 C.3       1 RES1    0.0000
      4 C2         4.4003   -0.0505    1.9406 C.3       1 RES1    0.0000
      5 C3         4.1243    1.3715    4.0175 C.3       1 RES1    0.0000
      6 C4         2.1474    0.0800    3.0948 C.3       1 RES1    0.0000
      7 O2         1.3152    0.3021    1.9371 O.3       1 RES1    0.0000
      8 C5         1.4921    1.6505    1.5551 C.3       1 RES1    0.0000
      9 C6         1.2024    1.8820    0.0541 C.3       1 RES1    0.0000
     10 C7         0.1086    2.9715    0.0788 C.3       1 RES1    0.0000
     11 C8         0.5654    3.8294    1.2835 C.3       1 RES1    0.0000
     12 C9         0.5578    2.6536    2.2673 C.3       1 RES1    0.0000
     13 C10       -0.8770    2.1157    2.1251 C.3       1 RES1    0.0000
     14 C11       -1.1946    2.3473    0.6159 C.3       1 RES1    0.0000
     15 H1        -0.0046    3.5157   -0.8580 H         1 RES1    0.0000
     16 H2         0.8616    2.9052    3.2911 H         1 RES1    0.0000
     17 H3         1.6905    0.5263    3.9611 H         1 RES1    0.0000
     18 H4         2.3409   -0.9894    3.1971 H         1 RES1    0.0000
     19 H5         0.8017    0.9684   -0.3879 H         1 RES1    0.0000
     20 H6         2.0942    2.2631   -0.4349 H         1 RES1    0.0000
     21 H7        -0.2327    4.5262    1.5515 H         1 RES1    0.0000
     22 H8         1.5769    4.1788    1.1284 H         1 RES1    0.0000
     23 H9        -1.5527    2.6947    2.7387 H         1 RES1    0.0000
     24 H10       -0.8881    1.0421    2.3508 H         1 RES1    0.0000
     25 H11       -2.0118    3.0525    0.5172 H         1 RES1    0.0000
     26 H12       -1.3729    1.3894    0.1293 H         1 RES1    0.0000
     27 H13        3.9201   -0.4631    1.0461 H         1 RES1    0.0000
     28 H14        4.7999   -0.8421    2.5506 H         1 RES1    0.0000
     29 H15        5.3249    0.4526    1.7043 H         1 RES1    0.0000
     30 H16        5.0570    1.8842    3.7965 H         1 RES1    0.0000
     31 H17        3.4639    1.9789    4.6193 H         1 RES1    0.0000
     32 H18        4.5216    0.5789    4.6546 H         1 RES1    0.0000
@<TRIPOS>BOND
     1    1    2 1
     2    2    3 1
     3    3    4 1
     4    4   27 1
     5    5    3 1
     6    6    3 1
     7    7    6 1
     8    8    2 1
     9    9    8 1
    10   10    9 1
    11   11   10 1
    12   12    8 1
    13   13   12 1
    14   14   10 1
    15   15   10 1
    16   16   12 1
    17   17    6 1
    18   18    6 1
    19   19    9 1
    20   20    9 1
    21   21   11 1
    22   22   11 1
    23   23   13 1
    24   24   13 1
    25   25   14 1
    26   26   14 1
    27   28    4 1
    28   29    4 1
    29   30    5 1
    30   31    5 1
    31   32    5 1
    32    7    8 1
    33   11   12 1
    34   13   14 1
@<TRIPOS>SUBSTRUCTURE
     1 RES1 1

@<TRIPOS>CRYSIN
   8.5710   10.5260   11.8760  90.0000  98.2200  90.0000  14 1

