# MOL2 file generated by ConQuest
# Please check atom types

@<TRIPOS>MOLECULE
BUDCUY
    24    25     1
SMALL
NO_CHARGES
****
Generated from CSD

@<TRIPOS>ATOM
      1 C1         7.3644    1.9939    8.5074 C.2       1 RES1    0.0000
      2 C2         7.7144    2.5556    9.8440 C.ar      1 RES1    0.0000
      3 C3         6.8021    2.4964   10.8989 C.ar      1 RES1    0.0000
      4 C4         7.1089    3.0596   12.1316 C.ar      1 RES1    0.0000
      5 C5         8.3105    3.6682   12.3007 C.ar      1 RES1    0.0000
      6 C6         9.2719    3.6749   11.3062 C.ar      1 RES1    0.0000
      7 C7         8.9539    3.1164   10.0821 C.ar      1 RES1    0.0000
      8 C8         7.6571    2.5381    7.3004 C.2       1 RES1    0.0000
      9 C9         7.4758    1.7647    6.0530 C.ar      1 RES1    0.0000
     10 C10        6.9379    2.3319    4.9072 C.ar      1 RES1    0.0000
     11 C11        6.8272    1.6173    3.7258 C.ar      1 RES1    0.0000
     12 C12        7.2854    0.2905    3.6172 C.ar      1 RES1    0.0000
     13 C13        7.8473   -0.2748    4.7870 C.ar      1 RES1    0.0000
     14 C14        7.9232    0.4454    5.9591 C.ar      1 RES1    0.0000
     15 N1         8.6212    4.3315   13.5682 N.pl3     1 RES1    0.0000
     16 O1         7.7089    4.5710   14.3075 O.2       1 RES1    0.0000
     17 O2         9.7563    4.6481   13.7986 O.2       1 RES1    0.0000
     18 C15        6.5712    0.7997    8.5780 C.1       1 RES1    0.0000
     19 N2         5.8765   -0.1062    8.7052 N.1       1 RES1    0.0000
     20 N3         7.1822   -0.4106    2.4559 N.3       1 RES1    0.0000
     21 C16        7.7705   -1.7124    2.3349 C.3       1 RES1    0.0000
     22 C17        6.4973    0.1320    1.3110 C.3       1 RES1    0.0000
     23 C18        8.1142    3.9629    7.1592 C.3       1 RES1    0.0000
     24 C19        9.4697    4.1253    6.4866 C.3       1 RES1    0.0000
@<TRIPOS>BOND
     1    1    2 1
     2    2    3 ar
     3    3    4 ar
     4    4    5 ar
     5    5    6 ar
     6    6    7 ar
     7    7    2 ar
     8    8    1 2
     9    9    8 1
    10   10    9 ar
    11   11   10 ar
    12   12   11 ar
    13   13   12 ar
    14   14    9 ar
    15   15    5 1
    16   16   15 2
    17   17   15 2
    18   18    1 1
    19   19   18 3
    20   20   12 1
    21   21   20 1
    22   22   20 1
    23   23    8 1
    24   24   23 1
    25   13   14 ar
@<TRIPOS>SUBSTRUCTURE
     1 RES1 1

@<TRIPOS>CRYSIN
  10.7250   10.8600    8.4510 113.2400  79.5600 111.1300   2 1

