# MOL2 file generated by ConQuest
# Please check atom types

@<TRIPOS>MOLECULE
BUDKER
    34    35     1
SMALL
NO_CHARGES
****
Generated from CSD

@<TRIPOS>ATOM
      1 C1         5.8318    1.7559    6.6816 C.ar      1 RES1    0.0000
      2 C2         6.9978    2.3052    6.1818 C.ar      1 RES1    0.0000
      3 C3         7.3550    2.2538    4.8470 C.ar      1 RES1    0.0000
      4 H1         8.1524    2.6290    4.5511 H         1 RES1    0.0000
      5 C4         6.5003    1.6359    3.9735 C.ar      1 RES1    0.0000
      6 H2         6.7163    1.6017    3.0693 H         1 RES1    0.0000
      7 C5         5.3327    1.0662    4.4115 C.ar      1 RES1    0.0000
      8 H3         4.7633    0.6498    3.8053 H         1 RES1    0.0000
      9 C6         4.9998    1.1098    5.7589 C.ar      1 RES1    0.0000
     10 C7         2.9436   -0.0553    5.3977 C.3       1 RES1    0.0000
     11 H4         2.6465    0.5969    4.7586 H         1 RES1    0.0000
     12 H5         2.1912   -0.3775    5.8986 H         1 RES1    0.0000
     13 H6         3.3597   -0.7876    4.9374 H         1 RES1    0.0000
     14 N1         7.9114    3.0196    7.0792 N.pl3     1 RES1    0.0000
     15 O1         3.8835    0.5437    6.2849 O.3       1 RES1    0.0000
     16 O2         7.4468    3.6973    7.9811 O.2       1 RES1    0.0000
     17 O3         9.1099    2.9099    6.8700 O.2       1 RES1    0.0000
     18 C1A        5.4664    1.7559    8.1365 C.ar      1 RES1    0.0000
     19 C2A        4.3004    2.3052    8.6363 C.ar      1 RES1    0.0000
     20 C3A        3.9431    2.2538    9.9711 C.ar      1 RES1    0.0000
     21 H1A        3.1457    2.6290   10.2670 H         1 RES1    0.0000
     22 C4A        4.7979    1.6359   10.8446 C.ar      1 RES1    0.0000
     23 H2A        4.5819    1.6017   11.7488 H         1 RES1    0.0000
     24 C5A        5.9654    1.0662   10.4067 C.ar      1 RES1    0.0000
     25 H3A        6.5349    0.6498   11.0128 H         1 RES1    0.0000
     26 C6A        6.2983    1.1098    9.0592 C.ar      1 RES1    0.0000
     27 C7A        8.3546   -0.0553    9.4204 C.3       1 RES1    0.0000
     28 H4A        8.6516    0.5969   10.0595 H         1 RES1    0.0000
     29 H5A        9.1070   -0.3775    8.9195 H         1 RES1    0.0000
     30 H6A        7.9385   -0.7876    9.8807 H         1 RES1    0.0000
     31 N1A        3.3867    3.0196    7.7389 N.pl3     1 RES1    0.0000
     32 O1A        7.4146    0.5437    8.5333 O.3       1 RES1    0.0000
     33 O2A        3.8513    3.6973    6.8370 O.2       1 RES1    0.0000
     34 O3A        2.1882    2.9099    7.9481 O.2       1 RES1    0.0000
@<TRIPOS>BOND
     1    1    2 ar
     2    2    3 ar
     3    3    4 1
     4    5    3 ar
     5    6    5 1
     6    7    5 ar
     7    8    7 1
     8    9    1 ar
     9   10   11 1
    10   12   10 1
    11   13   10 1
    12   14    2 1
    13   15    9 1
    14   16   14 2
    15   17   14 2
    16   18    1 1
    17   19   18 ar
    18   20   19 ar
    19   21   20 1
    20   22   20 ar
    21   23   22 1
    22   24   22 ar
    23   25   24 1
    24   26   18 ar
    25   27   28 1
    26   29   27 1
    27   30   27 1
    28   31   19 1
    29   32   26 1
    30   33   31 2
    31   34   31 2
    32    7    9 ar
    33   10   15 1
    34   24   26 ar
    35   27   32 1
@<TRIPOS>SUBSTRUCTURE
     1 RES1 1

@<TRIPOS>CRYSIN
  18.2360    7.7826   10.9079  90.0000 115.0890  90.0000  15 1

