# MOL2 file generated by ConQuest
# Please check atom types

@<TRIPOS>MOLECULE
BUDRIC
    30    30     1
SMALL
NO_CHARGES
****
Generated from CSD

@<TRIPOS>ATOM
      1 O1         9.5607    8.2248    0.9001 O.3       1 RES1    0.0000
      2 O2        11.2989    6.4159    0.3474 O.3       1 RES1    0.0000
      3 O3        11.8404    3.8924    0.2193 O.2       1 RES1    0.0000
      4 O4        10.2883    2.4048    0.5126 O.2       1 RES1    0.0000
      5 O5         2.7005    5.3839    2.4748 O.3       1 RES1    0.0000
      6 O6         3.7603    3.3951    2.2851 O.2       1 RES1    0.0000
      7 N1         4.6965    7.9820    1.8817 N.1       1 RES1    0.0000
      8 N2        10.6554    3.5746    0.4711 N.pl3     1 RES1    0.0000
      9 C1         7.8173    6.5955    1.2432 C.ar      1 RES1    0.0000
     10 H1         7.1718    7.2698    1.4225 H         1 RES1    0.0000
     11 C2         9.1070    6.9550    0.9451 C.ar      1 RES1    0.0000
     12 C3        10.0824    5.9655    0.6589 C.ar      1 RES1    0.0000
     13 C4         9.6899    4.6282    0.7215 C.ar      1 RES1    0.0000
     14 C5         8.3827    4.2594    1.0231 C.ar      1 RES1    0.0000
     15 H2         8.1433    3.3402    1.0470 H         1 RES1    0.0000
     16 C6         7.4314    5.2292    1.2875 C.ar      1 RES1    0.0000
     17 C7         6.1052    4.7474    1.6237 C.2       1 RES1    0.0000
     18 H3         6.0266    3.8014    1.6539 H         1 RES1    0.0000
     19 C8         4.9587    5.4125    1.9014 C.2       1 RES1    0.0000
     20 C9         3.7521    4.6178    2.2368 C.2       1 RES1    0.0000
     21 C10        4.8096    6.8353    1.8916 C.1       1 RES1    0.0000
     22 C11        1.4657    4.7148    2.8845 C.3       1 RES1    0.0000
     23 H4         1.6500    4.0630    3.6066 H         1 RES1    0.0000
     24 H5         1.0649    4.2316    2.1187 H         1 RES1    0.0000
     25 C12        0.5304    5.7876    3.3725 C.3       1 RES1    0.0000
     26 H6         0.9105    6.2152    4.1678 H         1 RES1    0.0000
     27 H7        -0.3366    5.3873    3.5996 H         1 RES1    0.0000
     28 H8         0.4060    6.4580    2.6686 H         1 RES1    0.0000
     29 H9        11.7813    5.6111    0.1688 H         1 RES1    0.0000
     30 H10        8.9451    8.8866    0.9774 H         1 RES1    0.0000
@<TRIPOS>BOND
     1    1   11 1
     2    2   12 1
     3    3    8 2
     4    4    8 2
     5    5   20 1
     6    6   20 2
     7    7   21 3
     8    8   13 1
     9    9   10 1
    10   11    9 ar
    11   12   11 ar
    12   13   12 ar
    13   14   13 ar
    14   15   14 1
    15   16    9 ar
    16   17   16 1
    17   18   17 1
    18   19   17 2
    19   20   19 1
    20   21   19 1
    21   22    5 1
    22   23   22 1
    23   24   22 1
    24   25   22 1
    25   26   25 1
    26   27   25 1
    27   28   25 1
    28   29    2 1
    29   30    1 1
    30   14   16 ar
@<TRIPOS>SUBSTRUCTURE
     1 RES1 1

@<TRIPOS>CRYSIN
  24.9830   13.4850    7.3120  90.0000 105.9110  90.0000  15 1

