# MOL2 file generated by ConQuest
# Please check atom types

@<TRIPOS>MOLECULE
BUDVEC
    26    26     1
SMALL
NO_CHARGES
****
Generated from CSD

@<TRIPOS>ATOM
      1 C1         5.8127    4.5687   -5.3169 C.3       1 RES1    0.0000
      2 H1         5.3821    5.4180   -5.1953 H         1 RES1    0.0000
      3 H2         5.5235    4.1791   -6.1451 H         1 RES1    0.0000
      4 H3         6.7645    4.6926   -5.3364 H         1 RES1    0.0000
      5 C2         5.4507    3.6600   -4.1858 C.2       1 RES1    0.0000
      6 H4         5.8447    2.8184   -4.1803 H         1 RES1    0.0000
      7 C3         4.6289    3.9394   -3.1990 C.2       1 RES1    0.0000
      8 H5         4.2137    4.7714   -3.2110 H         1 RES1    0.0000
      9 C4         4.3221    3.0680   -2.1103 C.2       1 RES1    0.0000
     10 H6         4.7091    2.2228   -2.0766 H         1 RES1    0.0000
     11 C5         2.4793    2.8161    0.8402 C.ar      1 RES1    0.0000
     12 C6         1.9949    4.1367    0.9585 C.ar      1 RES1    0.0000
     13 H7         2.2296    4.7684    0.3181 H         1 RES1    0.0000
     14 C7         1.1942    4.4982    1.9908 C.ar      1 RES1    0.0000
     15 H8         0.8877    5.3746    2.0397 H         1 RES1    0.0000
     16 C8         0.8188    3.5920    2.9798 C.ar      1 RES1    0.0000
     17 H9         0.2734    3.8583    3.6843 H         1 RES1    0.0000
     18 C9         1.2659    2.3092    2.8940 C.ar      1 RES1    0.0000
     19 H10        1.0250    1.6902    3.5442 H         1 RES1    0.0000
     20 C10        2.0873    1.9209    1.8302 C.ar      1 RES1    0.0000
     21 N1         3.5245    3.4292   -1.1810 N.2       1 RES1    0.0000
     22 N2         3.2689    2.4976   -0.2090 N.pl3     1 RES1    0.0000
     23 H11        3.6110    1.7108   -0.2670 H         1 RES1    0.0000
     24 N3         2.5010    0.5395    1.8139 N.pl3     1 RES1    0.0000
     25 O1         2.0667   -0.2189    2.6747 O.2       1 RES1    0.0000
     26 O2         3.3131    0.1623    0.9680 O.2       1 RES1    0.0000
@<TRIPOS>BOND
     1    1    2 1
     2    3    1 1
     3    4    1 1
     4    5    1 1
     5    6    5 1
     6    7    5 2
     7    8    7 1
     8    9    7 1
     9   10    9 1
    10   11   12 ar
    11   12   13 1
    12   14   12 ar
    13   15   14 1
    14   16   14 ar
    15   17   16 1
    16   18   16 ar
    17   19   18 1
    18   20   11 ar
    19   21    9 2
    20   22   11 1
    21   23   22 1
    22   24   20 1
    23   25   24 2
    24   26   24 2
    25   18   20 ar
    26   21   22 1
@<TRIPOS>SUBSTRUCTURE
     1 RES1 1

@<TRIPOS>CRYSIN
   4.2390   11.4560   11.9840 113.2710  96.5340  95.5950   2 1

