# MOL2 file generated by ConQuest
# Please check atom types

@<TRIPOS>MOLECULE
BUFDUC
    37    38     1
SMALL
NO_CHARGES
****
Generated from CSD

@<TRIPOS>ATOM
      1 C1         0.4807    2.4760    2.4217 C.ar      1 RES1    0.0000
      2 C2         0.2888    3.2778    3.5493 C.ar      1 RES1    0.0000
      3 H1        -0.4594    3.1463    4.0861 H         1 RES1    0.0000
      4 C3         1.1890    4.2522    3.8701 C.ar      1 RES1    0.0000
      5 H2         1.0662    4.7829    4.6243 H         1 RES1    0.0000
      6 C4         2.2924    4.4338    3.0460 C.ar      1 RES1    0.0000
      7 H3         2.9066    5.1005    3.2526 H         1 RES1    0.0000
      8 C5         2.4954    3.6595    1.9449 C.ar      1 RES1    0.0000
      9 H4         3.2461    3.8115    1.4164 H         1 RES1    0.0000
     10 C6         1.6012    2.6371    1.5857 C.ar      1 RES1    0.0000
     11 C7         3.1635    1.3145   -1.2490 C.2       1 RES1    0.0000
     12 H5         2.5173    0.6708   -1.4320 H         1 RES1    0.0000
     13 C8         4.3214    1.4076   -2.1184 C.ar      1 RES1    0.0000
     14 C9         5.3446    2.3354   -1.8855 C.ar      1 RES1    0.0000
     15 H6         5.2941    2.9122   -1.1580 H         1 RES1    0.0000
     16 C10        6.4225    2.3915   -2.7346 C.ar      1 RES1    0.0000
     17 C11        6.4944    1.5306   -3.8339 C.ar      1 RES1    0.0000
     18 C12        5.4986    0.6217   -4.0601 C.ar      1 RES1    0.0000
     19 H7         5.5493    0.0510   -4.7934 H         1 RES1    0.0000
     20 C13        4.4185    0.5492   -3.2022 C.ar      1 RES1    0.0000
     21 H8         3.7508   -0.0805   -3.3536 H         1 RES1    0.0000
     22 C14        7.5856    4.0751   -1.4800 C.3       1 RES1    0.0000
     23 H9         7.5364    3.5549   -0.6626 H         1 RES1    0.0000
     24 H10        6.8551    4.7129   -1.4844 H         1 RES1    0.0000
     25 C15        8.9020    4.7919   -1.5639 C.3       1 RES1    0.0000
     26 H11        9.6164    4.1507   -1.5583 H         1 RES1    0.0000
     27 H12        8.9939    5.3807   -0.8102 H         1 RES1    0.0000
     28 H13        8.9371    5.3031   -2.3763 H         1 RES1    0.0000
     29 N1        -0.5093    1.4651    2.1651 N.pl3     1 RES1    0.0000
     30 N2         1.8489    1.8717    0.4896 N.pl3     1 RES1    0.0000
     31 H14        1.2918    1.2600    0.2545 H         1 RES1    0.0000
     32 N3         2.9981    2.0813   -0.2460 N.2       1 RES1    0.0000
     33 O1        -0.3989    0.7318    1.1689 O.2       1 RES1    0.0000
     34 O2        -1.4466    1.3325    2.9518 O.2       1 RES1    0.0000
     35 O3         7.5011    3.2198   -2.6174 O.3       1 RES1    0.0000
     36 O4         7.5648    1.5801   -4.6879 O.3       1 RES1    0.0000
     37 H15        7.9874    2.2709   -4.5583 H         1 RES1    0.0000
@<TRIPOS>BOND
     1    1    2 ar
     2    2    3 1
     3    4    2 ar
     4    5    4 1
     5    6    4 ar
     6    7    6 1
     7    8    6 ar
     8    9    8 1
     9   10    1 ar
    10   11   12 1
    11   13   11 1
    12   14   13 ar
    13   15   14 1
    14   16   14 ar
    15   17   16 ar
    16   18   17 ar
    17   19   18 1
    18   20   13 ar
    19   21   20 1
    20   22   23 1
    21   24   22 1
    22   25   22 1
    23   26   25 1
    24   27   25 1
    25   28   25 1
    26   29    1 1
    27   30   10 1
    28   31   30 1
    29   32   11 2
    30   33   29 2
    31   34   29 2
    32   35   16 1
    33   36   17 1
    34   37   36 1
    35    8   10 ar
    36   18   20 ar
    37   22   35 1
    38   30   32 1
@<TRIPOS>SUBSTRUCTURE
     1 RES1 1

@<TRIPOS>CRYSIN
  14.5860    5.0020   19.8940  90.0000 102.4000  90.0000  14 1

