# MOL2 file generated by ConQuest
# Please check atom types

@<TRIPOS>MOLECULE
BUFMOF
    45    47     1
SMALL
NO_CHARGES
****
Generated from CSD

@<TRIPOS>ATOM
      1 O1        -0.4314    4.0958    1.5931 O.2       1 RES1    0.0000
      2 O2        -0.0886   11.3188    3.4602 O.2       1 RES1    0.0000
      3 O3        -0.9327    9.3601    3.7669 O.2       1 RES1    0.0000
      4 O4        -1.2814   10.1065   -2.4217 O.3       1 RES1    0.0000
      5 O5        -1.4211   12.1628   -1.3624 O.3       1 RES1    0.0000
      6 O6         2.4074    4.4617    2.1467 O.3       1 RES1    0.0000
      7 O7         2.8851    5.3336    6.7904 O.3       1 RES1    0.0000
      8 O8        -1.2455    6.2307    4.4316 O.3       1 RES1    0.0000
      9 N1        -0.5609   10.2706    3.0356 N.pl3     1 RES1    0.0000
     10 C1        -0.1904    5.1980    2.0661 C.2       1 RES1    0.0000
     11 C2        -0.6413    6.4128    1.3653 C.2       1 RES1    0.0000
     12 H1        -1.2124    6.3168    0.6376 H         1 RES1    0.0000
     13 C3        -0.2723    7.6439    1.7217 C.2       1 RES1    0.0000
     14 H2         0.2464    7.7349    2.4884 H         1 RES1    0.0000
     15 C4        -0.6274    8.8662    0.9902 C.ar      1 RES1    0.0000
     16 C5        -0.7171   10.1314    1.5869 C.ar      1 RES1    0.0000
     17 C6        -0.9748   11.3156    0.8952 C.ar      1 RES1    0.0000
     18 H3        -1.0216   12.1403    1.3234 H         1 RES1    0.0000
     19 C7        -1.1540   11.1835   -0.4506 C.ar      1 RES1    0.0000
     20 C8        -1.0777    9.9527   -1.0807 C.ar      1 RES1    0.0000
     21 C9        -0.8195    8.7948   -0.4040 C.ar      1 RES1    0.0000
     22 H4        -0.7722    7.9809   -0.8518 H         1 RES1    0.0000
     23 C10        0.6041    5.3180    3.3336 C.ar      1 RES1    0.0000
     24 C11        0.0552    5.8160    4.5149 C.ar      1 RES1    0.0000
     25 C12        0.7898    5.8570    5.6991 C.ar      1 RES1    0.0000
     26 H5         0.4190    6.2001    6.4797 H         1 RES1    0.0000
     27 C13        2.0894    5.3717    5.6821 C.ar      1 RES1    0.0000
     28 C14        2.6803    4.8849    4.5213 C.ar      1 RES1    0.0000
     29 H6         3.5587    4.5794    4.5262 H         1 RES1    0.0000
     30 C15        1.9300    4.8663    3.3559 C.ar      1 RES1    0.0000
     31 C16       -1.5392   11.5053   -2.6279 C.3       1 RES1    0.0000
     32 H7        -0.8991   11.8736   -3.2572 H         1 RES1    0.0000
     33 H8        -2.4307   11.6314   -2.9886 H         1 RES1    0.0000
     34 C17        3.8192    4.2673    2.0279 C.3       1 RES1    0.0000
     35 H9         4.0515    4.1692    1.1018 H         1 RES1    0.0000
     36 H10        4.0747    3.4756    2.5070 H         1 RES1    0.0000
     37 H11        4.2786    5.0258    2.3943 H         1 RES1    0.0000
     38 C18        2.4333    6.0343    7.9496 C.3       1 RES1    0.0000
     39 H12        3.1358    6.0563    8.6042 H         1 RES1    0.0000
     40 H13        1.6679    5.5862    8.3170 H         1 RES1    0.0000
     41 H14        2.1928    6.9311    7.7079 H         1 RES1    0.0000
     42 C19       -1.8113    6.8204    5.6096 C.3       1 RES1    0.0000
     43 H15       -2.7064    7.1140    5.4225 H         1 RES1    0.0000
     44 H16       -1.2784    7.5713    5.8793 H         1 RES1    0.0000
     45 H17       -1.8299    6.1702    6.3163 H         1 RES1    0.0000
@<TRIPOS>BOND
     1    1   10 2
     2    2    9 2
     3    3    9 2
     4    4   20 1
     5    5   19 1
     6    6   30 1
     7    7   27 1
     8    8   24 1
     9    9   16 1
    10   10   11 1
    11   11   12 1
    12   13   11 2
    13   14   13 1
    14   15   13 1
    15   16   15 ar
    16   17   16 ar
    17   18   17 1
    18   19   17 ar
    19   20   19 ar
    20   21   15 ar
    21   22   21 1
    22   23   10 1
    23   24   23 ar
    24   25   24 ar
    25   26   25 1
    26   27   25 ar
    27   28   27 ar
    28   29   28 1
    29   30   23 ar
    30   31    4 1
    31   32   31 1
    32   33   31 1
    33   34    6 1
    34   35   34 1
    35   36   34 1
    36   37   34 1
    37   38    7 1
    38   39   38 1
    39   40   38 1
    40   41   38 1
    41   42    8 1
    42   43   42 1
    43   44   42 1
    44   45   42 1
    45    5   31 1
    46   20   21 ar
    47   28   30 ar
@<TRIPOS>SUBSTRUCTURE
     1 RES1 1

@<TRIPOS>CRYSIN
   7.3044   10.1264   12.8600  93.1120 103.9590 105.3840   2 1

