# MOL2 file generated by ConQuest
# Please check atom types

@<TRIPOS>MOLECULE
BUGKOE
    17    17     1
SMALL
NO_CHARGES
****
Generated from CSD

@<TRIPOS>ATOM
      1 N1         0.5959    9.4771    3.9787 N.pl3     1 RES1    0.0000
      2 N2         1.4985    8.4302    3.8839 N.pl3     1 RES1    0.0000
      3 H1         1.2617    7.6053    3.8250 H         1 RES1    0.0000
      4 N3         2.8531    8.8562    3.8933 N.pl3     1 RES1    0.0000
      5 O1         3.0850   10.0011    4.1973 O.2       1 RES1    0.0000
      6 O2         3.6334    7.9587    3.6600 O.2       1 RES1    0.0000
      7 N4         0.9780   10.7028    1.8708 N.pl3     1 RES1    0.0000
      8 O3         0.7000   11.6982    1.2364 O.2       1 RES1    0.0000
      9 O4         1.7675    9.8396    1.5178 O.2       1 RES1    0.0000
     10 C1         0.3242   10.5170    3.1408 C.2       1 RES1    0.0000
     11 N5        -0.5708   11.3307    3.6075 N.2       1 RES1    0.0000
     12 O5        -2.4283   12.4060    5.2719 O.2       1 RES1    0.0000
     13 N6        -1.8534   11.4166    5.6783 N.pl3     1 RES1    0.0000
     14 O6        -2.0162   10.8906    6.7684 O.2       1 RES1    0.0000
     15 C2        -0.8830   10.7835    4.8086 C.2       1 RES1    0.0000
     16 C3        -0.1949    9.6578    5.0841 C.2       1 RES1    0.0000
     17 H2        -0.2445    9.1278    5.8457 H         1 RES1    0.0000
@<TRIPOS>BOND
     1    1    2 1
     2    2    3 1
     3    4    2 1
     4    5    4 2
     5    6    4 2
     6    7    8 2
     7    9    7 2
     8   10    1 1
     9   11   10 2
    10   12   13 2
    11   13   14 2
    12   15   11 1
    13   16    1 1
    14   17   16 1
    15    7   10 1
    16   13   15 1
    17   15   16 2
@<TRIPOS>SUBSTRUCTURE
     1 RES1 1

@<TRIPOS>CRYSIN
   6.9860   10.0960   11.3840  90.0000  90.0000  90.0000  19 1

