# MOL2 file generated by ConQuest
# Please check atom types

@<TRIPOS>MOLECULE
BUGPIC
    36    37     1
SMALL
NO_CHARGES
****
Generated from CSD

@<TRIPOS>ATOM
      1 N1         7.6243    3.5500    2.8925 N.pl3     1 RES1    0.0000
      2 N2         8.6872    4.4020    3.0552 N.2       1 RES1    0.0000
      3 C1         8.7718    5.0325    1.8939 C.2       1 RES1    0.0000
      4 C2         7.8117    4.5781    0.9986 C.2       1 RES1    0.0000
      5 C3         7.0789    3.6068    1.6330 C.2       1 RES1    0.0000
      6 C4         7.3437    2.7048    4.0078 C.ar      1 RES1    0.0000
      7 C5         6.2687    2.9900    4.8222 C.ar      1 RES1    0.0000
      8 C6         6.0389    2.2368    5.9682 C.ar      1 RES1    0.0000
      9 C7         6.8915    1.2246    6.3181 C.ar      1 RES1    0.0000
     10 C8         7.9701    0.9372    5.5353 C.ar      1 RES1    0.0000
     11 C9         8.1757    1.6552    4.3802 C.ar      1 RES1    0.0000
     12 N3         9.3111    1.2462    3.5381 N.pl3     1 RES1    0.0000
     13 O1         9.2906    1.4939    2.3512 O.2       1 RES1    0.0000
     14 O2        10.2205    0.6214    4.0722 O.2       1 RES1    0.0000
     15 C10        9.8045    6.1038    1.7005 C.3       1 RES1    0.0000
     16 C11        5.9120    2.7878    1.1367 C.3       1 RES1    0.0000
     17 C12        6.0329    1.2985    1.4877 C.3       1 RES1    0.0000
     18 C13        4.5975    3.3535    1.6770 C.3       1 RES1    0.0000
     19 C14        5.8914    2.9025   -0.4082 C.3       1 RES1    0.0000
     20 H1         7.7270    4.8962    0.1330 H         1 RES1    0.0000
     21 H2         5.6351    3.6920    4.5429 H         1 RES1    0.0000
     22 H3         5.3569    2.4424    6.4460 H         1 RES1    0.0000
     23 H4         6.7355    0.7157    7.0803 H         1 RES1    0.0000
     24 H5         8.5614    0.2158    5.7298 H         1 RES1    0.0000
     25 H6        10.8469    5.6573    1.7087 H         1 RES1    0.0000
     26 H7         9.5772    6.6570    0.6651 H         1 RES1    0.0000
     27 H8         9.6860    6.7706    2.4761 H         1 RES1    0.0000
     28 H9         6.8806    0.8747    1.1664 H         1 RES1    0.0000
     29 H10        5.2360    0.8066    1.1050 H         1 RES1    0.0000
     30 H11        5.9374    1.1133    2.4351 H         1 RES1    0.0000
     31 H12        4.4984    4.3964    1.4938 H         1 RES1    0.0000
     32 H13        4.4742    3.1581    2.5682 H         1 RES1    0.0000
     33 H14        3.7970    2.9423    1.2483 H         1 RES1    0.0000
     34 H15        6.6508    2.4992   -0.7776 H         1 RES1    0.0000
     35 H16        5.7560    3.9306   -0.6651 H         1 RES1    0.0000
     36 H17        5.0425    2.3515   -0.7162 H         1 RES1    0.0000
@<TRIPOS>BOND
     1    1    2 1
     2    2    3 2
     3    3    4 1
     4    4    5 2
     5    5    1 1
     6    6    1 1
     7    7    6 ar
     8    8    7 ar
     9    9    8 ar
    10   10    9 ar
    11   11    6 ar
    12   12   11 1
    13   13   12 2
    14   14   12 2
    15   15    3 1
    16   16    5 1
    17   17   16 1
    18   18   16 1
    19   19   16 1
    20   20    4 1
    21   21    7 1
    22   22    8 1
    23   23    9 1
    24   24   10 1
    25   25   15 1
    26   26   15 1
    27   27   15 1
    28   28   17 1
    29   29   17 1
    30   30   17 1
    31   31   18 1
    32   32   18 1
    33   33   18 1
    34   34   19 1
    35   35   19 1
    36   36   19 1
    37   10   11 ar
@<TRIPOS>SUBSTRUCTURE
     1 RES1 1

@<TRIPOS>CRYSIN
  12.0924   11.3601   10.2317  90.0000  90.0000  90.0000  19 1

