# MOL2 file generated by ConQuest
# Please check atom types

@<TRIPOS>MOLECULE
BUGPEZ
    27    31     1
SMALL
NO_CHARGES
****
Generated from CSD

@<TRIPOS>ATOM
      1 O1         8.8251    5.3370    3.0199 O.3       1 RES1    0.0000
      2 C1         7.4124   -0.8141    0.5719 C.ar      1 RES1    0.0000
      3 C2         7.0403    1.3430   -0.6320 C.ar      1 RES1    0.0000
      4 C3         8.5532    3.2625    2.6852 C.2       1 RES1    0.0000
      5 C4         7.9970    1.3290    1.7166 C.2       1 RES1    0.0000
      6 C5         6.1420   -0.0706   -2.7420 C.ar      1 RES1    0.0000
      7 H1         5.8419   -0.5514   -3.4790 H         1 RES1    0.0000
      8 C6         7.6656   -2.8265    1.6173 C.ar      1 RES1    0.0000
      9 H2         7.6068   -3.7547    1.5902 H         1 RES1    0.0000
     10 C7         6.1420    1.3063   -2.8386 C.ar      1 RES1    0.0000
     11 H3         5.8455    1.7339   -3.6088 H         1 RES1    0.0000
     12 C8         8.2130   -0.8850    2.8367 C.ar      1 RES1    0.0000
     13 H4         8.5042   -0.4636    3.6134 H         1 RES1    0.0000
     14 N1         8.3261    5.2708    1.7309 N.2       1 RES1    0.0000
     15 C9         6.5905    2.0172   -1.7652 C.ar      1 RES1    0.0000
     16 H5         6.5955    2.9469   -1.7886 H         1 RES1    0.0000
     17 C10        7.5633    2.0790    0.5215 C.2       1 RES1    0.0000
     18 C11        6.9875   -0.0606   -0.6258 C.ar      1 RES1    0.0000
     19 C12        8.1557    3.9731    1.5379 C.2       1 RES1    0.0000
     20 C13        8.1076   -2.2480    2.7871 C.ar      1 RES1    0.0000
     21 H6         8.3298   -2.7713    3.5232 H         1 RES1    0.0000
     22 N2         8.9707    4.0987    3.6081 N.2       1 RES1    0.0000
     23 C14        7.8771   -0.1346    1.7076 C.ar      1 RES1    0.0000
     24 N3         6.5359   -0.7600   -1.6827 N.ar      1 RES1    0.0000
     25 N4         7.6475    3.3870    0.4248 N.2       1 RES1    0.0000
     26 N5         7.3179   -2.1552    0.5270 N.ar      1 RES1    0.0000
     27 N6         8.4903    1.9031    2.7854 N.2       1 RES1    0.0000
@<TRIPOS>BOND
     1    1   14 1
     2    2   18 1
     3    3   15 ar
     4    4   19 1
     5    5   17 1
     6    6    7 1
     7    8    9 1
     8   10    6 ar
     9   11   10 1
    10   12   13 1
    11   14   19 2
    12   15   10 ar
    13   16   15 1
    14   17    3 1
    15   18    3 ar
    16   19   25 1
    17   20    8 ar
    18   21   20 1
    19   22    1 1
    20   23    2 ar
    21   24    6 ar
    22   25   17 2
    23   26    2 ar
    24   27    4 1
    25    4   22 2
    26    5   23 1
    27    5   27 2
    28    8   26 ar
    29   12   20 ar
    30   12   23 ar
    31   18   24 ar
@<TRIPOS>SUBSTRUCTURE
     1 RES1 1

@<TRIPOS>CRYSIN
  10.7669   11.7079    9.5111  90.0000 108.4950  90.0000  14 1

