# MOL2 file generated by ConQuest
# Please check atom types

@<TRIPOS>MOLECULE
BUGQOK
    62    68     1
SMALL
NO_CHARGES
****
Generated from CSD

@<TRIPOS>ATOM
      1 O1         1.0391   13.2874   17.0896 O.3       1 RES1    0.0000
      2 O2        -0.1354   15.5798   18.2543 O.3       1 RES1    0.0000
      3 O3         2.7676   10.9566   18.0897 O.3       1 RES1    0.0000
      4 O4         5.9613    5.3812   17.0307 O.2       1 RES1    0.0000
      5 O5         5.7718    6.8007   15.4444 O.2       1 RES1    0.0000
      6 N1         5.4117    6.3254   16.5098 N.pl3     1 RES1    0.0000
      7 N2        -1.7561   10.0769   13.9925 N.3       1 RES1    0.0000
      8 C1        -2.3634   12.6906   16.1652 C.ar      1 RES1    0.0000
      9 C2        -3.0005   13.7889   16.7015 C.ar      1 RES1    0.0000
     10 H1        -3.9272   13.8467   16.6489 H         1 RES1    0.0000
     11 C3        -2.2903   14.8089   17.3178 C.ar      1 RES1    0.0000
     12 H2        -2.7460   15.5604   17.6220 H         1 RES1    0.0000
     13 C4        -0.9051   14.7353   17.4921 C.ar      1 RES1    0.0000
     14 C5        -0.2815   13.6490   16.9069 C.ar      1 RES1    0.0000
     15 C6         1.2435   11.9869   16.4398 C.3       1 RES1    0.0000
     16 H3         1.9808   12.0585   15.7966 H         1 RES1    0.0000
     17 C7        -0.0722   11.6543   15.6784 C.3       1 RES1    0.0000
     18 C8        -0.9881   12.7328   16.1701 C.ar      1 RES1    0.0000
     19 C9         1.5269   10.8316   17.4108 C.3       1 RES1    0.0000
     20 C10        1.6857    9.5886   16.4622 C.3       1 RES1    0.0000
     21 H4         2.2325    9.8734   15.7011 H         1 RES1    0.0000
     22 C11        0.2924    9.1754   15.9002 C.3       1 RES1    0.0000
     23 H5         0.3546    9.0050   14.9463 H         1 RES1    0.0000
     24 H6        -0.0153    8.3653   16.3368 H         1 RES1    0.0000
     25 C12       -0.6976   10.3283   16.1683 C.3       1 RES1    0.0000
     26 C13       -0.8013   10.3886   17.6667 C.2       1 RES1    0.0000
     27 H7        -1.6081   10.2678   18.1135 H         1 RES1    0.0000
     28 C14        0.3249   10.6230   18.3034 C.2       1 RES1    0.0000
     29 H8         0.3781   10.6570   19.2309 H         1 RES1    0.0000
     30 C15       -3.0330   11.3854   15.7713 C.3       1 RES1    0.0000
     31 H9        -3.6015   11.5511   15.0029 H         1 RES1    0.0000
     32 H10       -3.6042   11.1002   16.5006 H         1 RES1    0.0000
     33 C16       -2.0475   10.2126   15.4195 C.3       1 RES1    0.0000
     34 H11       -2.4717    9.3776   15.7108 H         1 RES1    0.0000
     35 C17       -1.1803   11.2981   13.4412 C.3       1 RES1    0.0000
     36 H12       -1.8156   12.0264   13.5305 H         1 RES1    0.0000
     37 H13       -0.9972   11.1735   12.4969 H         1 RES1    0.0000
     38 C18        0.1011   11.6539   14.1631 C.3       1 RES1    0.0000
     39 H14        0.3962   12.5326   13.8757 H         1 RES1    0.0000
     40 H15        0.7905   11.0154   13.9205 H         1 RES1    0.0000
     41 C19        2.3950    8.4240   17.1091 C.ar      1 RES1    0.0000
     42 C20        1.9131    7.8039   18.2515 C.ar      1 RES1    0.0000
     43 H16        1.1280    8.1187   18.6381 H         1 RES1    0.0000
     44 C21        2.5664    6.7287   18.8327 C.ar      1 RES1    0.0000
     45 H17        2.2190    6.3356   19.5995 H         1 RES1    0.0000
     46 C22        3.7242    6.2432   18.2806 C.ar      1 RES1    0.0000
     47 H18        4.1763    5.5251   18.6615 H         1 RES1    0.0000
     48 C23        4.1935    6.8576   17.1407 C.ar      1 RES1    0.0000
     49 C24        3.5726    7.9292   16.5523 C.ar      1 RES1    0.0000
     50 H19        3.9336    8.3216   15.7908 H         1 RES1    0.0000
     51 C25        2.8877   12.0264   19.0145 C.3       1 RES1    0.0000
     52 H20        2.0530   12.1485   19.4727 H         1 RES1    0.0000
     53 H21        3.1160   12.8319   18.5445 H         1 RES1    0.0000
     54 H22        3.5753   11.8222   19.6522 H         1 RES1    0.0000
     55 C26       -0.7932   16.6343   18.9464 C.3       1 RES1    0.0000
     56 H23       -1.5350   16.2785   19.4396 H         1 RES1    0.0000
     57 H24       -1.1109   17.2817   18.3143 H         1 RES1    0.0000
     58 H25       -0.1769   17.0531   19.5527 H         1 RES1    0.0000
     59 C27       -2.8660    9.5754   13.2142 C.3       1 RES1    0.0000
     60 H26       -3.5843   10.2126   13.2341 H         1 RES1    0.0000
     61 H27       -3.1665    8.7430   13.5851 H         1 RES1    0.0000
     62 H28       -2.5854    9.4380   12.3058 H         1 RES1    0.0000
@<TRIPOS>BOND
     1    1   14 1
     2    2   13 1
     3    3   19 1
     4    4    6 2
     5    5    6 2
     6    6   48 1
     7    7   33 1
     8    8    9 ar
     9    9   10 1
    10   11    9 ar
    11   12   11 1
    12   13   11 ar
    13   14   13 ar
    14   15    1 1
    15   16   15 1
    16   17   15 1
    17   18    8 ar
    18   19   15 1
    19   20   19 1
    20   21   20 1
    21   22   20 1
    22   23   22 1
    23   24   22 1
    24   25   17 1
    25   26   25 1
    26   27   26 1
    27   28   19 1
    28   29   28 1
    29   30    8 1
    30   31   30 1
    31   32   30 1
    32   33   25 1
    33   34   33 1
    34   35    7 1
    35   36   35 1
    36   37   35 1
    37   38   17 1
    38   39   38 1
    39   40   38 1
    40   41   20 1
    41   42   41 ar
    42   43   42 1
    43   44   42 ar
    44   45   44 1
    45   46   44 ar
    46   47   46 1
    47   48   46 ar
    48   49   41 ar
    49   50   49 1
    50   51    3 1
    51   52   51 1
    52   53   51 1
    53   54   51 1
    54   55    2 1
    55   56   55 1
    56   57   55 1
    57   58   55 1
    58   59    7 1
    59   60   59 1
    60   61   59 1
    61   62   59 1
    62   14   18 ar
    63   17   18 1
    64   22   25 1
    65   26   28 2
    66   30   33 1
    67   35   38 1
    68   48   49 ar
@<TRIPOS>SUBSTRUCTURE
     1 RES1 1

@<TRIPOS>CRYSIN
   9.0240   12.8460   19.5020  90.0000  90.0000  90.0000  19 1

