# MOL2 file generated by ConQuest
# Please check atom types

@<TRIPOS>MOLECULE
BUHLAS
    36    37     1
SMALL
NO_CHARGES
****
Generated from CSD

@<TRIPOS>ATOM
      1 C1         9.4062    2.0612    1.6248 C.2       1 RES1    0.0000
      2 C2         9.3914    2.6489    2.9162 C.2       1 RES1    0.0000
      3 C3         9.6817    1.6017    3.8134 C.2       1 RES1    0.0000
      4 C4         9.2897    4.0184    3.3026 C.2       1 RES1    0.0000
      5 C5         9.0799    2.7165    0.3384 C.ar      1 RES1    0.0000
      6 C6         7.3659    3.5473    4.7160 C.3       1 RES1    0.0000
      7 H1         7.1286    2.9629    3.9928 H         1 RES1    0.0000
      8 H2         6.6232    4.1190    4.9218 H         1 RES1    0.0000
      9 H3         7.5926    3.0241    5.4879 H         1 RES1    0.0000
     10 C7         8.7886    5.4706    5.2368 C.3       1 RES1    0.0000
     11 H4         9.6414    5.8536    5.0203 H         1 RES1    0.0000
     12 H5         8.8024    5.1490    6.1421 H         1 RES1    0.0000
     13 H6         8.1043    6.1387    5.1454 H         1 RES1    0.0000
     14 C8        11.2008    4.6742    1.9160 C.3       1 RES1    0.0000
     15 H7        11.5165    3.7997    2.1574 H         1 RES1    0.0000
     16 H8        11.8746    5.3264    2.1225 H         1 RES1    0.0000
     17 H9        11.0101    4.6976    0.9762 H         1 RES1    0.0000
     18 C9         9.5122    6.3494    2.5241 C.3       1 RES1    0.0000
     19 H10        8.5947    6.4017    2.8014 H         1 RES1    0.0000
     20 H11        9.5853    6.6207    1.6058 H         1 RES1    0.0000
     21 H12       10.0461    6.9302    3.0721 H         1 RES1    0.0000
     22 C10        8.1742    3.7639    0.2922 C.ar      1 RES1    0.0000
     23 H13        7.7430    4.0284    1.0726 H         1 RES1    0.0000
     24 C11        7.8977    4.4248   -0.8925 C.ar      1 RES1    0.0000
     25 H14        7.2885    5.1270   -0.9085 H         1 RES1    0.0000
     26 C12        8.5322    4.0321   -2.0385 C.ar      1 RES1    0.0000
     27 H15        8.3627    4.4811   -2.8362 H         1 RES1    0.0000
     28 C13        9.4147    2.9849   -2.0241 C.ar      1 RES1    0.0000
     29 H16        9.8300    2.7219   -2.8137 H         1 RES1    0.0000
     30 C14        9.6944    2.3133   -0.8447 C.ar      1 RES1    0.0000
     31 H17       10.2887    1.5977   -0.8429 H         1 RES1    0.0000
     32 N1         9.6531    0.7786    1.6472 N.2       1 RES1    0.0000
     33 N2         8.5082    4.3585    4.3286 N.3       1 RES1    0.0000
     34 N3         9.9859    4.9753    2.6656 N.3       1 RES1    0.0000
     35 O1         9.8695    0.4639    3.0304 O.3       1 RES1    0.0000
     36 O2         9.8110    1.5217    5.0299 O.2       1 RES1    0.0000
@<TRIPOS>BOND
     1    1    2 1
     2    2    3 1
     3    3   35 1
     4    4    2 2
     5    5    1 1
     6    6    7 1
     7    8    6 1
     8    9    6 1
     9   10   11 1
    10   12   10 1
    11   13   10 1
    12   14   15 1
    13   16   14 1
    14   17   14 1
    15   18   19 1
    16   20   18 1
    17   21   18 1
    18   22    5 ar
    19   23   22 1
    20   24   22 ar
    21   25   24 1
    22   26   24 ar
    23   27   26 1
    24   28   26 ar
    25   29   28 1
    26   30    5 ar
    27   31   30 1
    28   32    1 2
    29   33    4 1
    30   34    4 1
    31   35   32 1
    32   36    3 2
    33    6   33 1
    34   10   33 1
    35   14   34 1
    36   18   34 1
    37   28   30 ar
@<TRIPOS>SUBSTRUCTURE
     1 RES1 1

@<TRIPOS>CRYSIN
  10.5938   12.2333   20.5077  90.0000  90.0000  90.0000  61 1

