# MOL2 file generated by ConQuest
# Please check atom types

@<TRIPOS>MOLECULE
BUHLEW
    40    42     1
SMALL
NO_CHARGES
****
Generated from CSD

@<TRIPOS>ATOM
      1 C1         6.7190    0.0708   10.5397 C.2       1 RES1    0.0000
      2 C2         6.1793    0.4227   11.8122 C.2       1 RES1    0.0000
      3 C3         5.3076   -0.6241   12.1895 C.2       1 RES1    0.0000
      4 C4         6.3579    1.5737   12.6243 C.2       1 RES1    0.0000
      5 C5         7.7314    0.7753    9.7148 C.ar      1 RES1    0.0000
      6 C6         5.8998    3.1330   10.8179 C.3       1 RES1    0.0000
      7 H1         6.6506    3.3145   10.2472 H         1 RES1    0.0000
      8 H2         5.3348    3.9083   10.8595 H         1 RES1    0.0000
      9 H3         5.4009    2.3927   10.4641 H         1 RES1    0.0000
     10 C7         6.8283    3.9338   12.9448 C.3       1 RES1    0.0000
     11 H4         6.1141    4.2371   13.5087 H         1 RES1    0.0000
     12 H5         7.1017    4.6470   12.3626 H         1 RES1    0.0000
     13 H6         7.5716    3.6608   13.4875 H         1 RES1    0.0000
     14 C8         7.0127    0.2778   14.5833 C.ar      1 RES1    0.0000
     15 C9         8.0864   -0.4091   14.0400 C.ar      1 RES1    0.0000
     16 H7         8.4553   -0.1393   13.2303 H         1 RES1    0.0000
     17 C10        8.5975   -1.4877   14.7075 C.ar      1 RES1    0.0000
     18 H8         9.3108   -1.9605   14.3437 H         1 RES1    0.0000
     19 C11        8.0631   -1.8761   15.9117 C.ar      1 RES1    0.0000
     20 H9         8.4075   -2.6196   16.3517 H         1 RES1    0.0000
     21 C12        7.0161   -1.1701   16.4747 C.ar      1 RES1    0.0000
     22 H10        6.6708   -1.4272   17.3000 H         1 RES1    0.0000
     23 C13        6.4899   -0.0971   15.8197 C.ar      1 RES1    0.0000
     24 H11        5.7863    0.3813   16.1962 H         1 RES1    0.0000
     25 C14        8.7898    1.4264   10.2890 C.ar      1 RES1    0.0000
     26 H12        8.8869    1.4137   11.2147 H         1 RES1    0.0000
     27 C15        9.7223    2.1062    9.5144 C.ar      1 RES1    0.0000
     28 H13       10.4317    2.5456    9.9246 H         1 RES1    0.0000
     29 C16        9.6053    2.1333    8.1551 C.ar      1 RES1    0.0000
     30 H14       10.2284    2.5925    7.6403 H         1 RES1    0.0000
     31 C17        8.5755    1.4869    7.5650 C.ar      1 RES1    0.0000
     32 H15        8.4912    1.4941    6.6382 H         1 RES1    0.0000
     33 C18        7.6418    0.8103    8.3415 C.ar      1 RES1    0.0000
     34 H16        6.9385    0.3693    7.9224 H         1 RES1    0.0000
     35 N1         6.2655   -1.0762   10.1178 N.2       1 RES1    0.0000
     36 N2         6.4849    1.4184   13.9586 N.pl3     1 RES1    0.0000
     37 H17        6.2239    2.0648   14.4627 H         1 RES1    0.0000
     38 N3         6.3709    2.8069   12.1476 N.3       1 RES1    0.0000
     39 O1         5.3352   -1.5187   11.1398 O.3       1 RES1    0.0000
     40 O2         4.5607   -0.8396   13.1585 O.2       1 RES1    0.0000
@<TRIPOS>BOND
     1    1    2 1
     2    2    3 1
     3    3   39 1
     4    4    2 2
     5    5    1 1
     6    6    7 1
     7    8    6 1
     8    9    6 1
     9   10   11 1
    10   12   10 1
    11   13   10 1
    12   14   15 ar
    13   15   16 1
    14   17   15 ar
    15   18   17 1
    16   19   17 ar
    17   20   19 1
    18   21   19 ar
    19   22   21 1
    20   23   14 ar
    21   24   23 1
    22   25    5 ar
    23   26   25 1
    24   27   25 ar
    25   28   27 1
    26   29   27 ar
    27   30   29 1
    28   31   29 ar
    29   32   31 1
    30   33    5 ar
    31   34   33 1
    32   35    1 2
    33   36    4 1
    34   37   36 1
    35   38    4 1
    36   39   35 1
    37   40    3 2
    38    6   38 1
    39   10   38 1
    40   14   36 1
    41   21   23 ar
    42   31   33 ar
@<TRIPOS>SUBSTRUCTURE
     1 RES1 1

@<TRIPOS>CRYSIN
   9.9333    7.9599   19.1985  90.0000  90.8040  90.0000  14 1

