# MOL2 file generated by ConQuest
# Please check atom types

@<TRIPOS>MOLECULE
BUHMAT
    76    54     2
SMALL
NO_CHARGES
****
Generated from CSD

@<TRIPOS>ATOM
      1 C1         8.9691    3.8156    0.0695 C.2       1 RES1    0.0000
      2 C2         9.4489    3.8034    1.4062 C.2       1 RES1    0.0000
      3 C3        10.8349    3.8304    1.3197 C.2       1 RES1    0.0000
      4 C4         8.7775    3.8331    2.7003 C.2       1 RES1    0.0000
      5 C5         7.5969    3.8088   -0.4595 C.ar      1 RES1    0.0000
      6 C6         7.9375    4.5357    4.7081 C.3       1 RES1    0.0000
      7 H1         8.5131    4.8708    5.4133 H         1 RES1    0.0000
      8 H2         7.0413    4.8829    4.8406 H         1 RES1    0.0000
      9 C7         7.9336    3.0481    4.6878 C.3       1 RES1    0.0000
     10 H3         8.4684    2.6901    5.4133 H         1 RES1    0.0000
     11 H4         7.0308    2.7036    4.7626 H         1 RES1    0.0000
     12 C8         8.6590    6.3449    2.9695 C.3       1 RES1    0.0000
     13 C9         8.1504    7.3285    4.0306 C.3       1 RES1    0.0000
     14 H5         8.5644    7.1326    4.8737 H         1 RES1    0.0000
     15 H6         7.1977    7.2447    4.1140 H         1 RES1    0.0000
     16 H7         8.3712    8.2256    3.7677 H         1 RES1    0.0000
     17 C10        7.8587    6.6448    1.6434 C.3       1 RES1    0.0000
     18 H8         6.9519    6.3435    1.7418 H         1 RES1    0.0000
     19 H9         8.2713    6.1841    0.9093 H         1 RES1    0.0000
     20 H10        7.8639    7.5892    1.4725 H         1 RES1    0.0000
     21 C11       10.2702    6.6367    2.8146 C.3       1 RES1    0.0000
     22 H11       10.7183    6.3989    3.6288 H         1 RES1    0.0000
     23 H12       10.4108    7.5690    2.6340 H         1 RES1    0.0000
     24 H13       10.6224    6.1138    2.0901 H         1 RES1    0.0000
     25 C12        8.6879    1.2646    3.0454 C.3       1 RES1    0.0000
     26 C13        8.1452    0.9471    1.6199 C.3       1 RES1    0.0000
     27 H14        7.2069    1.1471    1.5825 H         1 RES1    0.0000
     28 H15        8.2805    0.0176    1.4255 H         1 RES1    0.0000
     29 H16        8.6117    1.4808    0.9735 H         1 RES1    0.0000
     30 C14        9.9902    0.8066    3.1715 C.3       1 RES1    0.0000
     31 H17       10.5698    1.3336    2.6158 H         1 RES1    0.0000
     32 H18       10.0349   -0.1121    2.8979 H         1 RES1    0.0000
     33 H19       10.2688    0.8823    4.0872 H         1 RES1    0.0000
     34 C15        7.8179    0.4878    4.0370 C.3       1 RES1    0.0000
     35 H20        6.8980    0.7310    3.9152 H         1 RES1    0.0000
     36 H21        8.0887    0.6999    4.9335 H         1 RES1    0.0000
     37 H22        7.9231   -0.4540    3.8864 H         1 RES1    0.0000
     38 C16        6.4910    3.8385    0.3558 C.ar      1 RES1    0.0000
     39 H23        6.6115    3.8710    1.2780 H         1 RES1    0.0000
     40 C17        5.2049    3.8223   -0.1517 C.ar      1 RES1    0.0000
     41 H24        4.4721    3.8183    0.4210 H         1 RES1    0.0000
     42 C18        5.0240    3.8102   -1.5141 C.ar      1 RES1    0.0000
     43 H25        4.1646    3.8102   -1.8700 H         1 RES1    0.0000
     44 C19        6.1174    3.7966   -2.3498 C.ar      1 RES1    0.0000
     45 H26        5.9952    3.7683   -3.2719 H         1 RES1    0.0000
     46 C20        7.3751    3.8223   -1.8379 C.ar      1 RES1    0.0000
     47 H27        8.1018    3.8507   -2.4171 H         1 RES1    0.0000
     48 N1         9.9584    3.8277   -0.8089 N.2       1 RES1    0.0000
     49 N2         8.4684    4.9235    3.3510 N.3       1 RES1    0.0000
     50 N3         8.5105    2.7103    3.4066 N.3       1 RES1    0.0000
     51 O1        11.1555    3.8183   -0.0371 O.3       1 RES1    0.0000
     52 O2        11.7570    3.8250    2.1363 O.2       1 RES1    0.0000
     53 C21        7.5249    7.2488    3.6929 Du        2 SUP2    0.0000
     54 C22        8.7773    6.7097    1.5996 Du        2 SUP2    0.0000
     55 C23       10.2215    6.5718    3.5904 Du        2 SUP2    0.0000
     56 C24        7.4355    0.9296    2.1777 Du        2 SUP2    0.0000
     57 C25        9.9377    0.9985    2.1457 Du        2 SUP2    0.0000
     58 C26        8.8259    0.5161    4.2208 Du        2 SUP2    0.0000
     59 H28        7.4408    6.9812    4.6108 Du        2 SUP2    0.0000
     60 H29        6.6851    7.1258    3.2452 Du        2 SUP2    0.0000
     61 H30        7.7785    8.1743    3.6513 Du        2 SUP2    0.0000
     62 H31        9.4593    6.1787    1.1850 Du        2 SUP2    0.0000
     63 H32        9.0099    7.6392    1.5345 Du        2 SUP2    0.0000
     64 H33        7.9388    6.5583    1.1551 Du        2 SUP2    0.0000
     65 H34       10.2307    6.3516    4.5243 Du        2 SUP2    0.0000
     66 H35       10.4817    7.4893    3.4750 Du        2 SUP2    0.0000
     67 H36       10.8379    6.0044    3.1213 Du        2 SUP2    0.0000
     68 H37        7.4579    1.4470    1.3699 Du        2 SUP2    0.0000
     69 H38        6.6391    1.1417    2.6714 Du        2 SUP2    0.0000
     70 H39        7.4381   -0.0054    1.9597 Du        2 SUP2    0.0000
     71 H40        9.8523    1.4889    1.3250 Du        2 SUP2    0.0000
     72 H41       10.0008    0.0594    1.9533 Du        2 SUP2    0.0000
     73 H42       10.7301    1.2836    2.6062 Du        2 SUP2    0.0000
     74 H43        8.0308    0.6053    4.7519 Du        2 SUP2    0.0000
     75 H44        9.5815    0.8377    4.7188 Du        2 SUP2    0.0000
     76 H45        8.9586   -0.4080    3.9986 Du        2 SUP2    0.0000
@<TRIPOS>BOND
     1    1    2 1
     2    2    3 1
     3    3   51 1
     4    4    2 2
     5    5    1 1
     6    6    7 1
     7    8    6 1
     8    9    6 1
     9   10    9 1
    10   11    9 1
    11   12   13 1
    12   13   14 1
    13   15   13 1
    14   16   13 1
    15   17   12 1
    16   18   17 1
    17   19   17 1
    18   20   17 1
    19   21   12 1
    20   22   21 1
    21   23   21 1
    22   24   21 1
    23   25   26 1
    24   26   27 1
    25   28   26 1
    26   29   26 1
    27   30   25 1
    28   31   30 1
    29   32   30 1
    30   33   30 1
    31   34   25 1
    32   35   34 1
    33   36   34 1
    34   37   34 1
    35   38    5 ar
    36   39   38 1
    37   40   38 ar
    38   41   40 1
    39   42   40 ar
    40   43   42 1
    41   44   42 ar
    42   45   44 1
    43   46    5 ar
    44   47   46 1
    45   48    1 2
    46   49    4 1
    47   50    4 1
    48   51   48 1
    49   52    3 2
    50    6   49 1
    51    9   50 1
    52   12   49 1
    53   25   50 1
    54   44   46 ar
@<TRIPOS>SUBSTRUCTURE
     1 RES1 1
     2 SUP2 53

@<TRIPOS>CRYSIN
  13.1416   13.5112   10.6856  90.0000  90.0000  90.0000  33 4

