# MOL2 file generated by ConQuest
# Please check atom types

@<TRIPOS>MOLECULE
BUKQOO
    40    40     1
SMALL
NO_CHARGES
****
Generated from CSD

@<TRIPOS>ATOM
      1 O1         5.3407    7.0588    3.5851 O.3       1 RES1    0.0000
      2 O2         1.0661    5.4780    3.6096 O.3       1 RES1    0.0000
      3 N1         2.3659    5.4736    3.0301 N.2       1 RES1    0.0000
      4 N2         1.7372    3.4113    5.2262 N.2       1 RES1    0.0000
      5 C1         4.3251    6.7171    2.6379 C.3       1 RES1    0.0000
      6 H1         4.5692    5.8683    2.1911 H         1 RES1    0.0000
      7 H2         4.2760    7.4218    1.9452 H         1 RES1    0.0000
      8 C2         2.9773    6.5652    3.2841 C.2       1 RES1    0.0000
      9 C3         2.4337    7.6871    4.1075 C.3       1 RES1    0.0000
     10 H3         1.6859    8.1077    3.6339 H         1 RES1    0.0000
     11 H4         3.1383    8.3509    4.2611 H         1 RES1    0.0000
     12 H5         2.1205    7.3389    4.9681 H         1 RES1    0.0000
     13 C4         0.4778    4.2062    3.3623 C.3       1 RES1    0.0000
     14 H6         0.6936    3.9346    2.4351 H         1 RES1    0.0000
     15 H7        -0.5056    4.2962    3.4254 H         1 RES1    0.0000
     16 C5         0.9198    3.1130    4.2970 C.2       1 RES1    0.0000
     17 C6         0.3284    1.7578    4.0404 C.3       1 RES1    0.0000
     18 H8         1.0441    1.0894    4.0075 H         1 RES1    0.0000
     19 H9        -0.1493    1.7669    3.1853 H         1 RES1    0.0000
     20 H10       -0.2958    1.5321    4.7606 H         1 RES1    0.0000
     21 O1B        2.0129    2.2604    6.0207 O.3       1 RES1    0.0000
     22 O2B        6.2875    3.8412    5.9962 O.3       1 RES1    0.0000
     23 N1B        4.9876    3.8456    6.5756 N.2       1 RES1    0.0000
     24 N2B        5.6163    5.9079    4.3796 N.2       1 RES1    0.0000
     25 C1B        3.0284    2.6021    6.9678 C.3       1 RES1    0.0000
     26 H1B        2.7844    3.4509    7.4147 H         1 RES1    0.0000
     27 H2B        3.0775    1.8974    7.6606 H         1 RES1    0.0000
     28 C2B        4.3762    2.7540    6.3216 C.2       1 RES1    0.0000
     29 C3B        4.9198    1.6321    5.4982 C.3       1 RES1    0.0000
     30 H3B        5.6676    1.2115    5.9719 H         1 RES1    0.0000
     31 H4B        4.2153    0.9683    5.3446 H         1 RES1    0.0000
     32 H5B        5.2331    1.9803    4.6377 H         1 RES1    0.0000
     33 C4B        6.8758    5.1130    6.2435 C.3       1 RES1    0.0000
     34 H6B        6.6599    5.3846    7.1707 H         1 RES1    0.0000
     35 H7B        7.8592    5.0230    6.1803 H         1 RES1    0.0000
     36 C5B        6.4337    6.2062    5.3087 C.2       1 RES1    0.0000
     37 C6B        7.0252    7.5614    5.5654 C.3       1 RES1    0.0000
     38 H8B        6.3094    8.2298    5.5982 H         1 RES1    0.0000
     39 H9B        7.5028    7.5523    6.4205 H         1 RES1    0.0000
     40 H10B       7.6493    7.7871    4.8451 H         1 RES1    0.0000
@<TRIPOS>BOND
     1    1    5 1
     2    2    3 1
     3    3    8 2
     4    4   16 2
     5    5    6 1
     6    7    5 1
     7    8    5 1
     8    9    8 1
     9   10    9 1
    10   11    9 1
    11   12    9 1
    12   13    2 1
    13   14   13 1
    14   15   13 1
    15   16   13 1
    16   17   16 1
    17   18   17 1
    18   19   17 1
    19   20   17 1
    20   21    4 1
    21   22   23 1
    22   23   28 2
    23   24    1 1
    24   25   21 1
    25   26   25 1
    26   27   25 1
    27   28   25 1
    28   29   28 1
    29   30   29 1
    30   31   29 1
    31   32   29 1
    32   33   22 1
    33   34   33 1
    34   35   33 1
    35   36   24 2
    36   37   36 1
    37   38   37 1
    38   39   37 1
    39   40   37 1
    40   33   36 1
@<TRIPOS>SUBSTRUCTURE
     1 RES1 1

@<TRIPOS>CRYSIN
   8.1968    9.3192    9.6427  90.0000  95.0169  90.0000  14 1

