# MOL2 file generated by ConQuest
# Please check atom types

@<TRIPOS>MOLECULE
BUKTUW
    31    32     1
SMALL
NO_CHARGES
****
Generated from CSD

@<TRIPOS>ATOM
      1 O1         2.9570    4.5006    7.0183 O.3       1 RES1    0.0000
      2 C1         3.1117    3.2522    6.2830 C.3       1 RES1    0.0000
      3 H1         2.8451    2.4746    6.7796 H         1 RES1    0.0000
      4 C2         2.2267    3.3907    5.0780 C.3       1 RES1    0.0000
      5 H2         2.1494    2.5363    4.6468 H         1 RES1    0.0000
      6 H3         1.3579    3.6857    5.3609 H         1 RES1    0.0000
      7 C3         2.7891    4.3930    4.0905 C.3       1 RES1    0.0000
      8 H4         2.7304    5.2758    4.4639 H         1 RES1    0.0000
      9 H5         2.2820    4.3558    3.2762 H         1 RES1    0.0000
     10 C4         4.2290    4.0710    3.7960 C.3       1 RES1    0.0000
     11 H6         4.2789    3.2269    3.3417 H         1 RES1    0.0000
     12 H7         4.6014    4.7577    3.2377 H         1 RES1    0.0000
     13 C5         5.0155    3.9919    5.0818 C.3       1 RES1    0.0000
     14 H8         5.0170    4.8566    5.4995 H         1 RES1    0.0000
     15 H9         5.9169    3.7324    4.8797 H         1 RES1    0.0000
     16 O2         4.4461    3.0307    5.9981 O.3       1 RES1    0.0000
     17 C6         3.6570    4.6746    8.1636 C.ar      1 RES1    0.0000
     18 C7         3.8269    5.9791    8.6564 C.ar      1 RES1    0.0000
     19 C8         4.4902    6.2275    9.8402 C.ar      1 RES1    0.0000
     20 H10        4.6021    7.1310   10.1444 H         1 RES1    0.0000
     21 C9         4.9897    5.1904   10.5871 C.ar      1 RES1    0.0000
     22 H11        5.4520    5.3486   11.4148 H         1 RES1    0.0000
     23 C10        4.8025    3.9159   10.1097 C.ar      1 RES1    0.0000
     24 C11        4.1728    3.6280    8.9182 C.ar      1 RES1    0.0000
     25 H12        4.0919    2.7206    8.6140 H         1 RES1    0.0000
     26 N1         5.3096    2.7902   10.9240 N.pl3     1 RES1    0.0000
     27 O3         5.8312    3.0283   11.9692 O.2       1 RES1    0.0000
     28 O4         5.1610    1.6779   10.4966 O.2       1 RES1    0.0000
     29 N2         3.3023    7.1389    7.9288 N.pl3     1 RES1    0.0000
     30 O5         3.1177    7.0614    6.6641 O.2       1 RES1    0.0000
     31 O6         3.1222    8.1990    8.4697 O.2       1 RES1    0.0000
@<TRIPOS>BOND
     1    1    2 1
     2    2    3 1
     3    4    2 1
     4    5    4 1
     5    6    4 1
     6    7    4 1
     7    8    7 1
     8    9    7 1
     9   10    7 1
    10   11   10 1
    11   12   10 1
    12   13   10 1
    13   14   13 1
    14   15   13 1
    15   16    2 1
    16   17    1 1
    17   18   17 ar
    18   19   18 ar
    19   20   19 1
    20   21   19 ar
    21   22   21 1
    22   23   21 ar
    23   24   17 ar
    24   25   24 1
    25   26   23 1
    26   27   26 2
    27   28   26 2
    28   29   18 1
    29   30   29 2
    30   31   29 2
    31   13   16 1
    32   23   24 ar
@<TRIPOS>SUBSTRUCTURE
     1 RES1 1

@<TRIPOS>CRYSIN
   7.9400    7.9110   19.4550  90.0000  98.3400  90.0000 231 1

