# MOL2 file generated by ConQuest
# Please check atom types

@<TRIPOS>MOLECULE
BUMHUM
    28    30     1
SMALL
NO_CHARGES
****
Generated from CSD

@<TRIPOS>ATOM
      1 C1         3.4486   -0.8330    1.1073 C.ar      1 RES1    0.0000
      2 C2         2.3815   -1.4559    0.5364 C.ar      1 RES1    0.0000
      3 C3         1.0754   -1.1565    0.9883 C.ar      1 RES1    0.0000
      4 C4         0.8998   -0.2399    1.9697 C.ar      1 RES1    0.0000
      5 C5         2.4036    2.7138    5.3348 C.ar      1 RES1    0.0000
      6 C6         3.3781    3.3395    6.0454 C.ar      1 RES1    0.0000
      7 C7         4.7382    3.0885    5.7539 C.ar      1 RES1    0.0000
      8 C8         5.1003    2.2108    4.7742 C.ar      1 RES1    0.0000
      9 C9         4.4258    0.6062    2.9684 C.ar      1 RES1    0.0000
     10 N1         1.7070    1.2337    3.6186 N.ar      1 RES1    0.0000
     11 C10        3.3560    0.0707    2.2198 C.ar      1 RES1    0.0000
     12 C11        2.0070    0.3868    2.6217 C.ar      1 RES1    0.0000
     13 C12        4.1107    1.5303    3.9877 C.ar      1 RES1    0.0000
     14 C13        2.7298    1.8101    4.2758 C.ar      1 RES1    0.0000
     15 N2         4.7161   -1.0487    0.3812 N.pl3     1 RES1    0.0000
     16 O1         5.2814   -0.0669   -0.0811 O.2       1 RES1    0.0000
     17 O2         5.0934   -2.2062    0.2208 O.2       1 RES1    0.0000
     18 C14        5.8495    0.1608    2.7769 C.3       1 RES1    0.0000
     19 H1         2.5294   -2.0360   -0.2070 H         1 RES1    0.0000
     20 H2         0.3594   -1.5712    0.6037 H         1 RES1    0.0000
     21 H3         0.0276    0.0186    2.3112 H         1 RES1    0.0000
     22 H4         1.4651    2.8077    5.5194 H         1 RES1    0.0000
     23 H5         3.1100    3.9884    6.7267 H         1 RES1    0.0000
     24 H6         5.4320    3.5608    6.2438 H         1 RES1    0.0000
     25 H7         6.0679    2.0639    4.5880 H         1 RES1    0.0000
     26 H8         5.8744   -0.7995    2.5700 H         1 RES1    0.0000
     27 H9         6.2890    0.6973    2.1215 H         1 RES1    0.0000
     28 H10        6.3719    0.3254    3.6221 H         1 RES1    0.0000
@<TRIPOS>BOND
     1    1    2 ar
     2    2    3 ar
     3    3    4 ar
     4    4   12 ar
     5    5    6 ar
     6    6    7 ar
     7    7    8 ar
     8    8   13 ar
     9    9   11 ar
    10   10   12 ar
    11   11    1 ar
    12   12   11 ar
    13   13    9 ar
    14   14    5 ar
    15   15    1 1
    16   16   15 2
    17   17   15 2
    18   18    9 1
    19   19    2 1
    20   20    3 1
    21   21    4 1
    22   22    5 1
    23   23    6 1
    24   24    7 1
    25   25    8 1
    26   26   18 1
    27   27   18 1
    28   28   18 1
    29   10   14 ar
    30   13   14 ar
@<TRIPOS>SUBSTRUCTURE
     1 RES1 1

@<TRIPOS>CRYSIN
  13.8220    9.2970   17.2480  90.0000  90.0000  90.0000  61 1

