# MOL2 file generated by ConQuest
# Please check atom types

@<TRIPOS>MOLECULE
BUMNOM
    44    49     1
SMALL
NO_CHARGES
****
Generated from CSD

@<TRIPOS>ATOM
      1 C1        12.9061    7.0228   12.2204 C.3       1 RES1    0.0000
      2 C2        11.4993    6.7515   11.7698 C.2       1 RES1    0.0000
      3 C3        10.4371    5.6624   11.7485 C.3       1 RES1    0.0000
      4 C4         9.1555    6.3500   12.2843 C.3       1 RES1    0.0000
      5 C5         8.8208    7.3899   11.2092 C.3       1 RES1    0.0000
      6 C6         9.9272    7.1801   10.1553 C.3       1 RES1    0.0000
      7 C7        11.2030    7.6476   10.8188 C.2       1 RES1    0.0000
      8 C8        12.3967    8.5101   10.6095 C.3       1 RES1    0.0000
      9 C9        13.4405    7.5958    9.9353 C.3       1 RES1    0.0000
     10 C10       13.7912    6.5799   11.0175 C.3       1 RES1    0.0000
     11 C11       12.9256    8.5580   12.0306 C.3       1 RES1    0.0000
     12 C12       10.1143    5.6708   10.2493 C.3       1 RES1    0.0000
     13 C13        7.9735    5.4332   12.3180 C.2       1 RES1    0.0000
     14 C14        7.4549    7.0228   10.7177 C.2       1 RES1    0.0000
     15 C15        5.7952    5.2182   11.1595 C.ar      1 RES1    0.0000
     16 C16        4.6205    5.8696   11.4416 C.ar      1 RES1    0.0000
     17 C17        3.4114    5.2201   11.2553 C.ar      1 RES1    0.0000
     18 C18        3.4400    3.9174   10.8117 C.ar      1 RES1    0.0000
     19 C19        4.6003    3.2653   10.5155 C.ar      1 RES1    0.0000
     20 C20        5.7908    3.9193   10.6769 C.ar      1 RES1    0.0000
     21 N1         7.0451    5.8644   11.3724 N.am      1 RES1    0.0000
     22 N2         2.1646    3.1954   10.6734 N.pl3     1 RES1    0.0000
     23 O1         7.8129    4.4645   13.0099 O.2       1 RES1    0.0000
     24 O2         6.7962    7.5809    9.8768 O.2       1 RES1    0.0000
     25 O3         1.1324    3.8086   10.8188 O.2       1 RES1    0.0000
     26 O4         2.2167    2.0079   10.4232 O.2       1 RES1    0.0000
     27 H1        13.1632    6.6822   13.0224 H         1 RES1    0.0000
     28 H2        10.6253    4.7397   12.0998 H         1 RES1    0.0000
     29 H3         9.3119    6.7081   13.1465 H         1 RES1    0.0000
     30 H4         8.8349    8.2751   11.4788 H         1 RES1    0.0000
     31 H5         9.7031    7.5434    9.2789 H         1 RES1    0.0000
     32 H6        12.1517    9.4147   10.2192 H         1 RES1    0.0000
     33 H7        12.9780    7.0966    9.1192 H         1 RES1    0.0000
     34 H8        14.2383    8.1779    9.6337 H         1 RES1    0.0000
     35 H9        13.4237    5.6203   10.8579 H         1 RES1    0.0000
     36 H10       14.6843    6.7470   11.3546 H         1 RES1    0.0000
     37 H11       12.1794    8.9161   12.7030 H         1 RES1    0.0000
     38 H12       13.8972    8.9161   12.0643 H         1 RES1    0.0000
     39 H13       10.7709    5.3807    9.7934 H         1 RES1    0.0000
     40 H14        9.3291    5.0699   10.0418 H         1 RES1    0.0000
     41 H15        4.6240    6.7146   11.7804 H         1 RES1    0.0000
     42 H16        2.5310    5.6268   11.4256 H         1 RES1    0.0000
     43 H17        4.6794    2.3893   10.1305 H         1 RES1    0.0000
     44 H18        6.6405    3.5289   10.4321 H         1 RES1    0.0000
@<TRIPOS>BOND
     1    1    2 1
     2    2    3 1
     3    3    4 1
     4    4    5 1
     5    5    6 1
     6    6    7 1
     7    7    2 2
     8    8    7 1
     9    9    8 1
    10   10    1 1
    11   11    1 1
    12   12    3 1
    13   13    4 1
    14   14    5 1
    15   15   16 ar
    16   16   17 ar
    17   17   18 ar
    18   18   19 ar
    19   19   20 ar
    20   20   15 ar
    21   21   13 1
    22   22   18 1
    23   23   13 2
    24   24   14 2
    25   25   22 2
    26   26   22 2
    27   27    1 1
    28   28    3 1
    29   29    4 1
    30   30    5 1
    31   31    6 1
    32   32    8 1
    33   33    9 1
    34   34    9 1
    35   35   10 1
    36   36   10 1
    37   37   11 1
    38   38   11 1
    39   39   12 1
    40   40   12 1
    41   41   16 1
    42   42   17 1
    43   43   19 1
    44   44   20 1
    45    6   12 1
    46    8   11 1
    47    9   10 1
    48   14   21 1
    49   15   21 1
@<TRIPOS>SUBSTRUCTURE
     1 RES1 1

@<TRIPOS>CRYSIN
  14.8010    6.4750   17.7470  90.0000  91.4100  90.0000  14 1

