# MOL2 file generated by ConQuest
# Please check atom types

@<TRIPOS>MOLECULE
BUQLEG
    43    44     1
SMALL
NO_CHARGES
****
Generated from CSD

@<TRIPOS>ATOM
      1 O1         1.0141   -5.1521   -3.5815 O.2       1 RES1    0.0000
      2 O2         0.1832   -7.1706   -4.0524 O.3       1 RES1    0.0000
      3 O3         4.0129   -7.7697   -9.3917 O.3       1 RES1    0.0000
      4 H1         4.2702   -6.9940   -9.4580 H         1 RES1    0.0000
      5 O4         0.0501   -5.9940   -8.1415 O.2       1 RES1    0.0000
      6 N1         0.2012  -10.3169   -9.6623 N.ar      1 RES1    0.0000
      7 N2         2.9283   -9.9980   -9.7755 N.pl3     1 RES1    0.0000
      8 H2         3.7674   -9.8773   -9.9187 H         1 RES1    0.0000
      9 H3         2.5775  -10.7725   -9.9031 H         1 RES1    0.0000
     10 N3         2.6109   -7.7861   -9.1372 N.2       1 RES1    0.0000
     11 N4         1.0175   -7.2355   -6.5113 N.am      1 RES1    0.0000
     12 H4         1.1727   -8.0292   -6.2187 H         1 RES1    0.0000
     13 C1        -1.1056  -10.5782   -9.5078 C.ar      1 RES1    0.0000
     14 H5        -1.4504  -11.3477   -9.9011 H         1 RES1    0.0000
     15 C2        -1.9611   -9.7700   -8.7997 C.ar      1 RES1    0.0000
     16 H6        -2.8650   -9.9750   -8.7266 H         1 RES1    0.0000
     17 C3        -1.4333   -8.6395   -8.1987 C.ar      1 RES1    0.0000
     18 H7        -1.9828   -8.0776   -7.7011 H         1 RES1    0.0000
     19 C4        -0.0824   -8.3441   -8.3393 C.ar      1 RES1    0.0000
     20 C5         0.7128   -9.2083   -9.1004 C.ar      1 RES1    0.0000
     21 C6         2.1640   -8.9740   -9.3519 C.2       1 RES1    0.0000
     22 C7         0.3773   -7.0755   -7.6749 C.2       1 RES1    0.0000
     23 C8         1.4526   -6.0931   -5.7366 C.3       1 RES1    0.0000
     24 H8         1.1368   -5.2900   -6.2020 H         1 RES1    0.0000
     25 C9         0.8545   -6.0674   -4.3390 C.2       1 RES1    0.0000
     26 C10       -0.3568   -7.2636   -2.7059 C.3       1 RES1    0.0000
     27 H9         0.3611   -7.3943   -2.0824 H         1 RES1    0.0000
     28 H10       -0.9636   -8.0055   -2.6549 H         1 RES1    0.0000
     29 H11       -0.8238   -6.4528   -2.4922 H         1 RES1    0.0000
     30 C11        2.9918   -5.9977   -5.6551 C.3       1 RES1    0.0000
     31 H12        3.3492   -5.9115   -6.5530 H         1 RES1    0.0000
     32 H13        3.2315   -5.1964   -5.1628 H         1 RES1    0.0000
     33 C12        3.6307   -7.1936   -4.9854 C.ar      1 RES1    0.0000
     34 C13        4.1490   -8.2432   -5.7138 C.ar      1 RES1    0.0000
     35 H14        4.1318   -8.2083   -6.6422 H         1 RES1    0.0000
     36 C14        4.6920   -9.3473   -5.0824 C.ar      1 RES1    0.0000
     37 H15        5.0491  -10.0388   -5.5932 H         1 RES1    0.0000
     38 C15        4.7119   -9.4358   -3.7216 C.ar      1 RES1    0.0000
     39 H16        5.0637  -10.1880   -3.3030 H         1 RES1    0.0000
     40 C16        4.2048   -8.3986   -2.9785 C.ar      1 RES1    0.0000
     41 H17        4.2220   -8.4490   -2.0500 H         1 RES1    0.0000
     42 C17        3.6724   -7.2852   -3.5879 C.ar      1 RES1    0.0000
     43 H18        3.3388   -6.5897   -3.0687 H         1 RES1    0.0000
@<TRIPOS>BOND
     1    1   25 2
     2    2   25 1
     3    3    4 1
     4    5   22 2
     5    6   13 ar
     6    7    8 1
     7    9    7 1
     8   10    3 1
     9   11   12 1
    10   13   14 1
    11   15   13 ar
    12   16   15 1
    13   17   15 ar
    14   18   17 1
    15   19   17 ar
    16   20    6 ar
    17   21    7 1
    18   22   11 1
    19   23   11 1
    20   24   23 1
    21   25   23 1
    22   26    2 1
    23   27   26 1
    24   28   26 1
    25   29   26 1
    26   30   23 1
    27   31   30 1
    28   32   30 1
    29   33   30 1
    30   34   33 ar
    31   35   34 1
    32   36   34 ar
    33   37   36 1
    34   38   36 ar
    35   39   38 1
    36   40   38 ar
    37   41   40 1
    38   42   33 ar
    39   43   42 1
    40   10   21 2
    41   19   20 ar
    42   19   22 1
    43   20   21 1
    44   40   42 ar
@<TRIPOS>SUBSTRUCTURE
     1 RES1 1

@<TRIPOS>CRYSIN
   8.5563   10.2899   10.1182  90.0000 104.3150  90.0000   4 1

