# MOL2 file generated by ConQuest
# Please check atom types

@<TRIPOS>MOLECULE
BUQWOZ01
    75    79     1
SMALL
NO_CHARGES
****
Generated from CSD

@<TRIPOS>ATOM
      1 O1        -0.6073  -10.8810  -12.2807 O.2       1 RES1    0.0000
      2 O2         6.5961  -16.9607   -9.1264 O.2       1 RES1    0.0000
      3 N1         0.6700  -10.9410  -12.4592 N.pl3     1 RES1    0.0000
      4 N2         5.4078  -17.4776   -9.0159 N.3       1 RES1    0.0000
      5 C1         1.4355   -9.6669  -12.1482 C.3       1 RES1    0.0000
      6 C2         2.5565   -9.4293  -13.1764 C.3       1 RES1    0.0000
      7 H1         2.1753   -9.3553  -14.0533 H         1 RES1    0.0000
      8 H2         3.1716  -10.1672  -13.1543 H         1 RES1    0.0000
      9 H3         3.0224   -8.6185  -12.9588 H         1 RES1    0.0000
     10 C3         0.4557   -8.5109  -12.1974 C.3       1 RES1    0.0000
     11 H4         0.0946   -8.4349  -13.0846 H         1 RES1    0.0000
     12 H5         0.9094   -7.6968  -11.9663 H         1 RES1    0.0000
     13 H6        -0.2565   -8.6670  -11.5737 H         1 RES1    0.0000
     14 C4         2.0225   -9.7920  -10.7138 C.3       1 RES1    0.0000
     15 H7         1.3094   -9.9401  -10.0883 H         1 RES1    0.0000
     16 H8         2.4852   -8.9820  -10.4860 H         1 RES1    0.0000
     17 H9         2.6344  -10.5307  -10.6815 H         1 RES1    0.0000
     18 C5         1.2331  -12.1517  -12.8671 C.ar      1 RES1    0.0000
     19 C6         2.5547  -12.5426  -12.6461 C.ar      1 RES1    0.0000
     20 H10        3.1558  -11.9398  -12.2705 H         1 RES1    0.0000
     21 C7         2.9769  -13.8028  -12.9792 C.ar      1 RES1    0.0000
     22 H11        3.8563  -14.0490  -12.8025 H         1 RES1    0.0000
     23 C8         2.1033  -14.7417  -13.5842 C.ar      1 RES1    0.0000
     24 C9         0.7863  -14.3383  -13.8137 C.ar      1 RES1    0.0000
     25 H12        0.1920  -14.9370  -14.2046 H         1 RES1    0.0000
     26 C10        0.3435  -13.0804  -13.4755 C.ar      1 RES1    0.0000
     27 H13       -0.5379  -12.8367  -13.6454 H         1 RES1    0.0000
     28 C11        2.5565  -16.1458  -13.8052 C.2       1 RES1    0.0000
     29 C12        3.2418  -16.7532  -12.6087 C.ar      1 RES1    0.0000
     30 C13        2.5880  -16.6633  -11.3562 C.ar      1 RES1    0.0000
     31 H14        1.7050  -16.3754  -11.3103 H         1 RES1    0.0000
     32 C14        3.2759  -17.0112  -10.1869 C.ar      1 RES1    0.0000
     33 H15        2.8344  -16.9843   -9.3677 H         1 RES1    0.0000
     34 C15        4.5903  -17.3894  -10.2345 C.ar      1 RES1    0.0000
     35 C16        5.2260  -17.5429  -11.4734 C.ar      1 RES1    0.0000
     36 H16        6.1048  -17.8442  -11.5176 H         1 RES1    0.0000
     37 C17        4.5231  -17.2372  -12.6461 C.ar      1 RES1    0.0000
     38 H17        4.9356  -17.3660  -13.4687 H         1 RES1    0.0000
     39 C18        5.2463  -18.6442   -8.0727 C.3       1 RES1    0.0000
     40 C19        3.7771  -18.9304   -7.7906 C.3       1 RES1    0.0000
     41 H18        3.3781  -18.1664   -7.3674 H         1 RES1    0.0000
     42 H19        3.7057  -19.6923   -7.2094 H         1 RES1    0.0000
     43 H20        3.3221  -19.1138   -8.6149 H         1 RES1    0.0000
     44 C20        5.9816  -18.3076   -6.7828 C.3       1 RES1    0.0000
     45 H21        5.5650  -17.5510   -6.3647 H         1 RES1    0.0000
     46 H22        6.8975  -18.0984   -6.9833 H         1 RES1    0.0000
     47 H23        5.9475  -19.0599   -6.1896 H         1 RES1    0.0000
     48 C21        5.9058  -19.8557   -8.7525 C.3       1 RES1    0.0000
     49 H24        6.8299  -19.6626   -8.9259 H         1 RES1    0.0000
     50 H25        5.4572  -20.0420   -9.5802 H         1 RES1    0.0000
     51 H26        5.8420  -20.6205   -8.1747 H         1 RES1    0.0000
     52 C22        2.4049  -16.8069  -14.9982 C.2       1 RES1    0.0000
     53 C23        2.6432  -18.2875  -15.1767 C.3       1 RES1    0.0000
     54 H27        2.8842  -18.6953  -14.3184 H         1 RES1    0.0000
     55 C24        3.7981  -18.4961  -16.2100 C.3       1 RES1    0.0000
     56 H28        4.6221  -18.1143  -15.8684 H         1 RES1    0.0000
     57 H29        3.9398  -19.4422  -16.3647 H         1 RES1    0.0000
     58 C25        3.4009  -17.7996  -17.5305 C.3       1 RES1    0.0000
     59 H30        4.1239  -17.9050  -18.1831 H         1 RES1    0.0000
     60 C26        3.1498  -16.3255  -17.2960 C.3       1 RES1    0.0000
     61 H31        2.9309  -15.8980  -18.1390 H         1 RES1    0.0000
     62 H32        3.9570  -15.9134  -16.9510 H         1 RES1    0.0000
     63 C27        1.9873  -16.1046  -16.2882 C.3       1 RES1    0.0000
     64 H33        1.8330  -15.1486  -16.1352 H         1 RES1    0.0000
     65 C28        0.7248  -16.7852  -16.8371 C.3       1 RES1    0.0000
     66 H34       -0.0041  -16.6680  -16.2083 H         1 RES1    0.0000
     67 H35        0.4699  -16.3674  -17.6733 H         1 RES1    0.0000
     68 C29        0.9659  -18.2625  -17.0615 C.3       1 RES1    0.0000
     69 H36        0.1476  -18.6798  -17.4048 H         1 RES1    0.0000
     70 C30        2.1181  -18.4716  -18.0744 C.3       1 RES1    0.0000
     71 H37        2.2735  -19.4204  -18.2035 H         1 RES1    0.0000
     72 H38        1.8795  -18.0836  -18.9292 H         1 RES1    0.0000
     73 C31        1.3647  -18.9273  -15.7205 C.3       1 RES1    0.0000
     74 H39        0.6472  -18.8202  -15.0764 H         1 RES1    0.0000
     75 H40        1.5082  -19.8768  -15.8582 H         1 RES1    0.0000
@<TRIPOS>BOND
     1    1    3 1
     2    2    4 1
     3    3    5 1
     4    4   34 1
     5    5    6 1
     6    6    7 1
     7    8    6 1
     8    9    6 1
     9   10    5 1
    10   11   10 1
    11   12   10 1
    12   13   10 1
    13   14    5 1
    14   15   14 1
    15   16   14 1
    16   17   14 1
    17   18    3 1
    18   19   18 ar
    19   20   19 1
    20   21   19 ar
    21   22   21 1
    22   23   21 ar
    23   24   23 ar
    24   25   24 1
    25   26   18 ar
    26   27   26 1
    27   28   23 1
    28   29   28 1
    29   30   29 ar
    30   31   30 1
    31   32   30 ar
    32   33   32 1
    33   34   32 ar
    34   35   34 ar
    35   36   35 1
    36   37   29 ar
    37   38   37 1
    38   39    4 1
    39   40   39 1
    40   41   40 1
    41   42   40 1
    42   43   40 1
    43   44   39 1
    44   45   44 1
    45   46   44 1
    46   47   44 1
    47   48   39 1
    48   49   48 1
    49   50   48 1
    50   51   48 1
    51   52   28 2
    52   53   52 1
    53   54   53 1
    54   55   53 1
    55   56   55 1
    56   57   55 1
    57   58   55 1
    58   59   58 1
    59   60   58 1
    60   61   60 1
    61   62   60 1
    62   63   52 1
    63   64   63 1
    64   65   63 1
    65   66   65 1
    66   67   65 1
    67   68   65 1
    68   69   68 1
    69   70   58 1
    70   71   70 1
    71   72   70 1
    72   73   53 1
    73   74   73 1
    74   75   73 1
    75   24   26 ar
    76   35   37 ar
    77   60   63 1
    78   68   70 1
    79   68   73 1
@<TRIPOS>SUBSTRUCTURE
     1 RES1 1

@<TRIPOS>CRYSIN
   6.2971   11.9668   17.4475 100.5630  96.7320  94.6610   2 1

