# MOL2 file generated by ConQuest
# Please check atom types

@<TRIPOS>MOLECULE
BURDEX
    21    21     1
SMALL
NO_CHARGES
****
Generated from CSD

@<TRIPOS>ATOM
      1 C1         1.0699    3.9805    2.5351 C.ar      1 RES1    0.0000
      2 C2         1.2644    3.1962    3.6727 C.ar      1 RES1    0.0000
      3 C3         1.1819    1.8184    3.5786 C.ar      1 RES1    0.0000
      4 C4         0.9386    1.2223    2.3525 C.ar      1 RES1    0.0000
      5 C5         0.7750    1.9953    1.2082 C.ar      1 RES1    0.0000
      6 C6         0.8482    3.3769    1.2976 C.ar      1 RES1    0.0000
      7 C7         0.8611   -0.2133    2.2697 C.1       1 RES1    0.0000
      8 N1         0.8051   -1.3628    2.2114 N.1       1 RES1    0.0000
      9 N2         1.1324    5.3973    2.6913 N.am      1 RES1    0.0000
     10 O1         1.7122    5.8390    3.8788 O.3       1 RES1    0.0000
     11 C8         0.7233    6.3623    1.8161 C.2       1 RES1    0.0000
     12 O2         0.3071    6.0649    0.7001 O.2       1 RES1    0.0000
     13 C9         0.8260    7.7816    2.3026 C.3       1 RES1    0.0000
     14 H1         1.3706    3.5388    4.4886 H         1 RES1    0.0000
     15 H2         1.4496    1.3051    4.3662 H         1 RES1    0.0000
     16 H3         0.7176    1.5812    0.3764 H         1 RES1    0.0000
     17 H4         0.5023    3.9153    0.4893 H         1 RES1    0.0000
     18 H5         0.7965    6.1114    4.3192 H         1 RES1    0.0000
     19 H6         0.4090    7.8557    3.0771 H         1 RES1    0.0000
     20 H7         1.8012    7.8933    2.5689 H         1 RES1    0.0000
     21 H8         0.6745    8.2196    1.6562 H         1 RES1    0.0000
@<TRIPOS>BOND
     1    1    2 ar
     2    2    3 ar
     3    3    4 ar
     4    4    5 ar
     5    5    6 ar
     6    6    1 ar
     7    7    4 1
     8    8    7 3
     9    9    1 1
    10   10    9 1
    11   11    9 1
    12   12   11 2
    13   13   11 1
    14   14    2 1
    15   15    3 1
    16   16    5 1
    17   17    6 1
    18   18   10 1
    19   19   13 1
    20   20   13 1
    21   21   13 1
@<TRIPOS>SUBSTRUCTURE
     1 RES1 1

@<TRIPOS>CRYSIN
   7.1760   12.5490    9.4100  90.0000  90.0000  90.0000  33 1

