# MOL2 file generated by ConQuest
# Please check atom types

@<TRIPOS>MOLECULE
BURJAZ
    40    42     1
SMALL
NO_CHARGES
****
Generated from CSD

@<TRIPOS>ATOM
      1 C1         1.0137    1.0220    6.3459 C.3       1 RES1    0.0000
      2 C2         1.5685    1.0984    7.7549 C.3       1 RES1    0.0000
      3 H1         2.2422    0.4220    7.8595 H         1 RES1    0.0000
      4 H2         1.9609    1.9641    7.8870 H         1 RES1    0.0000
      5 C3         0.4798    0.8814    8.8116 C.3       1 RES1    0.0000
      6 H3         0.8121    1.1669    9.6647 H         1 RES1    0.0000
      7 H4         0.2625   -0.0529    8.8483 H         1 RES1    0.0000
      8 C4        -0.7749    1.6671    8.4814 C.3       1 RES1    0.0000
      9 H5        -1.4969    1.3226    9.0134 H         1 RES1    0.0000
     10 H6        -0.6247    2.5882    8.7071 H         1 RES1    0.0000
     11 C5        -1.1800    1.5914    7.0174 C.3       1 RES1    0.0000
     12 H7        -1.9112    2.2094    6.9495 H         1 RES1    0.0000
     13 C6        -1.7509    0.2778    6.5184 C.3       1 RES1    0.0000
     14 H8        -2.1165    0.4178    5.6414 H         1 RES1    0.0000
     15 H9        -2.4502    0.0024    7.1165 H         1 RES1    0.0000
     16 C7        -0.7205   -0.8291    6.4395 C.3       1 RES1    0.0000
     17 H10       -0.5454   -1.1549    7.3256 H         1 RES1    0.0000
     18 H11       -1.0705   -1.5421    5.9001 H         1 RES1    0.0000
     19 C8         0.5895   -0.3397    5.8249 C.3       1 RES1    0.0000
     20 H12        0.4771   -0.2814    4.8727 H         1 RES1    0.0000
     21 H13        1.2804   -0.9745    6.0267 H         1 RES1    0.0000
     22 C9         3.1282    1.0611    5.1369 C.2       1 RES1    0.0000
     23 C10        3.8583    1.8180    4.0710 C.ar      1 RES1    0.0000
     24 C11        4.9940    1.2343    3.5298 C.ar      1 RES1    0.0000
     25 H14        5.3332    0.4106    3.8857 H         1 RES1    0.0000
     26 C12        5.6298    1.8511    2.4731 C.ar      1 RES1    0.0000
     27 C13        5.1950    3.0445    1.9374 C.ar      1 RES1    0.0000
     28 H15        5.6492    3.4635    1.2017 H         1 RES1    0.0000
     29 C14        4.0697    3.6048    2.5134 C.ar      1 RES1    0.0000
     30 C15        3.3908    3.0204    3.5591 C.ar      1 RES1    0.0000
     31 H16        2.6081    3.4377    3.9279 H         1 RES1    0.0000
     32 O1         3.5595    0.0517    5.6194 O.2       1 RES1    0.0000
     33 O2        -0.0459    1.9491    6.1936 O.3       1 RES1    0.0000
     34 O3         1.9607    1.6359    5.4084 O.3       1 RES1    0.0000
     35 N1         6.7872    1.1741    1.8511 N.pl3     1 RES1    0.0000
     36 O4         7.2839    1.6840    0.8769 O.2       1 RES1    0.0000
     37 O5         7.1720    0.1413    2.3575 O.2       1 RES1    0.0000
     38 N2         3.5350    4.8463    1.9245 N.pl3     1 RES1    0.0000
     39 O6         2.5243    5.3224    2.4107 O.2       1 RES1    0.0000
     40 O7         4.1346    5.3399    0.9962 O.2       1 RES1    0.0000
@<TRIPOS>BOND
     1    1    2 1
     2    2    3 1
     3    4    2 1
     4    5    2 1
     5    6    5 1
     6    7    5 1
     7    8    5 1
     8    9    8 1
     9   10    8 1
    10   11    8 1
    11   12   11 1
    12   13   11 1
    13   14   13 1
    14   15   13 1
    15   16   13 1
    16   17   16 1
    17   18   16 1
    18   19    1 1
    19   20   19 1
    20   21   19 1
    21   22   23 1
    22   23   24 ar
    23   24   25 1
    24   26   24 ar
    25   27   26 ar
    26   28   27 1
    27   29   27 ar
    28   30   23 ar
    29   31   30 1
    30   32   22 2
    31   33    1 1
    32   34    1 1
    33   35   26 1
    34   36   35 2
    35   37   35 2
    36   38   29 1
    37   39   38 2
    38   40   38 2
    39   11   33 1
    40   16   19 1
    41   22   34 1
    42   29   30 ar
@<TRIPOS>SUBSTRUCTURE
     1 RES1 1

@<TRIPOS>CRYSIN
  13.7650    6.0120   18.7800  90.0000 102.3400  90.0000  14 1

