# MOL2 file generated by ConQuest
# Please check atom types

@<TRIPOS>MOLECULE
BURKUU
    24    24     1
SMALL
NO_CHARGES
****
Generated from CSD

@<TRIPOS>ATOM
      1 C1         2.2232    0.8567    2.3192 C.ar      1 RES1    0.0000
      2 C2         2.9574    1.2669    3.4388 C.ar      1 RES1    0.0000
      3 C3         2.6037    0.9247    4.7251 C.ar      1 RES1    0.0000
      4 C4         1.5078    0.1032    4.8869 C.ar      1 RES1    0.0000
      5 C5         0.7515   -0.3277    3.8136 C.ar      1 RES1    0.0000
      6 C6         1.0968    0.0673    2.5362 C.ar      1 RES1    0.0000
      7 N1         4.1652    2.0812    3.2642 N.pl3     1 RES1    0.0000
      8 O1         4.2452    3.1049    3.9291 O.2       1 RES1    0.0000
      9 O2         5.0199    1.6904    2.5007 O.2       1 RES1    0.0000
     10 N2         1.1388   -0.3250    6.2324 N.pl3     1 RES1    0.0000
     11 O3         1.6958    0.2119    7.1745 O.2       1 RES1    0.0000
     12 O4         0.3107   -1.1983    6.3607 O.2       1 RES1    0.0000
     13 O5         2.6536    1.2933    1.1177 O.3       1 RES1    0.0000
     14 C7         1.9477    0.8434   -0.0641 C.3       1 RES1    0.0000
     15 O6         0.7044    1.4051   -0.1726 O.3       1 RES1    0.0000
     16 C8         0.7212    2.7956   -0.5238 C.3       1 RES1    0.0000
     17 H1         3.1644    1.2850    5.5754 H         1 RES1    0.0000
     18 H2        -0.1036   -0.9680    3.9725 H         1 RES1    0.0000
     19 H3         0.4880   -0.2390    1.6987 H         1 RES1    0.0000
     20 H4         1.8400   -0.2304   -0.0168 H         1 RES1    0.0000
     21 H5         2.5262    1.1096   -0.9371 H         1 RES1    0.0000
     22 H6        -0.2683    3.0799   -0.8484 H         1 RES1    0.0000
     23 H7         1.4294    2.9825   -1.3179 H         1 RES1    0.0000
     24 H8         0.9946    3.3739    0.3462 H         1 RES1    0.0000
@<TRIPOS>BOND
     1    1    2 ar
     2    2    3 ar
     3    3    4 ar
     4    4    5 ar
     5    5    6 ar
     6    6    1 ar
     7    7    2 1
     8    8    7 2
     9    9    7 2
    10   10    4 1
    11   11   10 2
    12   12   10 2
    13   13    1 1
    14   14   13 1
    15   15   14 1
    16   16   15 1
    17   17    3 1
    18   18    5 1
    19   19    6 1
    20   20   14 1
    21   21   14 1
    22   22   16 1
    23   23   16 1
    24   24   16 1
@<TRIPOS>SUBSTRUCTURE
     1 RES1 1

@<TRIPOS>CRYSIN
   7.0680    7.4680   10.4610 101.1900 101.9700 105.7900   2 1

