# MOL2 file generated by ConQuest
# Please check atom types

@<TRIPOS>MOLECULE
BUTQEO
    46    49     1
SMALL
NO_CHARGES
****
Generated from CSD

@<TRIPOS>ATOM
      1 O1         7.0070    6.7998    1.9640 O.3       1 RES1    0.0000
      2 O2         6.5612    5.9187    4.4712 O.2       1 RES1    0.0000
      3 O3         6.0708    4.8433    1.4253 O.2       1 RES1    0.0000
      4 O4        12.8254    4.9840   -1.1457 O.2       1 RES1    0.0000
      5 O5        12.0489    3.0211   -1.4861 O.2       1 RES1    0.0000
      6 N1        11.9454    4.1559   -1.0689 N.pl3     1 RES1    0.0000
      7 C1         4.2310    6.1447    6.0195 C.3       1 RES1    0.0000
      8 H1         4.6442    6.9144    6.4405 H         1 RES1    0.0000
      9 H2         4.7598    5.3607    6.2365 H         1 RES1    0.0000
     10 C2         2.8043    5.9683    6.5521 C.3       1 RES1    0.0000
     11 H3         2.8353    5.8536    7.5246 H         1 RES1    0.0000
     12 C3         1.9690    7.1946    6.2201 C.3       1 RES1    0.0000
     13 H4         2.3594    7.9805    6.6325 H         1 RES1    0.0000
     14 H5         1.0694    7.0837    6.5665 H         1 RES1    0.0000
     15 C4         1.9214    7.3748    4.7096 C.3       1 RES1    0.0000
     16 H6         1.3781    8.1614    4.4944 H         1 RES1    0.0000
     17 C5         1.2980    6.1376    4.0659 C.3       1 RES1    0.0000
     18 H7         0.3911    6.0202    4.3904 H         1 RES1    0.0000
     19 H8         1.2632    6.2511    3.1022 H         1 RES1    0.0000
     20 C6         2.1315    4.9127    4.4108 C.3       1 RES1    0.0000
     21 H9         1.7248    4.1190    4.0043 H         1 RES1    0.0000
     22 C7         3.5485    5.0929    3.8603 C.3       1 RES1    0.0000
     23 H10        3.5146    5.1980    2.8962 H         1 RES1    0.0000
     24 H11        4.0815    4.3077    4.0623 H         1 RES1    0.0000
     25 C8         4.1974    6.3425    4.5002 C.3       1 RES1    0.0000
     26 C9         3.3449    7.5765    4.1699 C.3       1 RES1    0.0000
     27 H12        3.3167    7.7075    3.2103 H         1 RES1    0.0000
     28 H13        3.7397    8.3650    4.5724 H         1 RES1    0.0000
     29 C10        2.1840    4.7324    5.9215 C.3       1 RES1    0.0000
     30 H14        1.2878    4.6008    6.2685 H         1 RES1    0.0000
     31 H15        2.7139    3.9497    6.1425 H         1 RES1    0.0000
     32 C11        5.6068    6.4261    3.9381 C.2       1 RES1    0.0000
     33 C12        5.7756    7.1531    2.6180 C.3       1 RES1    0.0000
     34 H16        5.0313    6.9352    2.0362 H         1 RES1    0.0000
     35 H17        5.7613    8.1102    2.7762 H         1 RES1    0.0000
     36 C13        7.0194    5.5819    1.4211 C.2       1 RES1    0.0000
     37 C14        8.3281    5.2447    0.7953 C.ar      1 RES1    0.0000
     38 C15        9.3859    6.1382    0.7611 C.ar      1 RES1    0.0000
     39 H18        9.2959    6.9786    1.1501 H         1 RES1    0.0000
     40 C16       10.5738    5.7868    0.1528 C.ar      1 RES1    0.0000
     41 H19       11.2883    6.3820    0.1260 H         1 RES1    0.0000
     42 C17       10.6788    4.5398   -0.4096 C.ar      1 RES1    0.0000
     43 C18        9.6496    3.6378   -0.3946 C.ar      1 RES1    0.0000
     44 H20        9.7473    2.8000   -0.7861 H         1 RES1    0.0000
     45 C19        8.4656    3.9945    0.2132 C.ar      1 RES1    0.0000
     46 H21        7.7562    3.3940    0.2340 H         1 RES1    0.0000
@<TRIPOS>BOND
     1    1   33 1
     2    2   32 2
     3    3   36 2
     4    4    6 2
     5    5    6 2
     6    6   42 1
     7    7    8 1
     8    9    7 1
     9   10    7 1
    10   11   10 1
    11   12   10 1
    12   13   12 1
    13   14   12 1
    14   15   12 1
    15   16   15 1
    16   17   15 1
    17   18   17 1
    18   19   17 1
    19   20   17 1
    20   21   20 1
    21   22   20 1
    22   23   22 1
    23   24   22 1
    24   25    7 1
    25   26   15 1
    26   27   26 1
    27   28   26 1
    28   29   10 1
    29   30   29 1
    30   31   29 1
    31   32   25 1
    32   33   32 1
    33   34   33 1
    34   35   33 1
    35   36    1 1
    36   37   36 1
    37   38   37 ar
    38   39   38 1
    39   40   38 ar
    40   41   40 1
    41   42   40 ar
    42   43   42 ar
    43   44   43 1
    44   45   37 ar
    45   46   45 1
    46   20   29 1
    47   22   25 1
    48   25   26 1
    49   43   45 ar
@<TRIPOS>SUBSTRUCTURE
     1 RES1 1

@<TRIPOS>CRYSIN
  12.8819    6.4845   20.0028  90.0000  90.6280  90.0000  14 1

