# MOL2 file generated by ConQuest
# Please check atom types

@<TRIPOS>MOLECULE
BUVHOR
    40    41     1
SMALL
NO_CHARGES
****
Generated from CSD

@<TRIPOS>ATOM
      1 O1         4.8062    2.8864    8.0175 O.3       1 RES1    0.0000
      2 O2         4.6081    1.5493   11.4218 O.2       1 RES1    0.0000
      3 O3         9.1594   -0.5521   10.6245 O.2       1 RES1    0.0000
      4 O4        10.1798   -0.2563    8.7732 O.2       1 RES1    0.0000
      5 N1         9.2470    1.4936    7.0438 N.3       1 RES1    0.0000
      6 N2         3.4524    0.7967    9.6605 N.am      1 RES1    0.0000
      7 N3         9.1978   -0.1097    9.4880 N.pl3     1 RES1    0.0000
      8 C1         7.0394    2.1662    7.4998 C.ar      1 RES1    0.0000
      9 H1         7.0634    2.7201    6.7288 H         1 RES1    0.0000
     10 C2         8.0830    0.6384    9.0074 C.ar      1 RES1    0.0000
     11 C3         5.9103    2.1446    8.2638 C.ar      1 RES1    0.0000
     12 C4         8.1640    1.3947    7.8202 C.ar      1 RES1    0.0000
     13 C5         6.9138    0.6061    9.7591 C.ar      1 RES1    0.0000
     14 H2         6.8821    0.0674   10.5424 H         1 RES1    0.0000
     15 C6         5.8177    1.3182    9.4086 C.ar      1 RES1    0.0000
     16 C7         4.5654    1.2328   10.2411 C.2       1 RES1    0.0000
     17 C8         4.7706    3.6759    6.8274 C.3       1 RES1    0.0000
     18 H3         4.9054    3.1031    6.0305 H         1 RES1    0.0000
     19 H4         5.4853    4.3602    6.8480 H         1 RES1    0.0000
     20 C9         3.3493    0.2985    8.2789 C.3       1 RES1    0.0000
     21 H5         4.2392    0.3219    7.8476 H         1 RES1    0.0000
     22 H6         2.7382    0.8785    7.7586 H         1 RES1    0.0000
     23 C10        1.5176   -1.1941    9.0183 C.3       1 RES1    0.0000
     24 H7         0.8136   -0.7230    8.5048 H         1 RES1    0.0000
     25 H8         1.2578   -2.1464    9.0909 H         1 RES1    0.0000
     26 C11        2.8352   -1.0853    8.2857 C.3       1 RES1    0.0000
     27 H9         3.4993   -1.6770    8.7198 H         1 RES1    0.0000
     28 H10        2.7174   -1.3938    7.3519 H         1 RES1    0.0000
     29 C12        2.1727    0.7643   10.3671 C.3       1 RES1    0.0000
     30 H11        1.5317    1.3695    9.9152 H         1 RES1    0.0000
     31 H12        2.3004    1.0907   11.2928 H         1 RES1    0.0000
     32 C13        1.6166   -0.5944   10.4027 C.3       1 RES1    0.0000
     33 H13        0.7156   -0.5683   10.8135 H         1 RES1    0.0000
     34 H14        2.1930   -1.1681   10.9669 H         1 RES1    0.0000
     35 C14        3.4321    4.3261    6.7768 C.3       1 RES1    0.0000
     36 H15        2.7345    3.6418    6.8507 H         1 RES1    0.0000
     37 H16        3.3336    4.8026    5.9264 H         1 RES1    0.0000
     38 H17        3.3493    4.9600    7.5176 H         1 RES1    0.0000
     39 H18        9.9526    1.0161    7.2026 H         1 RES1    0.0000
     40 H19        9.2077    1.9603    6.3126 H         1 RES1    0.0000
@<TRIPOS>BOND
     1    1   11 1
     2    2   16 2
     3    3    7 2
     4    4    7 2
     5    5   12 1
     6    6   16 1
     7    7   10 1
     8    8    9 1
     9   10   12 ar
    10   11    8 ar
    11   12    8 ar
    12   13   10 ar
    13   14   13 1
    14   15   11 ar
    15   16   15 1
    16   17    1 1
    17   18   17 1
    18   19   17 1
    19   20    6 1
    20   21   20 1
    21   22   20 1
    22   23   24 1
    23   25   23 1
    24   26   20 1
    25   27   26 1
    26   28   26 1
    27   29    6 1
    28   30   29 1
    29   31   29 1
    30   32   23 1
    31   33   32 1
    32   34   32 1
    33   35   17 1
    34   36   35 1
    35   37   35 1
    36   38   35 1
    37   39    5 1
    38   40    5 1
    39   13   15 ar
    40   23   26 1
    41   29   32 1
@<TRIPOS>SUBSTRUCTURE
     1 RES1 1

@<TRIPOS>CRYSIN
  11.9680    8.9920   16.1750  90.0000 122.1600  90.0000  14 1

