# MOL2 file generated by ConQuest
# Please check atom types

@<TRIPOS>MOLECULE
BUVJOR
    14    17     1
SMALL
USER_CHARGES
****
Generated from CSD

@<TRIPOS>ATOM
      1 O1         5.2920   10.5952    2.6503 O.3       1 RES1    0.0000
      2 O2         3.2426   11.4961    2.1528 O.2       1 RES1   -1.0000
      3 N1         3.8333   10.6029    2.5019 N.pl3     1 RES1    1.0000
      4 N2         5.7644    9.4383    2.9477 N.2       1 RES1    0.0000
      5 C1         3.4299    9.3093    2.7786 C.2       1 RES1    0.0000
      6 C2         4.5823    8.6914    3.0167 C.2       1 RES1    0.0000
      7 C3         4.2993    7.2419    3.2885 C.3       1 RES1    0.0000
      8 C4         3.8565    6.6509    1.8685 C.3       1 RES1    0.0000
      9 C5         3.5355    5.1706    1.8734 C.3       1 RES1    0.0000
     10 C6         2.2634    5.0782    1.0260 C.3       1 RES1    0.0000
     11 C7         1.4678    6.2717    1.4276 C.3       1 RES1    0.0000
     12 C8         2.4724    7.3766    1.5877 C.3       1 RES1    0.0000
     13 C9         2.2979    8.3256    2.8718 C.3       1 RES1    0.0000
     14 C10        2.9343    7.3920    3.9896 C.3       1 RES1    0.0000
@<TRIPOS>BOND
     1    1    3 1
     2    2    3 1
     3    3    5 2
     4    4    1 1
     5    5    6 1
     6    6    4 2
     7    7    6 1
     8    8    7 1
     9    9    8 1
    10   10    9 1
    11   11   10 1
    12   12    8 1
    13   13    5 1
    14   14    7 1
    15   11   12 1
    16   12   13 1
    17   13   14 1
@<TRIPOS>SUBSTRUCTURE
     1 RES1 1

@<TRIPOS>CRYSIN
   7.0400   19.2500    6.9000  90.0000  90.0000  90.0000  19 1

