# MOL2 file generated by ConQuest
# Please check atom types

@<TRIPOS>MOLECULE
BUVMAI
    56    60     1
SMALL
NO_CHARGES
****
Generated from CSD

@<TRIPOS>ATOM
      1 C1        -1.6327    2.5893   12.1381 C.ar      1 RES1    0.0000
      2 H1        -1.0694    3.2775   11.8638 H         1 RES1    0.0000
      3 C2        -1.9606    2.4646   13.4736 C.ar      1 RES1    0.0000
      4 H2        -1.6126    3.0658   14.0914 H         1 RES1    0.0000
      5 C3        -2.7957    1.4614   13.8975 C.ar      1 RES1    0.0000
      6 H3        -3.0094    1.3820   14.7995 H         1 RES1    0.0000
      7 C4        -3.3127    0.5777   12.9875 C.ar      1 RES1    0.0000
      8 H4        -3.8839   -0.1000   13.2675 H         1 RES1    0.0000
      9 C5        -2.9817    0.6969   11.6510 C.ar      1 RES1    0.0000
     10 H5        -3.3335    0.0921   11.0378 H         1 RES1    0.0000
     11 C6        -2.1335    1.7015   11.2061 C.ar      1 RES1    0.0000
     12 C7        -1.8174    1.7872    9.7334 C.3       1 RES1    0.0000
     13 H6        -1.7578    0.8723    9.3890 H         1 RES1    0.0000
     14 C8        -2.9261    2.5152    8.9368 C.3       1 RES1    0.0000
     15 H7        -3.7691    2.0308    9.0595 H         1 RES1    0.0000
     16 C9        -2.5439    2.4529    7.4921 C.2       1 RES1    0.0000
     17 C10       -1.2406    3.1448    7.2139 C.3       1 RES1    0.0000
     18 H8        -1.0208    3.0423    6.2646 H         1 RES1    0.0000
     19 C11       -0.1655    2.4111    8.0662 C.3       1 RES1    0.0000
     20 H9        -0.1584    1.4721    7.7830 H         1 RES1    0.0000
     21 C12        1.2309    2.9512    7.8684 C.ar      1 RES1    0.0000
     22 C13        2.1266    2.2339    7.0922 C.ar      1 RES1    0.0000
     23 H10        1.8611    1.4251    6.7172 H         1 RES1    0.0000
     24 C14        3.4078    2.6999    6.8657 C.ar      1 RES1    0.0000
     25 H11        3.9961    2.2092    6.3386 H         1 RES1    0.0000
     26 C15        3.8082    3.8827    7.4162 C.ar      1 RES1    0.0000
     27 H12        4.6635    4.2067    7.2490 H         1 RES1    0.0000
     28 C16        2.9477    4.5974    8.2194 C.ar      1 RES1    0.0000
     29 H13        3.2287    5.3946    8.6079 H         1 RES1    0.0000
     30 C17        1.6607    4.1283    8.4498 C.ar      1 RES1    0.0000
     31 H14        1.0851    4.6105    8.9990 H         1 RES1    0.0000
     32 C18       -3.1474    3.9911    9.3094 C.3       1 RES1    0.0000
     33 H15       -3.9579    4.3027    8.8780 H         1 RES1    0.0000
     34 H16       -3.2810    4.0538   10.2682 H         1 RES1    0.0000
     35 C19       -1.9931    4.9100    8.9113 C.3       1 RES1    0.0000
     36 H17       -2.2930    5.8317    8.9573 H         1 RES1    0.0000
     37 H18       -1.2706    4.8026    9.5496 H         1 RES1    0.0000
     38 C20       -1.4638    4.6346    7.5170 C.3       1 RES1    0.0000
     39 H19       -0.6230    5.1045    7.4044 H         1 RES1    0.0000
     40 H20       -2.0900    4.9928    6.8694 H         1 RES1    0.0000
     41 C21       -3.7199    1.3145    4.4954 C.2       1 RES1    0.0000
     42 C22       -3.3243    1.5709    3.0927 C.ar      1 RES1    0.0000
     43 C23       -2.0740    2.0134    2.7119 C.ar      1 RES1    0.0000
     44 H21       -1.4023    2.1406    3.3424 H         1 RES1    0.0000
     45 C24       -1.8440    2.2623    1.3759 C.ar      1 RES1    0.0000
     46 H22       -1.0100    2.5562    1.0867 H         1 RES1    0.0000
     47 C25       -2.8599    2.0718    0.4830 C.ar      1 RES1    0.0000
     48 H23       -2.6923    2.2504   -0.4140 H         1 RES1    0.0000
     49 C26       -4.2845    1.3971    2.1084 C.ar      1 RES1    0.0000
     50 H24       -5.1234    1.0879    2.3652 H         1 RES1    0.0000
     51 N1        -0.5374    2.4368    9.4803 N.3       1 RES1    0.0000
     52 N2        -3.3537    1.8520    6.7208 N.2       1 RES1    0.0000
     53 N3        -4.0771    1.6450    0.8187 N.ar      1 RES1    0.0000
     54 O1        -2.8777    1.9305    5.3457 O.3       1 RES1    0.0000
     55 O2        -4.6768    0.6839    4.8178 O.2       1 RES1    0.0000
     56 H25        0.0976    2.0465    9.9261 H         1 RES1    0.0000
@<TRIPOS>BOND
     1    1    2 1
     2    3    1 ar
     3    4    3 1
     4    5    3 ar
     5    6    5 1
     6    7    5 ar
     7    8    7 1
     8    9    7 ar
     9   10    9 1
    10   11    1 ar
    11   12   11 1
    12   13   12 1
    13   14   12 1
    14   15   14 1
    15   16   14 1
    16   17   16 1
    17   18   17 1
    18   19   17 1
    19   20   19 1
    20   21   19 1
    21   22   21 ar
    22   23   22 1
    23   24   22 ar
    24   25   24 1
    25   26   24 ar
    26   27   26 1
    27   28   26 ar
    28   29   28 1
    29   30   21 ar
    30   31   30 1
    31   32   14 1
    32   33   32 1
    33   34   32 1
    34   35   32 1
    35   36   35 1
    36   37   35 1
    37   38   17 1
    38   39   38 1
    39   40   38 1
    40   41   42 1
    41   42   43 ar
    42   43   44 1
    43   45   43 ar
    44   46   45 1
    45   47   45 ar
    46   48   47 1
    47   49   42 ar
    48   50   49 1
    49   51   12 1
    50   52   16 2
    51   53   47 ar
    52   54   41 1
    53   55   41 2
    54   56   51 1
    55    9   11 ar
    56   19   51 1
    57   28   30 ar
    58   35   38 1
    59   49   53 ar
    60   52   54 1
@<TRIPOS>SUBSTRUCTURE
     1 RES1 1

@<TRIPOS>CRYSIN
  10.5208   19.6025   11.3596  90.0000 113.3560  90.0000 231 1

