# MOL2 file generated by ConQuest
# Please check atom types

@<TRIPOS>MOLECULE
BUVWIA
    47    49     1
SMALL
NO_CHARGES
****
Generated from CSD

@<TRIPOS>ATOM
      1 C1         0.9195    4.7964    9.0742 C.3       1 RES1    0.0000
      2 H1         0.6001    5.7090    9.2891 H         1 RES1    0.0000
      3 H2         0.9177    4.6996    8.0884 H         1 RES1    0.0000
      4 C2         2.3487    4.6378    9.5848 C.3       1 RES1    0.0000
      5 H3         2.9443    5.2513    9.0864 H         1 RES1    0.0000
      6 H4         2.3835    4.8876   10.5426 H         1 RES1    0.0000
      7 N1         2.8247    3.2680    9.4257 N.3       1 RES1    0.0000
      8 C3         4.2009    3.1269    9.8890 C.3       1 RES1    0.0000
      9 H5         4.4988    2.2042    9.7490 H         1 RES1    0.0000
     10 H6         4.2482    3.3438   10.8441 H         1 RES1    0.0000
     11 H7         4.7797    3.7376    9.3862 H         1 RES1    0.0000
     12 O1         2.8624    2.9965    7.9974 O.3       1 RES1    0.0000
     13 C4         2.0319    1.8474    7.7178 C.3       1 RES1    0.0000
     14 H8         1.7370    1.4424    8.5721 H         1 RES1    0.0000
     15 H9         2.5649    1.1715    7.2283 H         1 RES1    0.0000
     16 C5         0.8174    2.2124    6.8970 C.2       1 RES1    0.0000
     17 C6         0.9258    2.1604    5.4127 C.ar      1 RES1    0.0000
     18 C7         1.5546    1.0894    4.7674 C.ar      1 RES1    0.0000
     19 H10        1.9338    0.3876    5.2832 H         1 RES1    0.0000
     20 C8         1.6318    1.0401    3.3805 C.ar      1 RES1    0.0000
     21 H11        2.0500    0.3004    2.9550 H         1 RES1    0.0000
     22 C9         1.1028    2.0654    2.6171 C.ar      1 RES1    0.0000
     23 H12        1.1703    2.0377    1.6691 H         1 RES1    0.0000
     24 C10        0.4766    3.1294    3.2388 C.ar      1 RES1    0.0000
     25 H13        0.1066    3.8322    2.7166 H         1 RES1    0.0000
     26 C11        0.3864    3.1749    4.6268 C.ar      1 RES1    0.0000
     27 H14       -0.0488    3.9090    5.0431 H         1 RES1    0.0000
     28 C12       -0.3395    2.5696    7.4786 C.2       1 RES1    0.0000
     29 H15       -1.0758    2.7289    6.8996 H         1 RES1    0.0000
     30 C13       -0.5906    2.7423    8.9347 C.ar      1 RES1    0.0000
     31 C14       -1.4899    1.8565    9.5640 C.ar      1 RES1    0.0000
     32 H16       -1.8783    1.1525    9.0575 H         1 RES1    0.0000
     33 C15       -1.8190    1.9901   10.9010 C.ar      1 RES1    0.0000
     34 O2        -2.6545    1.1632   11.6012 O.3       1 RES1    0.0000
     35 C16       -3.3014    0.1285   10.8642 C.3       1 RES1    0.0000
     36 H17       -3.8427    0.5253   10.1492 H         1 RES1    0.0000
     37 H18       -3.8804   -0.3870   11.4641 H         1 RES1    0.0000
     38 H19       -2.6270   -0.4644   10.4728 H         1 RES1    0.0000
     39 C17       -1.2847    3.0681   11.6362 C.ar      1 RES1    0.0000
     40 O3        -1.7083    3.1580   12.9308 O.3       1 RES1    0.0000
     41 C18       -1.3088    4.3180   13.6617 C.3       1 RES1    0.0000
     42 H20       -0.3386    4.3009   13.7974 H         1 RES1    0.0000
     43 H21       -1.7587    4.3273   14.5315 H         1 RES1    0.0000
     44 H22       -1.5544    5.1223   13.1587 H         1 RES1    0.0000
     45 C19       -0.4013    3.9384   11.0226 C.ar      1 RES1    0.0000
     46 H23       -0.0310    4.6542   11.5254 H         1 RES1    0.0000
     47 C20       -0.0387    3.7880    9.6689 C.ar      1 RES1    0.0000
@<TRIPOS>BOND
     1    1    2 1
     2    3    1 1
     3    4    1 1
     4    5    4 1
     5    6    4 1
     6    7    4 1
     7    8    7 1
     8    9    8 1
     9   10    8 1
    10   11    8 1
    11   12    7 1
    12   13   12 1
    13   14   13 1
    14   15   13 1
    15   16   13 1
    16   17   16 1
    17   18   17 ar
    18   19   18 1
    19   20   18 ar
    20   21   20 1
    21   22   20 ar
    22   23   22 1
    23   24   22 ar
    24   25   24 1
    25   26   17 ar
    26   27   26 1
    27   28   16 2
    28   29   28 1
    29   30   28 1
    30   31   30 ar
    31   32   31 1
    32   33   31 ar
    33   34   33 1
    34   35   34 1
    35   36   35 1
    36   37   35 1
    37   38   35 1
    38   39   33 ar
    39   40   39 1
    40   41   40 1
    41   42   41 1
    42   43   41 1
    43   44   41 1
    44   45   39 ar
    45   46   45 1
    46   47    1 1
    47   24   26 ar
    48   30   47 ar
    49   45   47 ar
@<TRIPOS>SUBSTRUCTURE
     1 RES1 1

@<TRIPOS>CRYSIN
  16.5518    6.1433   17.8034  90.0000 106.9310  90.0000 231 1

