# MOL2 file generated by ConQuest
# Please check atom types

@<TRIPOS>MOLECULE
BUXDOO
    88    88     2
SMALL
NO_CHARGES
****
Generated from CSD

@<TRIPOS>ATOM
      1 C1         7.0420    2.1964   11.8474 C.3       1 RES1    0.0000
      2 H1         7.3265    1.8668   12.7141 H         1 RES1    0.0000
      3 H2         7.8383    2.2991   11.3026 H         1 RES1    0.0000
      4 C2         6.4253    3.5730   12.0461 C.3       1 RES1    0.0000
      5 H3         6.4533    4.0862   11.2117 H         1 RES1    0.0000
      6 O1         7.1505    4.2625   13.0887 O.3       1 RES1    0.0000
      7 C3         5.0052    3.5356   12.6031 C.3       1 RES1    0.0000
      8 H4         4.5657    4.3953   12.4355 H         1 RES1    0.0000
      9 O2         5.2605    3.3991   14.0062 O.3       1 RES1    0.0000
     10 C4         4.1191    2.4174   12.1225 C.3       1 RES1    0.0000
     11 H5         3.7484    2.6613   11.2602 H         1 RES1    0.0000
     12 H6         3.3811    2.3148   12.7424 H         1 RES1    0.0000
     13 C5         4.8420    1.0711   11.9859 C.3       1 RES1    0.0000
     14 H7         5.0588    0.7643   12.8918 H         1 RES1    0.0000
     15 C6         3.8836    0.0664   11.3874 C.2       1 RES1    0.0000
     16 O3         3.0873   -0.5579   12.0885 O.2       1 RES1    0.0000
     17 C7         3.8953   -0.0881    9.9314 C.2       1 RES1    0.0000
     18 H8         3.2412   -0.6219    9.5417 H         1 RES1    0.0000
     19 C8         4.7895    0.4939    9.1410 C.2       1 RES1    0.0000
     20 C9         5.8936    1.3995    9.6822 C.3       1 RES1    0.0000
     21 O4         5.4179    2.7483    9.6132 O.3       1 RES1    0.0000
     22 H9         5.2244    2.9306    8.8369 H         1 RES1    0.0000
     23 C10        6.1560    1.1254   11.1978 C.3       1 RES1    0.0000
     24 C11        7.1866    1.3041    8.8753 C.3       1 RES1    0.0000
     25 H10        7.6600    0.5011    9.1459 H         1 RES1    0.0000
     26 H11        7.7462    2.0636    9.0974 H         1 RES1    0.0000
     27 C12        6.9919    1.2691    7.3403 C.3       1 RES1    0.0000
     28 H12        6.6188    2.1119    7.0396 H         1 RES1    0.0000
     29 H13        7.8500    1.1447    6.9063 H         1 RES1    0.0000
     30 C13        6.0510    0.1244    6.9576 C.3       1 RES1    0.0000
     31 C14        4.6904    0.4118    7.6105 C.3       1 RES1    0.0000
     32 O5         4.2509    1.7352    7.1862 O.3       1 RES1    0.0000
     33 H14        3.4312    1.7630    7.1830 H         1 RES1    0.0000
     34 C15        3.7705   -0.6279    6.9900 C.3       1 RES1    0.0000
     35 H15        2.8413   -0.3586    7.0558 H         1 RES1    0.0000
     36 H16        3.8813   -1.4937    7.4132 H         1 RES1    0.0000
     37 C16        4.2450   -0.6593    5.5109 C.3       1 RES1    0.0000
     38 H17        3.6096   -0.1944    4.9455 H         1 RES1    0.0000
     39 H18        4.3208   -1.5758    5.2020 H         1 RES1    0.0000
     40 C17        5.6325    0.0447    5.4594 C.3       1 RES1    0.0000
     41 H19        5.4727    0.9636    5.1596 H         1 RES1    0.0000
     42 C18        6.5815   -1.2196    7.4617 C.3       1 RES1    0.0000
     43 H20        6.4987   -1.2570    8.4169 H         1 RES1    0.0000
     44 H21        7.5049   -1.3113    7.2153 H         1 RES1    0.0000
     45 H22        6.0720   -1.9320    7.0679 H         1 RES1    0.0000
     46 C19        6.8473   -0.2306   11.3894 C.3       1 RES1    0.0000
     47 H23        6.8660   -0.4504   12.3244 H         1 RES1    0.0000
     48 H24        7.7451   -0.1823   11.0542 H         1 RES1    0.0000
     49 H25        6.3623   -0.9080   10.9128 H         1 RES1    0.0000
     50 C20        6.5873   -0.5953    4.4461 C.3       1 RES1    0.0000
     51 O6         6.6316   -2.0081    4.6852 O.3       1 RES1    0.0000
     52 H26        7.0747   -2.3715    4.0994 H         1 RES1    0.0000
     53 C21        7.9864   -0.0097    4.5053 C.3       1 RES1    0.0000
     54 H27        8.4155   -0.2850    5.3191 H         1 RES1    0.0000
     55 H28        7.9339    0.9491    4.4790 H         1 RES1    0.0000
     56 H29        8.4959   -0.3212    3.7541 H         1 RES1    0.0000
     57 C22        6.5116    1.9344    0.0687 C.3       1 RES1    0.0000
     58 H30        6.5710    2.7942    0.5351 H         1 RES1    0.0000
     59 C23        5.2524    1.9308   -0.6684 C.3       1 RES1    0.0000
     60 H31        5.2139    2.7024   -1.2399 H         1 RES1    0.0000
     61 H32        4.5179    1.9537   -0.0505 H         1 RES1    0.0000
     62 H33        5.1964    1.1351   -1.2036 H         1 RES1    0.0000
     63 C24        7.6705    1.8559   -0.8502 C.3       1 RES1    0.0000
     64 H34        7.6786    2.6275   -1.4196 H         1 RES1    0.0000
     65 H35        7.6005    1.0626   -1.3853 H         1 RES1    0.0000
     66 H36        8.4831    1.8269   -0.3372 H         1 RES1    0.0000
     67 C25        6.3775    4.2202   14.2994 C.3       1 RES1    0.0000
     68 C26        7.1703    3.5561   15.3878 C.3       1 RES1    0.0000
     69 H37        6.6048    3.4076   16.1512 H         1 RES1    0.0000
     70 H38        7.9048    4.1212   15.6403 H         1 RES1    0.0000
     71 H39        7.5072    2.7157   15.0708 H         1 RES1    0.0000
     72 C27        5.9589    5.6294   14.6507 C.3       1 RES1    0.0000
     73 H40        5.5019    6.0230   13.9036 H         1 RES1    0.0000
     74 H41        6.7366    6.1510   14.8608 H         1 RES1    0.0000
     75 H42        5.3713    5.6088   15.4100 H         1 RES1    0.0000
     76 O7         6.8811   -1.0988    2.0943 O.3       1 RES1    0.0000
     77 N1         7.0502   -0.2717    0.9412 N.2       1 RES1    0.0000
     78 C28        6.5104    0.8537    1.1248 C.2       1 RES1    0.0000
     79 C29        5.9146    1.0179    2.4717 C.3       1 RES1    0.0000
     80 H43        4.9959    1.3222    2.4172 H         1 RES1    0.0000
     81 H44        6.4264    1.6422    3.0109 H         1 RES1    0.0000
     82 C30        5.9997   -0.3973    3.0291 C.3       1 RES1    0.0000
     83 H45        5.1101   -0.8054    2.9948 H         1 RES1    0.0000
     84 C31        7.6938    2.6637    0.1777 Du        2 SUP2    0.0000
     85 H46        6.9208    1.3270   -0.5816 Du        2 SUP2    0.0000
     86 H47        8.4434    2.0660    0.1272 Du        2 SUP2    0.0000
     87 H48        7.7078    3.1262    1.0178 Du        2 SUP2    0.0000
     88 H49        7.7427    3.3001   -0.5392 Du        2 SUP2    0.0000
@<TRIPOS>BOND
     1    1    2 1
     2    3    1 1
     3    4    1 1
     4    5    4 1
     5    6    4 1
     6    7    4 1
     7    8    7 1
     8    9    7 1
     9   10    7 1
    10   11   10 1
    11   12   10 1
    12   13   10 1
    13   14   13 1
    14   15   13 1
    15   16   15 2
    16   17   15 1
    17   18   17 1
    18   19   17 2
    19   20   19 1
    20   21   20 1
    21   22   21 1
    22   23    1 1
    23   24   20 1
    24   25   24 1
    25   26   24 1
    26   27   24 1
    27   28   27 1
    28   29   27 1
    29   30   27 1
    30   31   19 1
    31   32   31 1
    32   33   32 1
    33   34   31 1
    34   35   34 1
    35   36   34 1
    36   37   34 1
    37   38   37 1
    38   39   37 1
    39   40   30 1
    40   41   40 1
    41   42   30 1
    42   43   42 1
    43   44   42 1
    44   45   42 1
    45   46   23 1
    46   47   46 1
    47   48   46 1
    48   49   46 1
    49   50   40 1
    50   51   50 1
    51   52   51 1
    52   53   50 1
    53   54   53 1
    54   55   53 1
    55   56   53 1
    56   57   58 1
    57   59   57 1
    58   60   59 1
    59   61   59 1
    60   62   59 1
    61   63   57 1
    62   64   63 1
    63   65   63 1
    64   66   63 1
    65   67    6 1
    66   68   67 1
    67   69   68 1
    68   70   68 1
    69   71   68 1
    70   72   67 1
    71   73   72 1
    72   74   72 1
    73   75   72 1
    74   76   77 1
    75   77   78 2
    76   78   57 1
    77   79   78 1
    78   80   79 1
    79   81   79 1
    80   82   50 1
    81   83   82 1
    82    9   67 1
    83   13   23 1
    84   20   23 1
    85   30   31 1
    86   37   40 1
    87   76   82 1
    88   79   82 1
@<TRIPOS>SUBSTRUCTURE
     1 RES1 1
     2 SUP2 84

@<TRIPOS>CRYSIN
  11.6590   12.0750   20.1940  90.0000  90.0000  90.0000  19 1

