# MOL2 file generated by ConQuest
# Please check atom types

@<TRIPOS>MOLECULE
BUXMAJ
    64    70     1
SMALL
NO_CHARGES
****
Generated from CSD

@<TRIPOS>ATOM
      1 C1         0.7453    6.8633    7.9463 C.3       1 RES1    0.0000
      2 H1         0.2313    6.1240    8.3047 H         1 RES1    0.0000
      3 H2         1.2135    6.5586    7.1531 H         1 RES1    0.0000
      4 C2        -0.1601    8.0185    7.6078 C.3       1 RES1    0.0000
      5 H3         0.3222    8.6452    7.0458 H         1 RES1    0.0000
      6 H4        -0.9187    7.6879    7.1000 H         1 RES1    0.0000
      7 C3        -0.6638    8.7405    8.8291 C.ar      1 RES1    0.0000
      8 C4        -1.7862    9.5665    8.7196 C.ar      1 RES1    0.0000
      9 H5        -2.2005    9.6661    7.8932 H         1 RES1    0.0000
     10 C5        -2.2857   10.2293    9.8037 C.ar      1 RES1    0.0000
     11 H6        -3.0176   10.7953    9.7097 H         1 RES1    0.0000
     12 C6        -1.7008   10.0560   11.0317 C.ar      1 RES1    0.0000
     13 H7        -2.0408   10.4993   11.7751 H         1 RES1    0.0000
     14 C7        -0.6086    9.2257   11.1644 C.ar      1 RES1    0.0000
     15 H8        -0.2335    9.0972   12.0052 H         1 RES1    0.0000
     16 C8        -0.0582    8.5788   10.0703 C.ar      1 RES1    0.0000
     17 C9         1.1363    7.6662   10.2352 C.3       1 RES1    0.0000
     18 H9         0.8563    6.8402   10.6832 H         1 RES1    0.0000
     19 C10        2.3780    8.2315   10.9365 C.3       1 RES1    0.0000
     20 H10        2.5940    9.0972   10.5339 H         1 RES1    0.0000
     21 C11        2.2621    8.4156   12.4267 C.ar      1 RES1    0.0000
     22 C12        2.2986    9.6921   12.9610 C.ar      1 RES1    0.0000
     23 H11        2.4506   10.4228   12.4046 H         1 RES1    0.0000
     24 C13        2.1089    9.8871   14.3206 C.ar      1 RES1    0.0000
     25 H12        2.1359   10.7491   14.6669 H         1 RES1    0.0000
     26 C14        1.8854    8.8503   15.1437 C.ar      1 RES1    0.0000
     27 H13        1.7355    8.9976   16.0497 H         1 RES1    0.0000
     28 C15        1.8775    7.5752   14.6425 C.ar      1 RES1    0.0000
     29 H14        1.7517    6.8532   15.2156 H         1 RES1    0.0000
     30 C16        2.0557    7.3572   13.2829 C.ar      1 RES1    0.0000
     31 H15        2.0375    6.4893   12.9477 H         1 RES1    0.0000
     32 C17        3.4407    7.2056   10.4918 C.3       1 RES1    0.0000
     33 H16        3.3227    6.4171   11.0616 H         1 RES1    0.0000
     34 C18        4.8983    7.5926   10.5870 C.2       1 RES1    0.0000
     35 C19        5.3037    8.7622   11.4476 C.ar      1 RES1    0.0000
     36 C20        5.2897   10.0098   10.8613 C.ar      1 RES1    0.0000
     37 H17        5.0267   10.0993    9.9741 H         1 RES1    0.0000
     38 C21        5.6630   11.1304   11.5826 C.ar      1 RES1    0.0000
     39 H18        5.6351   11.9679   11.1810 H         1 RES1    0.0000
     40 C22        6.0777   11.0119   12.8869 C.ar      1 RES1    0.0000
     41 H19        6.3257   11.7700   13.3659 H         1 RES1    0.0000
     42 C23        6.1258    9.7773   13.4854 C.ar      1 RES1    0.0000
     43 H20        6.4274    9.6892   14.3615 H         1 RES1    0.0000
     44 C24        5.7216    8.6712   12.7718 C.ar      1 RES1    0.0000
     45 C25        3.0151    6.7810    9.0515 C.3       1 RES1    0.0000
     46 C26        3.1294    5.2547    8.8546 C.2       1 RES1    0.0000
     47 C27        4.0240    5.0049    7.7085 C.ar      1 RES1    0.0000
     48 C28        4.4678    3.7891    7.2040 C.ar      1 RES1    0.0000
     49 H21        4.2178    2.9847    7.5978 H         1 RES1    0.0000
     50 C29        5.2893    3.8208    6.1011 C.ar      1 RES1    0.0000
     51 H22        5.6062    3.0223    5.7448 H         1 RES1    0.0000
     52 C30        5.6527    5.0121    5.5147 C.ar      1 RES1    0.0000
     53 H23        6.1835    5.0020    4.7503 H         1 RES1    0.0000
     54 C31        5.2482    6.2179    6.0380 C.ar      1 RES1    0.0000
     55 H24        5.5201    7.0207    5.6563 H         1 RES1    0.0000
     56 C32        4.4272    6.2005    7.1443 C.ar      1 RES1    0.0000
     57 C33        3.8879    7.3413    7.9120 C.2       1 RES1    0.0000
     58 O1         6.1353    7.3326   14.5994 O.2       1 RES1    0.0000
     59 O2         5.3062    6.4187   12.8493 O.2       1 RES1    0.0000
     60 O3         5.7199    7.0366    9.9022 O.2       1 RES1    0.0000
     61 O4         2.5507    4.4290    9.5172 O.2       1 RES1    0.0000
     62 O5         4.0423    8.5140    7.6731 O.2       1 RES1    0.0000
     63 N1         1.6844    7.3442    8.9287 N.3       1 RES1    0.0000
     64 N2         5.7247    7.3832   13.4500 N.pl3     1 RES1    0.0000
@<TRIPOS>BOND
     1    1    2 1
     2    3    1 1
     3    4    1 1
     4    5    4 1
     5    6    4 1
     6    7    4 1
     7    8    7 ar
     8    9    8 1
     9   10    8 ar
    10   11   10 1
    11   12   10 ar
    12   13   12 1
    13   14   12 ar
    14   15   14 1
    15   16    7 ar
    16   17   16 1
    17   18   17 1
    18   19   17 1
    19   20   19 1
    20   21   19 1
    21   22   21 ar
    22   23   22 1
    23   24   22 ar
    24   25   24 1
    25   26   24 ar
    26   27   26 1
    27   28   26 ar
    28   29   28 1
    29   30   21 ar
    30   31   30 1
    31   32   19 1
    32   33   32 1
    33   34   32 1
    34   35   34 1
    35   36   35 ar
    36   37   36 1
    37   38   36 ar
    38   39   38 1
    39   40   38 ar
    40   41   40 1
    41   42   40 ar
    42   43   42 1
    43   44   35 ar
    44   45   32 1
    45   46   45 1
    46   47   46 1
    47   48   47 ar
    48   49   48 1
    49   50   48 ar
    50   51   50 1
    51   52   50 ar
    52   53   52 1
    53   54   52 ar
    54   55   54 1
    55   56   47 ar
    56   57   45 1
    57   58   64 2
    58   59   64 2
    59   60   34 2
    60   61   46 2
    61   62   57 2
    62   63    1 1
    63   64   44 1
    64   14   16 ar
    65   17   63 1
    66   28   30 ar
    67   42   44 ar
    68   45   63 1
    69   54   56 ar
    70   56   57 1
@<TRIPOS>SUBSTRUCTURE
     1 RES1 1

@<TRIPOS>CRYSIN
  16.4050   14.4400   11.1202  90.0000  95.8310  90.0000  14 1

