# MOL2 file generated by ConQuest
# Please check atom types

@<TRIPOS>MOLECULE
BUXWOI
    56    61     1
SMALL
NO_CHARGES
****
Generated from CSD

@<TRIPOS>ATOM
      1 C1         4.3956    3.5420    7.7247 C.ar      1 RES1    0.0000
      2 C2         3.5913    4.5413    7.2151 C.ar      1 RES1    0.0000
      3 H1         3.7707    4.9243    6.3645 H         1 RES1    0.0000
      4 C3         2.5243    4.9680    7.9711 C.ar      1 RES1    0.0000
      5 H2         1.9514    5.6500    7.6399 H         1 RES1    0.0000
      6 C4         2.2795    4.4004    9.2258 C.ar      1 RES1    0.0000
      7 C5         3.1188    3.4114    9.7156 C.ar      1 RES1    0.0000
      8 H3         2.9570    3.0348   10.5732 H         1 RES1    0.0000
      9 C6         4.1885    2.9716    8.9610 C.ar      1 RES1    0.0000
     10 H4         4.7675    2.2929    9.2870 H         1 RES1    0.0000
     11 C7         1.0767    4.8609    9.9723 C.2       1 RES1    0.0000
     12 C8        -0.0731    4.7834   12.0413 C.3       1 RES1    0.0000
     13 H5        -0.7616    5.2111   11.4554 H         1 RES1    0.0000
     14 C9        -0.6566    3.5104   12.6501 C.2       1 RES1    0.0000
     15 C10       -1.5211    3.6906   13.8179 C.2       1 RES1    0.0000
     16 C11       -1.5990    4.8982   14.3973 C.2       1 RES1    0.0000
     17 C12       -0.8513    6.1244   13.9723 C.3       1 RES1    0.0000
     18 H6        -0.5430    6.6150   14.7747 H         1 RES1    0.0000
     19 H7        -1.4582    6.7194   13.4650 H         1 RES1    0.0000
     20 C13        0.3535    5.7696   13.1030 C.3       1 RES1    0.0000
     21 H8         0.7130    6.5876   12.6767 H         1 RES1    0.0000
     22 H9         1.0668    5.3723   13.6635 H         1 RES1    0.0000
     23 C14       -2.2286    2.4768   14.3825 C.3       1 RES1    0.0000
     24 H10       -1.5372    1.8398   14.7224 H         1 RES1    0.0000
     25 C15       -3.0921    2.9050   15.5436 C.2       1 RES1    0.0000
     26 C16       -3.1755    4.1435   15.9886 C.2       1 RES1    0.0000
     27 C17       -4.0116    1.8292   16.0730 C.3       1 RES1    0.0000
     28 C18       -4.7625    2.2290   17.3187 C.3       1 RES1    0.0000
     29 H11       -4.1663    2.1388   18.1049 H         1 RES1    0.0000
     30 H12       -5.5323    1.6198   17.4482 H         1 RES1    0.0000
     31 C19       -5.2655    3.6673   17.2292 C.3       1 RES1    0.0000
     32 H13       -5.7604    3.8944   18.0562 H         1 RES1    0.0000
     33 H14       -5.8915    3.7495   16.4669 H         1 RES1    0.0000
     34 C20       -4.1071    4.6496   17.0445 C.3       1 RES1    0.0000
     35 H15       -4.4596    5.5365   16.7808 H         1 RES1    0.0000
     36 H16       -3.6180    4.7530   17.8992 H         1 RES1    0.0000
     37 C21       -3.1328    1.7245   13.3802 C.3       1 RES1    0.0000
     38 H17       -3.6814    2.3750   12.8751 H         1 RES1    0.0000
     39 H18       -2.5710    1.2265   12.7344 H         1 RES1    0.0000
     40 C22       -4.0455    0.7522   14.1231 C.3       1 RES1    0.0000
     41 H19       -4.5859    0.2129   13.4776 H         1 RES1    0.0000
     42 C23       -3.3030   -0.1614   15.0996 C.3       1 RES1    0.0000
     43 H20       -2.3742   -0.3335   14.7711 H         1 RES1    0.0000
     44 C24       -4.0112   -1.4759   15.3812 C.3       1 RES1    0.0000
     45 H21       -3.5922   -1.9148   16.1512 H         1 RES1    0.0000
     46 H22       -3.9437   -2.0587   14.5961 H         1 RES1    0.0000
     47 H23       -4.9555   -1.3025   15.5793 H         1 RES1    0.0000
     48 N1         5.5306    3.0725    6.9160 N.pl3     1 RES1    0.0000
     49 O1         6.2156    2.1717    7.3542 O.2       1 RES1    0.0000
     50 O2         5.7460    3.6071    5.8449 O.2       1 RES1    0.0000
     51 O3         0.2196    5.5361    9.4856 O.2       1 RES1    0.0000
     52 O4         1.0635    4.4091   11.2373 O.3       1 RES1    0.0000
     53 O5        -0.4416    2.4225   12.1468 O.2       1 RES1    0.0000
     54 O6        -2.3802    5.1791   15.4804 O.3       1 RES1    0.0000
     55 O7        -3.2655    0.6275   16.3101 O.3       1 RES1    0.0000
     56 O8        -4.9084    1.4836   15.0244 O.3       1 RES1    0.0000
@<TRIPOS>BOND
     1    1    2 ar
     2    2    3 1
     3    4    2 ar
     4    5    4 1
     5    6    4 ar
     6    7    6 ar
     7    8    7 1
     8    9    1 ar
     9   10    9 1
    10   11    6 1
    11   12   13 1
    12   14   12 1
    13   15   14 1
    14   16   15 2
    15   17   16 1
    16   18   17 1
    17   19   17 1
    18   20   12 1
    19   21   20 1
    20   22   20 1
    21   23   15 1
    22   24   23 1
    23   25   23 1
    24   26   25 2
    25   27   25 1
    26   28   27 1
    27   29   28 1
    28   30   28 1
    29   31   28 1
    30   32   31 1
    31   33   31 1
    32   34   26 1
    33   35   34 1
    34   36   34 1
    35   37   23 1
    36   38   37 1
    37   39   37 1
    38   40   37 1
    39   41   40 1
    40   42   40 1
    41   43   42 1
    42   44   42 1
    43   45   44 1
    44   46   44 1
    45   47   44 1
    46   48    1 1
    47   49   48 2
    48   50   48 2
    49   51   11 2
    50   52   11 1
    51   53   14 2
    52   54   16 1
    53   55   27 1
    54   56   27 1
    55    7    9 ar
    56   12   52 1
    57   17   20 1
    58   26   54 1
    59   31   34 1
    60   40   56 1
    61   42   55 1
@<TRIPOS>SUBSTRUCTURE
     1 RES1 1

@<TRIPOS>CRYSIN
   5.8132   10.1364   18.2510  90.0000  98.7220  90.0000   4 1

