# MOL2 file generated by ConQuest
# Please check atom types

@<TRIPOS>MOLECULE
BUXWOG
    18    17     1
SMALL
NO_CHARGES
****
Generated from CSD

@<TRIPOS>ATOM
      1 C1        -0.5420    2.0570    6.0821 C.3       1 RES1    0.0000
      2 O1         0.4287    2.7342    5.2695 O.3       1 RES1    0.0000
      3 N1        -0.0866    2.9085    3.9923 N.2       1 RES1    0.0000
      4 C2         0.7950    3.4254    3.2343 C.2       1 RES1    0.0000
      5 C3         0.4254    3.7043    1.8163 C.2       1 RES1    0.0000
      6 O2        -0.8087    3.5456    1.5019 O.3       1 RES1    0.0000
      7 O3         1.3199    4.0584    1.0420 O.2       1 RES1    0.0000
      8 C4         2.1644    3.8597    3.7117 C.2       1 RES1    0.0000
      9 O4         2.3465    4.9025    4.2752 O.2       1 RES1    0.0000
     10 O5         3.0588    2.9289    3.4357 O.3       1 RES1    0.0000
     11 C5         4.4158    3.2961    3.8642 C.3       1 RES1    0.0000
     12 H1         5.1147    2.5191    3.5976 H         1 RES1    0.0000
     13 H2         4.4463    3.4597    4.9365 H         1 RES1    0.0000
     14 H3         4.6787    4.2122    3.3531 H         1 RES1    0.0000
     15 H4        -1.4539    2.5518    6.1706 H         1 RES1    0.0000
     16 H5        -0.1080    1.9957    6.9157 H         1 RES1    0.0000
     17 H6        -0.6946    1.3904    5.6700 H         1 RES1    0.0000
     18 H7        -0.8922    3.5006    0.8965 H         1 RES1    0.0000
@<TRIPOS>BOND
     1    1    2 1
     2    2    3 1
     3    3    4 2
     4    4    5 1
     5    5    6 1
     6    6   18 1
     7    7    5 2
     8    8    4 1
     9    9    8 2
    10   10    8 1
    11   11   10 1
    12   12   11 1
    13   13   11 1
    14   14   11 1
    15   15    1 1
    16   16    1 1
    17   17    1 1
@<TRIPOS>SUBSTRUCTURE
     1 RES1 1

@<TRIPOS>CRYSIN
   7.8740    8.1790   11.7220  90.0000  96.6700  90.0000 231 1

