# MOL2 file generated by ConQuest
# Please check atom types

@<TRIPOS>MOLECULE
BUYPUG10
    34    36     1
SMALL
NO_CHARGES
****
Generated from CSD

@<TRIPOS>ATOM
      1 C1        -1.1567   -0.4110   -0.8684 C.3       1 RES1    0.0000
      2 C2        -1.6197    0.7528    0.0063 C.3       1 RES1    0.0000
      3 C3        -0.0000   -0.0000   -1.7833 C.3       1 RES1    0.0000
      4 N1        -2.3520   -0.8220   -1.7295 N.pl3     1 RES1    0.0000
      5 O1        -3.2598   -1.4087   -1.1713 O.2       1 RES1    0.0000
      6 O2        -2.3543   -0.5307   -2.8955 O.2       1 RES1    0.0000
      7 H1        -1.9055    1.5118   -0.5487 H         1 RES1    0.0000
      8 H2        -2.3465    0.5039    0.5698 H         1 RES1    0.0000
      9 H3        -0.2283    0.7874   -2.3953 H         1 RES1    0.0000
     10 C2A       -0.7528   -1.6197   -0.0063 C.3       1 RES1    0.0000
     11 C1C       -0.4110    1.1567    0.8684 C.3       1 RES1    0.0000
     12 C1B        1.1567    0.4110   -0.8684 C.3       1 RES1    0.0000
     13 H3B        0.2283   -0.7874   -2.3953 H         1 RES1    0.0000
     14 C1A        0.4110   -1.1567    0.8684 C.3       1 RES1    0.0000
     15 H1A       -1.5118   -1.9055    0.5487 H         1 RES1    0.0000
     16 H2A       -0.5039   -2.3465   -0.5698 H         1 RES1    0.0000
     17 C2C        0.7528    1.6197   -0.0063 C.3       1 RES1    0.0000
     18 C3A        0.0000    0.0000    1.7833 C.3       1 RES1    0.0000
     19 N1C       -0.8220    2.3520    1.7295 N.pl3     1 RES1    0.0000
     20 C2B        1.6197   -0.7528    0.0063 C.3       1 RES1    0.0000
     21 N1B        2.3520    0.8220   -1.7295 N.pl3     1 RES1    0.0000
     22 N1A        0.8220   -2.3520    1.7295 N.pl3     1 RES1    0.0000
     23 H1C        1.5118    1.9055    0.5487 H         1 RES1    0.0000
     24 H2C        0.5039    2.3465   -0.5698 H         1 RES1    0.0000
     25 H3A       -0.7874   -0.2283    2.3953 H         1 RES1    0.0000
     26 H3C        0.7874    0.2283    2.3953 H         1 RES1    0.0000
     27 O1C       -1.4087    3.2598    1.1713 O.2       1 RES1    0.0000
     28 O2C       -0.5307    2.3543    2.8955 O.2       1 RES1    0.0000
     29 H1B        1.9055   -1.5118   -0.5487 H         1 RES1    0.0000
     30 H2B        2.3465   -0.5039    0.5698 H         1 RES1    0.0000
     31 O1B        3.2598    1.4087   -1.1713 O.2       1 RES1    0.0000
     32 O2B        2.3543    0.5307   -2.8955 O.2       1 RES1    0.0000
     33 O1A        1.4087   -3.2598    1.1713 O.2       1 RES1    0.0000
     34 O2A        0.5307   -2.3543    2.8955 O.2       1 RES1    0.0000
@<TRIPOS>BOND
     1    1    2 1
     2    2    7 1
     3    3    1 1
     4    4    1 1
     5    5    4 2
     6    6    4 2
     7    8    2 1
     8    9    3 1
     9   10    1 1
    10   11    2 1
    11   12    3 1
    12   13    3 1
    13   14   10 1
    14   15   10 1
    15   16   10 1
    16   17   11 1
    17   18   11 1
    18   19   11 1
    19   20   12 1
    20   21   12 1
    21   22   14 1
    22   23   17 1
    23   24   17 1
    24   25   18 1
    25   26   18 1
    26   27   19 2
    27   28   19 2
    28   29   20 1
    29   30   20 1
    30   31   21 2
    31   32   21 2
    32   33   22 2
    33   34   22 2
    34   12   17 1
    35   14   20 1
    36   14   18 1
@<TRIPOS>SUBSTRUCTURE
     1 RES1 1

@<TRIPOS>CRYSIN
   7.8740    7.8740   10.5520  90.0000  90.0000  90.0000 114 1

