# MOL2 file generated by ConQuest
# Please check atom types

@<TRIPOS>MOLECULE
BYPOXO
    34    36     1
SMALL
NO_CHARGES
****
Generated from CSD

@<TRIPOS>ATOM
      1 O1         6.0196    1.6346    1.2048 O.3       1 RES1    0.0000
      2 C1         7.0958    0.9525    1.7244 C.2       1 RES1    0.0000
      3 N1         6.9905   -0.3324    1.7443 N.2       1 RES1    0.0000
      4 C2         5.7360   -0.6128    1.2104 C.2       1 RES1    0.0000
      5 C3         5.0974    0.6663    0.8519 C.2       1 RES1    0.0000
      6 O2         4.0449    0.9322    0.3748 O.2       1 RES1    0.0000
      7 C4         5.1048   -1.7806    0.9996 C.2       1 RES1    0.0000
      8 C5         5.5747   -3.1363    1.2637 C.ar      1 RES1    0.0000
      9 C6         4.7943   -4.2781    0.9996 C.ar      1 RES1    0.0000
     10 C7         5.2751   -5.5572    1.1529 C.ar      1 RES1    0.0000
     11 C8         6.5506   -5.7147    1.6328 C.ar      1 RES1    0.0000
     12 C9         7.3568   -4.6365    1.9587 C.ar      1 RES1    0.0000
     13 C10        6.8674   -3.3675    1.7443 C.ar      1 RES1    0.0000
     14 N2         3.3888   -4.1899    0.5459 N.pl3     1 RES1    0.0000
     15 O3         2.7081   -3.2433    0.9066 O.2       1 RES1    0.0000
     16 O4         2.9613   -5.0932   -0.1391 O.2       1 RES1    0.0000
     17 N3         7.0766   -7.0747    1.7997 N.pl3     1 RES1    0.0000
     18 O5         6.4202   -8.0026    1.3602 O.2       1 RES1    0.0000
     19 O6         8.1427   -7.2135    2.3534 O.2       1 RES1    0.0000
     20 C11        8.2293    1.7503    2.1511 C.ar      1 RES1    0.0000
     21 C12        8.1768    3.1536    2.1419 C.ar      1 RES1    0.0000
     22 C13        9.2886    3.8748    2.5125 C.ar      1 RES1    0.0000
     23 C14       10.4398    3.2259    2.8958 C.ar      1 RES1    0.0000
     24 C15       10.4978    1.8471    2.9100 C.ar      1 RES1    0.0000
     25 C16        9.3972    1.1042    2.5451 C.ar      1 RES1    0.0000
     26 H1         4.2624   -1.6621    0.6531 H         1 RES1    0.0000
     27 H2         4.7763   -6.2437    0.9868 H         1 RES1    0.0000
     28 H3         8.2779   -4.6828    2.3073 H         1 RES1    0.0000
     29 H4         7.3776   -2.7461    1.9736 H         1 RES1    0.0000
     30 H5         7.3689    3.5554    1.8529 H         1 RES1    0.0000
     31 H6         9.2706    4.8273    2.4990 H         1 RES1    0.0000
     32 H7        11.1567    3.7144    3.1734 H         1 RES1    0.0000
     33 H8        11.3317    1.4308    3.1024 H         1 RES1    0.0000
     34 H9         9.4097    0.1445    2.5842 H         1 RES1    0.0000
@<TRIPOS>BOND
     1    1    2 1
     2    2    3 2
     3    3    4 1
     4    4    5 1
     5    5    1 1
     6    6    5 2
     7    7    4 2
     8    8    7 1
     9    9    8 ar
    10   10    9 ar
    11   11   10 ar
    12   12   11 ar
    13   13    8 ar
    14   14    9 1
    15   15   14 2
    16   16   14 2
    17   17   11 1
    18   18   17 2
    19   19   17 2
    20   20    2 1
    21   21   20 ar
    22   22   21 ar
    23   23   22 ar
    24   24   23 ar
    25   25   20 ar
    26   26    7 1
    27   27   10 1
    28   28   12 1
    29   29   13 1
    30   30   21 1
    31   31   22 1
    32   32   23 1
    33   33   24 1
    34   34   25 1
    35   12   13 ar
    36   24   25 ar
@<TRIPOS>SUBSTRUCTURE
     1 RES1 1

@<TRIPOS>CRYSIN
  14.3090   14.4530    7.1070  90.0000  92.6600  90.0000 231 1

