# MOL2 file generated by ConQuest
# Please check atom types

@<TRIPOS>MOLECULE
BZHYDX01
    29    30     1
SMALL
NO_CHARGES
****
Generated from CSD

@<TRIPOS>ATOM
      1 O1        -2.2302   -1.2774    0.4772 O.2       1 RES1    0.0000
      2 O2        -4.2813   -2.2321    1.8428 O.3       1 RES1    0.0000
      3 O3        -3.0530   -4.1205    1.6142 O.2       1 RES1    0.0000
      4 N1        -4.3004   -2.1611    0.4415 N.am      1 RES1    0.0000
      5 C1        -3.2369   -1.6177   -0.1544 C.2       1 RES1    0.0000
      6 C2        -3.5603   -3.3080    2.3221 C.2       1 RES1    0.0000
      7 C3        -3.3333   -1.4520   -1.6359 C.ar      1 RES1    0.0000
      8 C4        -2.5120   -0.4859   -2.2191 C.ar      1 RES1    0.0000
      9 C5        -2.5269   -0.3061   -3.6020 C.ar      1 RES1    0.0000
     10 C6        -3.3526   -1.0841   -4.3939 C.ar      1 RES1    0.0000
     11 C7        -4.1740   -2.0443   -3.8193 C.ar      1 RES1    0.0000
     12 C8        -4.1738   -2.2287   -2.4373 C.ar      1 RES1    0.0000
     13 C9        -3.5272   -3.2877    3.8072 C.ar      1 RES1    0.0000
     14 C10       -4.3200   -2.4305    4.5636 C.ar      1 RES1    0.0000
     15 C11       -4.2501   -2.4796    5.9543 C.ar      1 RES1    0.0000
     16 C12       -3.3777   -3.3669    6.5697 C.ar      1 RES1    0.0000
     17 C13       -2.5742   -4.2088    5.8130 C.ar      1 RES1    0.0000
     18 C14       -2.6558   -4.1791    4.4276 C.ar      1 RES1    0.0000
     19 H1        -5.0607   -2.4861    0.0422 H         1 RES1    0.0000
     20 H2        -1.9258    0.0462   -1.6239 H         1 RES1    0.0000
     21 H3        -1.9437    0.3789   -3.9832 H         1 RES1    0.0000
     22 H4        -3.3499   -0.9427   -5.3990 H         1 RES1    0.0000
     23 H5        -4.7830   -2.5785   -4.3741 H         1 RES1    0.0000
     24 H6        -4.7383   -2.9297   -2.0232 H         1 RES1    0.0000
     25 H7        -4.9622   -1.8207    4.1111 H         1 RES1    0.0000
     26 H8        -4.8905   -1.8576    6.4676 H         1 RES1    0.0000
     27 H9        -3.2962   -3.4011    7.5615 H         1 RES1    0.0000
     28 H10       -1.9168   -4.8521    6.2553 H         1 RES1    0.0000
     29 H11       -2.0870   -4.7689    3.8834 H         1 RES1    0.0000
@<TRIPOS>BOND
     1    1    5 2
     2    2    4 1
     3    3    6 2
     4    4    5 1
     5    5    7 1
     6    6    2 1
     7    7    8 ar
     8    8    9 ar
     9    9   10 ar
    10   10   11 ar
    11   11   12 ar
    12   12    7 ar
    13   13    6 1
    14   14   13 ar
    15   15   14 ar
    16   16   15 ar
    17   17   16 ar
    18   18   13 ar
    19   19    4 1
    20   20    8 1
    21   21    9 1
    22   22   10 1
    23   23   11 1
    24   24   12 1
    25   25   14 1
    26   26   15 1
    27   27   16 1
    28   28   17 1
    29   29   18 1
    30   17   18 ar
@<TRIPOS>SUBSTRUCTURE
     1 RES1 1

@<TRIPOS>CRYSIN
   8.9570    9.2420   14.0600  90.0000  90.0000  90.0000  19 1

