# MOL2 file generated by ConQuest
# Please check atom types

@<TRIPOS>MOLECULE
BZHYDX
    29    30     1
SMALL
NO_CHARGES
****
Generated from CSD

@<TRIPOS>ATOM
      1 C1         1.8808    0.8685    1.0943 C.ar      1 RES1    0.0000
      2 C2         7.3297   -0.9882    1.2818 C.ar      1 RES1    0.0000
      3 C3         1.0858    0.0735    1.9079 C.ar      1 RES1    0.0000
      4 C4         8.0908   -0.1243    2.0622 C.ar      1 RES1    0.0000
      5 C5        -0.2951    0.2817    1.9357 C.ar      1 RES1    0.0000
      6 C6         9.4717   -0.1865    1.9895 C.ar      1 RES1    0.0000
      7 C7        -0.8867    1.2434    1.1204 C.ar      1 RES1    0.0000
      8 C8        10.0972   -1.0899    1.1553 C.ar      1 RES1    0.0000
      9 C9        -0.0762    2.0441    0.3220 C.ar      1 RES1    0.0000
     10 C10        9.3376   -1.9339    0.3480 C.ar      1 RES1    0.0000
     11 C11        1.3019    1.8520    0.3068 C.ar      1 RES1    0.0000
     12 C12        7.9510   -1.8925    0.4404 C.ar      1 RES1    0.0000
     13 C13        3.3507    0.6952    0.9652 C.2       1 RES1    0.0000
     14 C14        5.8485   -1.0013    1.3186 C.2       1 RES1    0.0000
     15 H1         1.5010   -0.6415    2.4703 H         1 RES1    0.0000
     16 H2         7.6446    0.5332    2.6695 H         1 RES1    0.0000
     17 H3        -0.8670   -0.2666    2.5466 H         1 RES1    0.0000
     18 H4        10.0238    0.4314    2.5484 H         1 RES1    0.0000
     19 H5        -1.8808    1.3574    1.1087 H         1 RES1    0.0000
     20 H6        11.0969   -1.1332    1.1293 H         1 RES1    0.0000
     21 H7        -0.4871    2.7601   -0.2422 H         1 RES1    0.0000
     22 H8         9.7837   -2.5622   -0.2888 H         1 RES1    0.0000
     23 H9         1.8780    2.4247   -0.2763 H         1 RES1    0.0000
     24 H10        7.3975   -2.5217   -0.1058 H         1 RES1    0.0000
     25 H11        3.4213   -0.2025    2.8031 H         1 RES1    0.0000
     26 N1         3.9508    0.1394    2.0254 N.am      1 RES1    0.0000
     27 O1         4.0002    1.0447   -0.0188 O.2       1 RES1    0.0000
     28 O2         5.3585    0.0641    2.0039 O.3       1 RES1    0.0000
     29 O3         5.1467   -1.8134    0.8010 O.2       1 RES1    0.0000
@<TRIPOS>BOND
     1    1    3 ar
     2    2    4 ar
     3    3    5 ar
     4    4    6 ar
     5    5    7 ar
     6    6    8 ar
     7    7    9 ar
     8    8   10 ar
     9    9   11 ar
    10   10   12 ar
    11   11    1 ar
    12   12    2 ar
    13   13    1 1
    14   14    2 1
    15   15    3 1
    16   16    4 1
    17   17    5 1
    18   18    6 1
    19   19    7 1
    20   20    8 1
    21   21    9 1
    22   22   10 1
    23   23   11 1
    24   24   12 1
    25   25   26 1
    26   26   13 1
    27   27   13 2
    28   28   14 1
    29   29   14 2
    30   26   28 1
@<TRIPOS>SUBSTRUCTURE
     1 RES1 1

@<TRIPOS>CRYSIN
  14.1200    9.4200    8.9700  90.0000  90.0000  90.0000  19 1

