# MOL2 file generated by ConQuest
# Please check atom types

@<TRIPOS>MOLECULE
CABJAS
    21    22     1
SMALL
NO_CHARGES
****
Generated from CSD

@<TRIPOS>ATOM
      1 O1        -0.5168    4.9922    5.7232 O.2       1 RES1    0.0000
      2 O2        -0.6803    0.7333    6.5646 O.2       1 RES1    0.0000
      3 N1        -0.5932    4.1286    3.5782 N.am      1 RES1    0.0000
      4 H1        -0.5782    4.8708    3.1453 H         1 RES1    0.0000
      5 N2        -0.5886    2.0078    6.4171 N.pl3     1 RES1    0.0000
      6 C1        -0.5930    2.5608    5.2238 C.2       1 RES1    0.0000
      7 C2        -0.6504    1.8653    3.9503 C.ar      1 RES1    0.0000
      8 C3        -0.6535    2.8692    2.9662 C.ar      1 RES1    0.0000
      9 C4        -0.5595    4.0418    4.9425 C.2       1 RES1    0.0000
     10 C5        -0.7015    0.5260    3.5855 C.ar      1 RES1    0.0000
     11 H2        -0.7108   -0.1430    4.2316 H         1 RES1    0.0000
     12 C6        -0.4875    2.7867    7.6736 C.3       1 RES1    0.0000
     13 H3        -0.5082    2.1873    8.4243 H         1 RES1    0.0000
     14 H4        -1.2252    3.3978    7.7320 H         1 RES1    0.0000
     15 H5         0.3369    3.2784    7.6801 H         1 RES1    0.0000
     16 C7        -0.6991    2.5616    1.6099 C.ar      1 RES1    0.0000
     17 H6        -0.7071    3.2266    0.9606 H         1 RES1    0.0000
     18 C8        -0.7395    0.2083    2.2269 C.ar      1 RES1    0.0000
     19 H7        -0.7701   -0.6832    1.9634 H         1 RES1    0.0000
     20 C9        -0.7325    1.2053    1.2695 C.ar      1 RES1    0.0000
     21 H8        -0.7497    0.9668    0.3705 H         1 RES1    0.0000
@<TRIPOS>BOND
     1    1    9 2
     2    2    5 1
     3    3    4 1
     4    5    6 2
     5    6    7 1
     6    7    8 ar
     7    8    3 1
     8    9    3 1
     9   10    7 ar
    10   11   10 1
    11   12    5 1
    12   13   12 1
    13   14   12 1
    14   15   12 1
    15   16    8 ar
    16   17   16 1
    17   18   10 ar
    18   19   18 1
    19   20   16 ar
    20   21   20 1
    21    6    9 1
    22   18   20 ar
@<TRIPOS>SUBSTRUCTURE
     1 RES1 1

@<TRIPOS>CRYSIN
   6.9510    8.0290    8.6580 103.0000  98.4600 115.4040   2 1

