# MOL2 file generated by ConQuest
# Please check atom types

@<TRIPOS>MOLECULE
CABKEX
    41    43     1
SMALL
NO_CHARGES
****
Generated from CSD

@<TRIPOS>ATOM
      1 N1        -0.7499    0.8143   12.5624 N.pl3     1 RES1    0.0000
      2 O1        -0.6911   -0.4684   12.4140 O.2       1 RES1    0.0000
      3 C1        -0.4163    1.6493   11.6387 C.2       1 RES1    0.0000
      4 H1        -0.5292    2.5618   11.7800 H         1 RES1    0.0000
      5 O2         0.3093    2.2896    9.4932 O.3       1 RES1    0.0000
      6 C2         0.1451    1.1722   10.3514 C.3       1 RES1    0.0000
      7 H2         1.0188    0.7590   10.5150 H         1 RES1    0.0000
      8 O3        -0.1697    0.4652    8.2032 O.3       1 RES1    0.0000
      9 C3        -0.6962    0.2418    9.5114 C.3       1 RES1    0.0000
     10 H3        -0.5815   -0.6815    9.7852 H         1 RES1    0.0000
     11 H4        -1.6360    0.4755    9.5585 H         1 RES1    0.0000
     12 C4         0.2853    1.8087    8.1362 C.3       1 RES1    0.0000
     13 C5         1.6796    1.8027    7.5551 C.3       1 RES1    0.0000
     14 H5         2.2232    1.1597    8.0371 H         1 RES1    0.0000
     15 H6         2.0786    2.6789    7.6741 H         1 RES1    0.0000
     16 C6         1.6864    1.4498    6.0733 C.3       1 RES1    0.0000
     17 H7         2.5882    1.5398    5.7264 H         1 RES1    0.0000
     18 H8         1.4159    0.5248    5.9631 H         1 RES1    0.0000
     19 C7         0.7760    2.3210    5.2953 C.3       1 RES1    0.0000
     20 H9         0.7616    2.0283    4.3710 H         1 RES1    0.0000
     21 H10        1.1058    3.2324    5.3163 H         1 RES1    0.0000
     22 C8        -0.6154    2.2825    5.8503 C.3       1 RES1    0.0000
     23 H11       -0.9831    1.3923    5.7351 H         1 RES1    0.0000
     24 H12       -1.1750    2.9033    5.3585 H         1 RES1    0.0000
     25 C9        -0.6372    2.6485    7.3284 C.3       1 RES1    0.0000
     26 H13       -0.3882    3.5805    7.4288 H         1 RES1    0.0000
     27 H14       -1.5401    2.5444    7.6691 H         1 RES1    0.0000
     28 C10       -1.2050    1.2942   13.8899 C.3       1 RES1    0.0000
     29 H15       -1.0632    2.2522   13.9494 H         1 RES1    0.0000
     30 H16       -0.6741    0.8707   14.5825 H         1 RES1    0.0000
     31 C11       -2.6615    0.9911   14.1241 C.ar      1 RES1    0.0000
     32 C12       -3.0720   -0.1263   14.8439 C.ar      1 RES1    0.0000
     33 H17       -2.4396   -0.7216   15.1759 H         1 RES1    0.0000
     34 C13       -4.4109   -0.3546   15.0657 C.ar      1 RES1    0.0000
     35 H18       -4.6761   -1.0984   15.5575 H         1 RES1    0.0000
     36 C14       -5.3553    0.5010   14.5726 C.ar      1 RES1    0.0000
     37 H19       -6.2575    0.3454   14.7361 H         1 RES1    0.0000
     38 C15       -4.9686    1.5913   13.8341 C.ar      1 RES1    0.0000
     39 H20       -5.6091    2.1616   13.4761 H         1 RES1    0.0000
     40 C16       -3.6257    1.8412   13.6223 C.ar      1 RES1    0.0000
     41 H21       -3.3688    2.5910   13.1354 H         1 RES1    0.0000
@<TRIPOS>BOND
     1    1    2 1
     2    3    1 2
     3    4    3 1
     4    5    6 1
     5    6    3 1
     6    7    6 1
     7    8    9 1
     8    9    6 1
     9   10    9 1
    10   11    9 1
    11   12    5 1
    12   13   12 1
    13   14   13 1
    14   15   13 1
    15   16   13 1
    16   17   16 1
    17   18   16 1
    18   19   16 1
    19   20   19 1
    20   21   19 1
    21   22   19 1
    22   23   22 1
    23   24   22 1
    24   25   12 1
    25   26   25 1
    26   27   25 1
    27   28    1 1
    28   29   28 1
    29   30   28 1
    30   31   28 1
    31   32   31 ar
    32   33   32 1
    33   34   32 ar
    34   35   34 1
    35   36   34 ar
    36   37   36 1
    37   38   36 ar
    38   39   38 1
    39   40   31 ar
    40   41   40 1
    41    8   12 1
    42   22   25 1
    43   38   40 ar
@<TRIPOS>SUBSTRUCTURE
     1 RES1 1

@<TRIPOS>CRYSIN
  10.8820    5.4217   13.1680  90.0000 109.8000  90.0000   4 1

