# MOL2 file generated by ConQuest
# Please check atom types

@<TRIPOS>MOLECULE
CABMID
    43    45     1
SMALL
NO_CHARGES
****
Generated from CSD

@<TRIPOS>ATOM
      1 N1        -1.6891    1.8436   10.0364 N.pl3     1 RES1    0.0000
      2 H1        -1.9023    2.2013    9.2842 H         1 RES1    0.0000
      3 N2        -0.4920    1.1981   10.1798 N.2       1 RES1    0.0000
      4 C1        -2.5429    1.9155   11.0980 C.ar      1 RES1    0.0000
      5 C2         0.2677    1.1393    9.1287 C.2       1 RES1    0.0000
      6 N3        -4.2936    3.1389    9.8226 N.pl3     1 RES1    0.0000
      7 C3        -3.8062    2.5327   11.0366 C.ar      1 RES1    0.0000
      8 C4         2.3421    0.0636    8.3408 C.2       1 RES1    0.0000
      9 H2         2.1296    0.3461    7.4807 H         1 RES1    0.0000
     10 C5         3.5720   -0.7238    8.5014 C.ar      1 RES1    0.0000
     11 C6         1.5093    0.4076    9.3092 C.2       1 RES1    0.0000
     12 H3         1.7376    0.1605   10.1765 H         1 RES1    0.0000
     13 O1        -3.6431    3.0375    8.7799 O.2       1 RES1    0.0000
     14 O2        -5.3620    3.7436    9.8455 O.2       1 RES1    0.0000
     15 C7        -0.0882    1.7415    7.8151 C.ar      1 RES1    0.0000
     16 C8        -3.0271    1.3896   13.4005 C.ar      1 RES1    0.0000
     17 H4        -2.7588    1.0034   14.2026 H         1 RES1    0.0000
     18 C9         4.2478   -0.8164    9.7076 C.ar      1 RES1    0.0000
     19 H5         3.9269   -0.3546   10.4482 H         1 RES1    0.0000
     20 C10       -4.6400    2.5718   12.1481 C.ar      1 RES1    0.0000
     21 H6        -5.4666    2.9923   12.0877 H         1 RES1    0.0000
     22 C11       -2.1965    1.3411   12.3239 C.ar      1 RES1    0.0000
     23 H7        -1.3746    0.9136   12.4062 H         1 RES1    0.0000
     24 C12        4.0769   -1.4340    7.4199 C.ar      1 RES1    0.0000
     25 H8         3.6431   -1.3884    6.5989 H         1 RES1    0.0000
     26 C13        5.2193   -2.2110    7.5474 C.ar      1 RES1    0.0000
     27 H9         5.5453   -2.6845    6.8156 H         1 RES1    0.0000
     28 C14        0.4340    2.9571    7.4293 C.ar      1 RES1    0.0000
     29 H10        1.0559    3.3832    7.9738 H         1 RES1    0.0000
     30 C15       -4.2619    2.0036   13.3201 C.ar      1 RES1    0.0000
     31 H11       -4.8258    2.0271   14.0586 H         1 RES1    0.0000
     32 C16        5.3868   -1.5811    9.8288 C.ar      1 RES1    0.0000
     33 H12        5.8327   -1.6239   10.6438 H         1 RES1    0.0000
     34 C17        0.0470    3.5503    6.2454 C.ar      1 RES1    0.0000
     35 H13        0.4043    4.3734    6.0017 H         1 RES1    0.0000
     36 C18        5.8652   -2.2786    8.7501 C.ar      1 RES1    0.0000
     37 H14        6.6304   -2.7998    8.8368 H         1 RES1    0.0000
     38 C19       -0.8586    2.9348    5.4302 C.ar      1 RES1    0.0000
     39 H15       -1.1305    3.3411    4.6386 H         1 RES1    0.0000
     40 C20       -0.9865    1.1293    6.9752 C.ar      1 RES1    0.0000
     41 H16       -1.3475    0.3051    7.2102 H         1 RES1    0.0000
     42 C21       -1.3591    1.7247    5.7860 C.ar      1 RES1    0.0000
     43 H17       -1.9585    1.2910    5.2229 H         1 RES1    0.0000
@<TRIPOS>BOND
     1    1    2 1
     2    3    1 1
     3    4    1 1
     4    5    3 2
     5    6    7 1
     6    7    4 ar
     7    8    9 1
     8   10    8 1
     9   11    5 1
    10   12   11 1
    11   13    6 2
    12   14    6 2
    13   15    5 1
    14   16   17 1
    15   18   10 ar
    16   19   18 1
    17   20    7 ar
    18   21   20 1
    19   22    4 ar
    20   23   22 1
    21   24   10 ar
    22   25   24 1
    23   26   24 ar
    24   27   26 1
    25   28   15 ar
    26   29   28 1
    27   30   16 ar
    28   31   30 1
    29   32   18 ar
    30   33   32 1
    31   34   28 ar
    32   35   34 1
    33   36   26 ar
    34   37   36 1
    35   38   34 ar
    36   39   38 1
    37   40   15 ar
    38   41   40 1
    39   42   38 ar
    40   43   42 1
    41    8   11 2
    42   16   22 ar
    43   20   30 ar
    44   32   36 ar
    45   40   42 ar
@<TRIPOS>SUBSTRUCTURE
     1 RES1 1

@<TRIPOS>CRYSIN
   8.1686    9.8684   11.7741  93.0160  93.7530 110.3700   2 1

