# MOL2 file generated by ConQuest
# Please check atom types

@<TRIPOS>MOLECULE
CACFOD
    37    38     1
SMALL
NO_CHARGES
****
Generated from CSD

@<TRIPOS>ATOM
      1 N1         0.7686    1.5784    6.1184 N.2       1 RES1    0.0000
      2 N2         2.0365    2.0613    6.2983 N.pl3     1 RES1    0.0000
      3 H1         2.5894    1.6401    6.8053 H         1 RES1    0.0000
      4 N3        -1.6322    0.6235    5.4948 N.pl3     1 RES1    0.0000
      5 N4         4.7795    3.0334    6.5148 N.pl3     1 RES1    0.0000
      6 N5         3.5000    6.8894    3.8561 N.pl3     1 RES1    0.0000
      7 O1        -2.5433    1.3659    5.8102 O.2       1 RES1    0.0000
      8 O2        -1.3325    0.3652    4.3500 O.2       1 RES1    0.0000
      9 O3         4.5093    1.9697    7.0938 O.2       1 RES1    0.0000
     10 O4         5.8980    3.5252    6.5582 O.2       1 RES1    0.0000
     11 O5         4.5647    7.4079    4.1833 O.2       1 RES1    0.0000
     12 O6         2.7202    7.3869    3.0648 O.2       1 RES1    0.0000
     13 C1         1.2436   -0.0853    7.9305 C.3       1 RES1    0.0000
     14 H2         1.7833    0.5828    8.3800 H         1 RES1    0.0000
     15 H3         1.8433   -0.7335    7.5285 H         1 RES1    0.0000
     16 C2         0.3554   -0.7851    8.9495 C.3       1 RES1    0.0000
     17 H4         0.9112   -1.2788    9.5730 H         1 RES1    0.0000
     18 H5        -0.1377   -0.1196    9.4527 H         1 RES1    0.0000
     19 C3        -0.6196   -1.7356    8.2902 C.3       1 RES1    0.0000
     20 H6        -0.1312   -2.4971    7.9406 H         1 RES1    0.0000
     21 H7        -1.2418   -2.0638    8.9572 H         1 RES1    0.0000
     22 C4        -1.3927   -1.0930    7.1720 C.2       1 RES1    0.0000
     23 C5        -0.8705   -0.0153    6.5852 C.2       1 RES1    0.0000
     24 C6         0.4304    0.5751    6.8528 C.2       1 RES1    0.0000
     25 C7         2.4206    3.2020    5.6795 C.ar      1 RES1    0.0000
     26 C8         1.5068    3.9438    4.9037 C.ar      1 RES1    0.0000
     27 H8         0.6412    3.6238    4.7961 H         1 RES1    0.0000
     28 C9         1.8555    5.1119    4.3085 C.ar      1 RES1    0.0000
     29 H9         1.2346    5.5782    3.7971 H         1 RES1    0.0000
     30 C10        3.1451    5.6106    4.4644 C.ar      1 RES1    0.0000
     31 C11        4.0878    4.9280    5.1899 C.ar      1 RES1    0.0000
     32 H10        4.9481    5.2684    5.2852 H         1 RES1    0.0000
     33 C12        3.7397    3.7211    5.7810 C.ar      1 RES1    0.0000
     34 C13       -2.6869   -1.7120    6.7708 C.3       1 RES1    0.0000
     35 H11       -3.3335   -1.5816    7.4676 H         1 RES1    0.0000
     36 H12       -2.5602   -2.6517    6.6241 H         1 RES1    0.0000
     37 H13       -3.0003   -1.3010    5.9619 H         1 RES1    0.0000
@<TRIPOS>BOND
     1    1    2 1
     2    2    3 1
     3    4    7 2
     4    5    9 2
     5    6   11 2
     6    8    4 2
     7   10    5 2
     8   12    6 2
     9   13   14 1
    10   15   13 1
    11   16   13 1
    12   17   16 1
    13   18   16 1
    14   19   16 1
    15   20   19 1
    16   21   19 1
    17   22   19 1
    18   23    4 1
    19   24    1 2
    20   25    2 1
    21   26   25 ar
    22   27   26 1
    23   28   26 ar
    24   29   28 1
    25   30    6 1
    26   31   30 ar
    27   32   31 1
    28   33    5 1
    29   34   22 1
    30   35   34 1
    31   36   34 1
    32   37   34 1
    33   13   24 1
    34   22   23 2
    35   23   24 1
    36   25   33 ar
    37   28   30 ar
    38   31   33 ar
@<TRIPOS>SUBSTRUCTURE
     1 RES1 1

@<TRIPOS>CRYSIN
  14.5010    6.3620   17.1660  90.0000 110.9130  90.0000  14 1

