# MOL2 file generated by ConQuest
# Please check atom types

@<TRIPOS>MOLECULE
CACHAP
    15    16     1
SMALL
NO_CHARGES
****
Generated from CSD

@<TRIPOS>ATOM
      1 C1         6.7315    0.5596    7.1938 C.ar      1 RES1    0.0000
      2 C2         5.7686    1.4953    7.5617 C.ar      1 RES1    0.0000
      3 C3         4.9080    2.0223    6.5930 C.ar      1 RES1    0.0000
      4 C4         5.0821    1.6057    5.3136 C.ar      1 RES1    0.0000
      5 C5         6.0659    0.6580    4.9686 C.ar      1 RES1    0.0000
      6 C6         6.9060    0.1302    5.8852 C.ar      1 RES1    0.0000
      7 N1         7.3637    0.2961    8.3612 N.3       1 RES1    0.0000
      8 N2         6.8775    0.9778    9.3809 N.2       1 RES1    0.0000
      9 N3         5.8865    1.7112    8.9073 N.2       1 RES1    0.0000
     10 O1         8.4253   -0.5373    8.5292 O.3       1 RES1    0.0000
     11 H1         7.5852   -0.5064    5.6471 H         1 RES1    0.0000
     12 H2         4.2915    2.7057    6.8667 H         1 RES1    0.0000
     13 H3         4.5489    1.9342    4.5880 H         1 RES1    0.0000
     14 H4         6.1385    0.4088    4.0469 H         1 RES1    0.0000
     15 H5         8.0938   -1.2525    9.2867 H         1 RES1    0.0000
@<TRIPOS>BOND
     1    1    2 ar
     2    2    3 ar
     3    3    4 ar
     4    4    5 ar
     5    5    6 ar
     6    6    1 ar
     7    7    1 1
     8    8    7 1
     9    9    2 1
    10   10    7 1
    11   11    6 1
    12   12    3 1
    13   13    4 1
    14   14    5 1
    15   15   10 1
    16    8    9 2
@<TRIPOS>SUBSTRUCTURE
     1 RES1 1

@<TRIPOS>CRYSIN
  12.2330    7.9370   13.1640  90.0000 104.7500  90.0000  15 1

