# MOL2 file generated by ConQuest
# Please check atom types

@<TRIPOS>MOLECULE
CACNIE
    38    40     1
SMALL
NO_CHARGES
****
Generated from CSD

@<TRIPOS>ATOM
      1 O1         1.9456    7.6038    1.7320 O.3       1 RES1    0.0000
      2 O2         3.2918    7.2556    3.4923 O.2       1 RES1    0.0000
      3 C1         2.9742    7.0086    2.3549 C.2       1 RES1    0.0000
      4 O3         0.7685    8.9027    4.7814 O.2       1 RES1    0.0000
      5 O4         0.4191    6.9368    3.7800 O.3       1 RES1    0.0000
      6 C2         5.1875    4.3127   -0.0110 C.ar      1 RES1    0.0000
      7 N1         6.0774    3.4720   -0.8352 N.pl3     1 RES1    0.0000
      8 C3         4.2897    5.1375   -0.6547 C.ar      1 RES1    0.0000
      9 H1         4.1991    5.1128   -1.5809 H         1 RES1    0.0000
     10 O5         7.0588    2.9700   -0.3046 O.2       1 RES1    0.0000
     11 C4         3.6890    6.0260    1.4962 C.ar      1 RES1    0.0000
     12 C5         3.5281    6.0037    0.1099 C.ar      1 RES1    0.0000
     13 H2         2.9119    6.5687   -0.2983 H         1 RES1    0.0000
     14 C6         1.2978    8.6916    2.4523 C.3       1 RES1    0.0000
     15 C7         4.5725    5.1431    2.1147 C.ar      1 RES1    0.0000
     16 H3         4.6457    5.1351    3.0410 H         1 RES1    0.0000
     17 O6         5.7942    3.3278   -2.0205 O.2       1 RES1    0.0000
     18 C8         0.8284    8.2055    3.8165 C.2       1 RES1    0.0000
     19 C9         5.3386    4.2808    1.3596 C.ar      1 RES1    0.0000
     20 H4         5.9388    3.6959    1.7631 H         1 RES1    0.0000
     21 C10        0.1215    9.1402    1.5338 C.3       1 RES1    0.0000
     22 H5        -0.4487    8.4406    1.1523 H         1 RES1    0.0000
     23 C11        2.2124    9.9490    2.4695 C.3       1 RES1    0.0000
     24 H6         2.2799   10.3156    3.3644 H         1 RES1    0.0000
     25 H7         3.1031    9.7331    2.1508 H         1 RES1    0.0000
     26 C12        0.2549   11.3516    2.2278 C.2       1 RES1    0.0000
     27 H8         0.0738   12.1939    2.5763 H         1 RES1    0.0000
     28 C13       -0.5627   10.3005    2.2325 C.2       1 RES1    0.0000
     29 H9        -1.4131   10.2798    2.6061 H         1 RES1    0.0000
     30 C14        0.0444    6.3655    5.0521 C.3       1 RES1    0.0000
     31 H10       -0.0959    5.4212    4.9485 H         1 RES1    0.0000
     32 H11       -0.7664    6.7775    5.3614 H         1 RES1    0.0000
     33 H12        0.7441    6.5161    5.6895 H         1 RES1    0.0000
     34 C15        1.0126    9.9977    0.5244 C.3       1 RES1    0.0000
     35 H13        1.7122    9.4717    0.1036 H         1 RES1    0.0000
     36 H14        0.4842   10.4503   -0.1507 H         1 RES1    0.0000
     37 C16        1.5357   10.9173    1.5448 C.3       1 RES1    0.0000
     38 H15        2.1005   11.6440    1.2073 H         1 RES1    0.0000
@<TRIPOS>BOND
     1    1    3 1
     2    2    3 2
     3    3   11 1
     4    4   18 2
     5    5   18 1
     6    6    7 1
     7    7   10 2
     8    8    6 ar
     9    9    8 1
    10   11   12 ar
    11   12    8 ar
    12   13   12 1
    13   14    1 1
    14   15   11 ar
    15   16   15 1
    16   17    7 2
    17   18   14 1
    18   19    6 ar
    19   20   19 1
    20   21   14 1
    21   22   21 1
    22   23   14 1
    23   24   23 1
    24   25   23 1
    25   26   27 1
    26   28   21 1
    27   29   28 1
    28   30    5 1
    29   31   30 1
    30   32   30 1
    31   33   30 1
    32   34   21 1
    33   35   34 1
    34   36   34 1
    35   37   23 1
    36   38   37 1
    37   15   19 ar
    38   26   28 2
    39   26   37 1
    40   34   37 1
@<TRIPOS>SUBSTRUCTURE
     1 RES1 1

@<TRIPOS>CRYSIN
  23.9260    7.9688   16.6590  90.0000 109.5410  90.0000  15 1

