# MOL2 file generated by ConQuest
# Please check atom types

@<TRIPOS>MOLECULE
CACNIG
    37    39     1
SMALL
NO_CHARGES
****
Generated from CSD

@<TRIPOS>ATOM
      1 C1         8.6251    2.1135   15.4575 C.ar      1 RES1    0.0000
      2 H1         9.0784    2.5168   14.7535 H         1 RES1    0.0000
      3 C2         7.2588    2.0963   15.4713 C.ar      1 RES1    0.0000
      4 H2         6.7796    2.4698   14.7661 H         1 RES1    0.0000
      5 C3         6.6055    1.5320   16.5135 C.ar      1 RES1    0.0000
      6 H3         5.6756    1.5148   16.5166 H         1 RES1    0.0000
      7 C4         7.2978    0.9833   17.5707 C.ar      1 RES1    0.0000
      8 H4         6.8380    0.6210   18.2923 H         1 RES1    0.0000
      9 C5         8.6810    0.9744   17.5537 C.ar      1 RES1    0.0000
     10 C6         9.3317    1.5350   16.4861 C.ar      1 RES1    0.0000
     11 H5        10.2616    1.5245   16.4568 H         1 RES1    0.0000
     12 C7         9.4083    0.3809   18.6692 C.2       1 RES1    0.0000
     13 C8        11.1733   -0.1074   19.8429 C.2       1 RES1    0.0000
     14 C9        10.0733   -0.5837   20.4399 C.2       1 RES1    0.0000
     15 H6        10.0590   -1.0601   21.2392 H         1 RES1    0.0000
     16 C10       12.6150   -0.1245   20.1571 C.3       1 RES1    0.0000
     17 H7        13.1059   -0.3504   19.3533 H         1 RES1    0.0000
     18 H8        12.7825   -0.8208   20.8111 H         1 RES1    0.0000
     19 C11       13.1474    1.2032   20.7034 C.3       1 RES1    0.0000
     20 H9        12.6266    1.4567   21.4943 H         1 RES1    0.0000
     21 C12       14.6073    1.0444   21.0995 C.ar      1 RES1    0.0000
     22 C13       15.5839    1.2666   20.0948 C.ar      1 RES1    0.0000
     23 H10       15.3073    1.5081   19.2400 H         1 RES1    0.0000
     24 C14       16.9152    1.1361   20.3482 C.ar      1 RES1    0.0000
     25 H11       17.5360    1.2897   19.6713 H         1 RES1    0.0000
     26 C15       17.3412    0.7790   21.6013 C.ar      1 RES1    0.0000
     27 H12       18.2516    0.6717   21.7587 H         1 RES1    0.0000
     28 C16       16.4762    0.5815   22.6088 C.ar      1 RES1    0.0000
     29 H13       16.7775    0.3750   23.4652 H         1 RES1    0.0000
     30 C17       15.1034    0.6941   22.3374 C.ar      1 RES1    0.0000
     31 N1         8.9511   -0.2564   19.6779 N.2       1 RES1    0.0000
     32 N2        14.1995    0.4361   23.4227 N.pl3     1 RES1    0.0000
     33 O1        10.7625    0.5159   18.6862 O.3       1 RES1    0.0000
     34 O2        13.1500   -0.1379   23.2155 O.2       1 RES1    0.0000
     35 O3        14.5267    0.7761   24.5574 O.2       1 RES1    0.0000
     36 O4        13.0695    2.2395   19.7485 O.3       1 RES1    0.0000
     37 H14       12.3045    2.5347   19.7280 H         1 RES1    0.0000
@<TRIPOS>BOND
     1    1    2 1
     2    3    1 ar
     3    4    3 1
     4    5    3 ar
     5    6    5 1
     6    7    5 ar
     7    8    7 1
     8    9    7 ar
     9   10    1 ar
    10   11   10 1
    11   12    9 1
    12   13   14 2
    13   14   15 1
    14   16   13 1
    15   17   16 1
    16   18   16 1
    17   19   16 1
    18   20   19 1
    19   21   19 1
    20   22   21 ar
    21   23   22 1
    22   24   22 ar
    23   25   24 1
    24   26   24 ar
    25   27   26 1
    26   28   26 ar
    27   29   28 1
    28   30   21 ar
    29   31   12 2
    30   32   30 1
    31   33   12 1
    32   34   32 2
    33   35   32 2
    34   36   19 1
    35   37   36 1
    36    9   10 ar
    37   13   33 1
    38   14   31 1
    39   28   30 ar
@<TRIPOS>SUBSTRUCTURE
     1 RES1 1

@<TRIPOS>CRYSIN
  12.9877    7.4549   31.4842  90.0000  90.0000  90.0000  61 1

