# MOL2 file generated by ConQuest
# Please check atom types

@<TRIPOS>MOLECULE
CACREE
    44    46     1
SMALL
NO_CHARGES
****
Generated from CSD

@<TRIPOS>ATOM
      1 C1        -5.2996    1.2074    7.9525 C.ar      1 RES1    0.0000
      2 C2        -6.4012    0.3721    8.1422 C.ar      1 RES1    0.0000
      3 C3        -7.6452    0.9355    8.3279 C.ar      1 RES1    0.0000
      4 C4        -7.8123    2.2814    8.3139 C.ar      1 RES1    0.0000
      5 C5        -6.7387    3.1130    8.1322 C.ar      1 RES1    0.0000
      6 C6        -5.4596    2.5775    7.9485 C.ar      1 RES1    0.0000
      7 C7        -4.3063    3.4948    7.7388 C.2       1 RES1    0.0000
      8 O1        -4.4750    4.6729    7.5251 O.2       1 RES1    0.0000
      9 C8        -2.9252    2.9224    7.8283 C.2       1 RES1    0.0000
     10 C9        -2.1653    2.7620    6.7039 C.2       1 RES1    0.0000
     11 C10       -2.6882    3.1348    5.3363 C.3       1 RES1    0.0000
     12 H1        -2.6727    2.3628    4.7671 H         1 RES1    0.0000
     13 H2        -2.1346    3.8232    4.9588 H         1 RES1    0.0000
     14 H3        -3.5890    3.4564    5.4161 H         1 RES1    0.0000
     15 N1        -0.8929    2.2242    6.7844 N.am      1 RES1    0.0000
     16 C11       -0.0737    1.7881    5.4960 C.3       1 RES1    0.0000
     17 H4         0.4125    0.9641    5.6558 H         1 RES1    0.0000
     18 H5        -0.6609    1.6676    4.7331 H         1 RES1    0.0000
     19 C12        0.7984    2.8486    5.2903 C.3       1 RES1    0.0000
     20 H6         1.2872    3.0610    6.1012 H         1 RES1    0.0000
     21 H7         0.3227    3.6395    4.9928 H         1 RES1    0.0000
     22 C13        1.8270    2.2867    4.1041 C.3       1 RES1    0.0000
     23 H8         1.7086    2.8064    3.3052 H         1 RES1    0.0000
     24 H9         1.6269    1.3656    3.9183 H         1 RES1    0.0000
     25 H10        2.7355    2.3628    4.4036 H         1 RES1    0.0000
     26 C14       -0.3190    1.8084    7.9784 C.2       1 RES1    0.0000
     27 O2         0.8083    1.3158    7.9838 O.2       1 RES1    0.0000
     28 C15       -1.1222    1.9802    9.1751 C.ar      1 RES1    0.0000
     29 C16       -0.5829    1.5606   10.3935 C.ar      1 RES1    0.0000
     30 C17       -1.3249    1.7075   11.5275 C.ar      1 RES1    0.0000
     31 N2        -0.7838    1.2413   12.8052 N.pl3     1 RES1    0.0000
     32 O3         0.1636    0.4715   12.7837 O.2       1 RES1    0.0000
     33 O4        -1.3249    1.6488   13.8395 O.2       1 RES1    0.0000
     34 C18       -2.5949    2.2829   11.5007 C.ar      1 RES1    0.0000
     35 C19       -3.1336    2.6776   10.3190 C.ar      1 RES1    0.0000
     36 C20       -2.4058    2.5240    9.1000 C.ar      1 RES1    0.0000
     37 H11       -4.4224    0.8383    7.7967 H         1 RES1    0.0000
     38 H12       -6.2824   -0.5800    8.1662 H         1 RES1    0.0000
     39 H13       -8.4120    0.3804    8.4557 H         1 RES1    0.0000
     40 H14       -8.7012    2.6452    8.4258 H         1 RES1    0.0000
     41 H15       -6.8406    4.0643    8.1462 H         1 RES1    0.0000
     42 H16        0.3002    1.1795   10.4309 H         1 RES1    0.0000
     43 H17       -3.1216    2.3635   12.3082 H         1 RES1    0.0000
     44 H18       -4.0119    3.0633   10.2811 H         1 RES1    0.0000
@<TRIPOS>BOND
     1    1    2 ar
     2    2    3 ar
     3    3    4 ar
     4    4    5 ar
     5    5    6 ar
     6    6    1 ar
     7    7    6 1
     8    8    7 2
     9    9    7 1
    10   10    9 2
    11   11   10 1
    12   12   11 1
    13   13   11 1
    14   14   11 1
    15   15   10 1
    16   16   15 1
    17   17   16 1
    18   18   16 1
    19   19   16 1
    20   20   19 1
    21   21   19 1
    22   22   19 1
    23   23   22 1
    24   24   22 1
    25   25   22 1
    26   26   15 1
    27   27   26 2
    28   28   26 1
    29   29   28 ar
    30   30   29 ar
    31   31   30 1
    32   32   31 2
    33   33   31 2
    34   34   30 ar
    35   35   34 ar
    36   36    9 1
    37   37    1 1
    38   38    2 1
    39   39    3 1
    40   40    4 1
    41   41    5 1
    42   42   29 1
    43   43   34 1
    44   44   35 1
    45   28   36 ar
    46   35   36 ar
@<TRIPOS>SUBSTRUCTURE
     1 RES1 1

@<TRIPOS>CRYSIN
  11.7980    7.5320   20.0920  90.0000  96.2900  90.0000 231 1

