# MOL2 file generated by ConQuest
# Please check atom types

@<TRIPOS>MOLECULE
CACTAE
   118   123     1
SMALL
NO_CHARGES
****
Generated from CSD

@<TRIPOS>ATOM
      1 C1         9.5022    3.8354    5.2038 C.2       1 RES1    0.0000
      2 C2         9.1850    3.6595    3.7457 C.3       1 RES1    0.0000
      3 O1        12.7211    7.6169   10.3114 O.3       1 RES1    0.0000
      4 C3         9.6253    5.2610    7.2873 C.3       1 RES1    0.0000
      5 C4        10.7352    4.2620    7.7429 C.3       1 RES1    0.0000
      6 H1        11.5089    4.4386    7.1322 H         1 RES1    0.0000
      7 C5        11.3483    2.7779   12.3214 C.ar      1 RES1    0.0000
      8 H2        11.4323    1.9637   11.8397 H         1 RES1    0.0000
      9 C6        10.1208    6.7009    7.6123 C.3       1 RES1    0.0000
     10 H3        10.9211    6.9007    7.0653 H         1 RES1    0.0000
     11 H4         9.4139    7.3512    7.3657 H         1 RES1    0.0000
     12 C7        10.0306    2.6590    5.9305 C.3       1 RES1    0.0000
     13 H5        10.8775    2.3828    5.4961 H         1 RES1    0.0000
     14 H6         9.3878    1.9143    5.8194 H         1 RES1    0.0000
     15 C8        11.5448    5.9054    9.4770 C.2       1 RES1    0.0000
     16 C9         7.8372    4.1939    1.8190 C.3       1 RES1    0.0000
     17 H7         8.6259    4.4805    1.2769 H         1 RES1    0.0000
     18 C10        6.5608    4.6885    1.0826 C.3       1 RES1    0.0000
     19 H8         5.7571    4.3929    1.5985 H         1 RES1    0.0000
     20 C11       15.4633    3.5997    6.0366 C.ar      1 RES1    0.0000
     21 C12       10.2985    2.8386    7.4229 C.3       1 RES1    0.0000
     22 H9         9.4771    2.6260    7.9307 H         1 RES1    0.0000
     23 H10       11.0075    2.2069    7.7070 H         1 RES1    0.0000
     24 C13        8.0843    4.6534    3.2836 C.3       1 RES1    0.0000
     25 C14       10.4644    6.8700    9.0835 C.3       1 RES1    0.0000
     26 H11       10.7702    7.7965    9.2500 H         1 RES1    0.0000
     27 H12        9.6582    6.7076    9.6337 H         1 RES1    0.0000
     28 O2        16.5836    2.5602    4.2176 O.2       1 RES1    0.0000
     29 O3        17.0432    4.6803    4.7042 O.3       1 RES1    0.0000
     30 N1        12.6507    6.2257   10.0436 N.2       1 RES1    0.0000
     31 C15       11.3213    4.4139    9.1912 C.3       1 RES1    0.0000
     32 C16       12.6417    3.5824    9.3072 C.3       1 RES1    0.0000
     33 H13       13.1149    3.8855   10.1220 H         1 RES1    0.0000
     34 H14       12.3887    2.6365    9.4541 H         1 RES1    0.0000
     35 C17        9.4204    5.0642    5.7639 C.2       1 RES1    0.0000
     36 C18        8.9692    6.2676    4.9932 C.3       1 RES1    0.0000
     37 H15        9.6891    6.9464    5.0389 H         1 RES1    0.0000
     38 H16        8.1781    6.6463    5.4537 H         1 RES1    0.0000
     39 C19        8.6038    6.0610    3.5155 C.3       1 RES1    0.0000
     40 H17        7.9094    6.7174    3.2526 H         1 RES1    0.0000
     41 H18        9.4025    6.2160    2.9522 H         1 RES1    0.0000
     42 C20        8.2299    5.0335    7.9111 C.3       1 RES1    0.0000
     43 H19        8.0001    4.0831    7.8572 H         1 RES1    0.0000
     44 H20        7.5650    5.5596    7.4212 H         1 RES1    0.0000
     45 H21        8.2428    5.3149    8.8500 H         1 RES1    0.0000
     46 C21       13.6227    3.6206    8.1691 C.ar      1 RES1    0.0000
     47 C22       10.7093    5.0747   12.4340 C.ar      1 RES1    0.0000
     48 H22       10.3642    5.8523   12.0095 H         1 RES1    0.0000
     49 C23       10.3202    3.8593   10.2624 C.3       1 RES1    0.0000
     50 H23        9.4805    4.3832   10.2085 H         1 RES1    0.0000
     51 H24       10.0992    2.9224   10.0321 H         1 RES1    0.0000
     52 O4        12.5289    3.0309   16.2533 O.3       1 RES1    0.0000
     53 C24        8.5816    2.3155    3.2853 C.3       1 RES1    0.0000
     54 H25        9.2919    1.6352    3.1644 H         1 RES1    0.0000
     55 H26        7.9242    1.9794    3.9466 H         1 RES1    0.0000
     56 C25       10.8205    3.8983   11.6944 C.ar      1 RES1    0.0000
     57 C26       16.4045    3.5331    4.8936 C.2       1 RES1    0.0000
     58 C27       14.3275    4.7492    7.8017 C.ar      1 RES1    0.0000
     59 H27       14.1865    5.5559    8.2834 H         1 RES1    0.0000
     60 C28        7.8943    2.6313    1.9447 C.3       1 RES1    0.0000
     61 H28        6.9792    2.2511    1.9300 H         1 RES1    0.0000
     62 H29        8.4102    2.2444    1.1936 H         1 RES1    0.0000
     63 C29        6.8006    4.4610    4.0935 C.3       1 RES1    0.0000
     64 H30        6.3987    3.5959    3.8682 H         1 RES1    0.0000
     65 H31        6.1682    5.1795    3.8796 H         1 RES1    0.0000
     66 H32        7.0095    4.4850    5.0504 H         1 RES1    0.0000
     67 C30       11.7513    2.8378   13.6309 C.ar      1 RES1    0.0000
     68 H33       12.1255    2.0707   14.0489 H         1 RES1    0.0000
     69 C31       13.8825    2.4674    7.4425 C.ar      1 RES1    0.0000
     70 H34       13.4335    1.6644    7.6743 H         1 RES1    0.0000
     71 C32       11.6089    4.0367   14.3559 C.ar      1 RES1    0.0000
     72 C33        6.5412    6.2175    0.9781 C.3       1 RES1    0.0000
     73 H35        6.4565    6.6051    1.8745 H         1 RES1    0.0000
     74 H36        5.7815    6.4981    0.4278 H         1 RES1    0.0000
     75 H37        7.3752    6.5280    0.5650 H         1 RES1    0.0000
     76 C34       11.0807    5.1488   13.7452 C.ar      1 RES1    0.0000
     77 H38       10.9747    5.9593   14.2302 H         1 RES1    0.0000
     78 C35        5.2665    3.6191   -2.4639 C.3       1 RES1    0.0000
     79 H39        6.1141    3.8556   -2.9211 H         1 RES1    0.0000
     80 H40        5.2964    2.6462   -2.2811 H         1 RES1    0.0000
     81 C36        6.5068    4.0599   -0.3102 C.3       1 RES1    0.0000
     82 H41        6.5990    3.0795   -0.2106 H         1 RES1    0.0000
     83 H42        7.2897    4.3810   -0.8262 H         1 RES1    0.0000
     84 C37       15.2366    4.7447    6.7518 C.ar      1 RES1    0.0000
     85 H43       15.7058    5.5409    6.5297 H         1 RES1    0.0000
     86 C38        5.2441    4.3443   -1.1250 C.3       1 RES1    0.0000
     87 H44        4.4513    4.0547   -0.6090 H         1 RES1    0.0000
     88 H45        5.1686    5.3187   -1.2818 H         1 RES1    0.0000
     89 C39        4.1349    3.8698   -3.4339 C.3       1 RES1    0.0000
     90 H46        4.0262    4.8599   -3.5220 H         1 RES1    0.0000
     91 C40       14.7848    2.4524    6.3795 C.ar      1 RES1    0.0000
     92 H47       14.9326    1.6494    5.8929 H         1 RES1    0.0000
     93 C41       10.5209    3.8257    2.9718 C.3       1 RES1    0.0000
     94 H48       10.8637    4.7334    3.1040 H         1 RES1    0.0000
     95 H49       10.3651    3.6715    2.0149 H         1 RES1    0.0000
     96 H50       11.1737    3.1761    3.3049 H         1 RES1    0.0000
     97 C42       18.0111    4.7275    3.6184 C.3       1 RES1    0.0000
     98 H51       17.6296    5.2184    2.8607 H         1 RES1    0.0000
     99 H52       18.2308    3.8152    3.3375 H         1 RES1    0.0000
    100 H53       18.8255    5.1817    3.9237 H         1 RES1    0.0000
    101 C43       11.9751    4.1505   15.7797 C.2       1 RES1    0.0000
    102 O5        11.8035    5.1458   16.4508 O.2       1 RES1    0.0000
    103 C44       14.0233    7.9103   10.8126 C.3       1 RES1    0.0000
    104 H54       14.6982    7.6117   10.1677 H         1 RES1    0.0000
    105 H55       14.1584    7.4440   11.6650 H         1 RES1    0.0000
    106 H56       14.1112    8.8764   10.9531 H         1 RES1    0.0000
    107 C45        4.5100    3.3220   -4.8071 C.3       1 RES1    0.0000
    108 H57        5.2744    3.8249   -5.1614 H         1 RES1    0.0000
    109 H58        3.7482    3.4148   -5.4161 H         1 RES1    0.0000
    110 H59        4.7527    2.3761   -4.7271 H         1 RES1    0.0000
    111 C46        2.8193    3.3100   -2.9293 C.3       1 RES1    0.0000
    112 H60        2.8597    2.3304   -2.9244 H         1 RES1    0.0000
    113 H61        2.0936    3.6027   -3.5171 H         1 RES1    0.0000
    114 H62        2.6552    3.6341   -2.0198 H         1 RES1    0.0000
    115 C47       12.9043    3.1080   17.6722 C.3       1 RES1    0.0000
    116 H63       13.6075    3.7823   17.7881 H         1 RES1    0.0000
    117 H64       13.2379    2.2354   17.9694 H         1 RES1    0.0000
    118 H65       12.1210    3.3579   18.2045 H         1 RES1    0.0000
@<TRIPOS>BOND
     1    1    2 1
     2    2   24 1
     3    3   30 1
     4    4    5 1
     5    5    6 1
     6    7    8 1
     7    9    4 1
     8   10    9 1
     9   11    9 1
    10   12    1 1
    11   13   12 1
    12   14   12 1
    13   15   25 1
    14   16   17 1
    15   18   16 1
    16   19   18 1
    17   20   57 1
    18   21    5 1
    19   22   21 1
    20   23   21 1
    21   24   16 1
    22   25    9 1
    23   26   25 1
    24   27   25 1
    25   28   57 2
    26   29   57 1
    27   30   15 2
    28   31    5 1
    29   32   31 1
    30   33   32 1
    31   34   32 1
    32   35    1 2
    33   36   35 1
    34   37   36 1
    35   38   36 1
    36   39   24 1
    37   40   39 1
    38   41   39 1
    39   42    4 1
    40   43   42 1
    41   44   42 1
    42   45   42 1
    43   46   32 1
    44   47   48 1
    45   49   31 1
    46   50   49 1
    47   51   49 1
    48   52  101 1
    49   53    2 1
    50   54   53 1
    51   55   53 1
    52   56    7 ar
    53   58   46 ar
    54   59   58 1
    55   60   16 1
    56   61   60 1
    57   62   60 1
    58   63   24 1
    59   64   63 1
    60   65   63 1
    61   66   63 1
    62   67    7 ar
    63   68   67 1
    64   69   46 ar
    65   70   69 1
    66   71   67 ar
    67   72   18 1
    68   73   72 1
    69   74   72 1
    70   75   72 1
    71   76   47 ar
    72   77   76 1
    73   78   79 1
    74   80   78 1
    75   81   18 1
    76   82   81 1
    77   83   81 1
    78   84   20 ar
    79   85   84 1
    80   86   78 1
    81   87   86 1
    82   88   86 1
    83   89   78 1
    84   90   89 1
    85   91   20 ar
    86   92   91 1
    87   93    2 1
    88   94   93 1
    89   95   93 1
    90   96   93 1
    91   97   29 1
    92   98   97 1
    93   99   97 1
    94  100   97 1
    95  101   71 1
    96  102  101 2
    97  103    3 1
    98  104  103 1
    99  105  103 1
   100  106  103 1
   101  107   89 1
   102  108  107 1
   103  109  107 1
   104  110  107 1
   105  111   89 1
   106  112  111 1
   107  113  111 1
   108  114  111 1
   109  115   52 1
   110  116  115 1
   111  117  115 1
   112  118  115 1
   113    4   35 1
   114   12   21 1
   115   15   31 1
   116   36   39 1
   117   47   56 ar
   118   49   56 1
   119   53   60 1
   120   58   84 ar
   121   69   91 ar
   122   71   76 ar
   123   81   86 1
@<TRIPOS>SUBSTRUCTURE
     1 RES1 1

@<TRIPOS>CRYSIN
  35.1880    7.4837   16.5260  90.0000  98.8700  90.0000   5 1

