# MOL2 file generated by ConQuest
# Please check atom types

@<TRIPOS>MOLECULE
CACVUZ
    38    40     1
SMALL
NO_CHARGES
****
Generated from CSD

@<TRIPOS>ATOM
      1 C1         1.0356    8.2150   29.2762 C.ar      1 RES1    0.0000
      2 C2         0.7472    9.4037   29.9094 C.ar      1 RES1    0.0000
      3 H1         0.6090    9.4318   30.8496 H         1 RES1    0.0000
      4 C3         0.6631   10.5515   29.1519 C.ar      1 RES1    0.0000
      5 H2         0.4543   11.3736   29.5771 H         1 RES1    0.0000
      6 C4         0.8786   10.5332   27.7733 C.ar      1 RES1    0.0000
      7 C5         1.1685    9.3043   27.1667 C.ar      1 RES1    0.0000
      8 H3         1.3195    9.2701   26.2298 H         1 RES1    0.0000
      9 C6         1.2376    8.1437   27.9089 C.ar      1 RES1    0.0000
     10 H4         1.4208    7.3104   27.4888 H         1 RES1    0.0000
     11 C7         0.7773   11.7814   27.0322 C.2       1 RES1    0.0000
     12 H5         0.5760   12.5559   27.5428 H         1 RES1    0.0000
     13 C8         0.9357   11.9703   25.7087 C.2       1 RES1    0.0000
     14 H6         1.1520   11.2297   25.1546 H         1 RES1    0.0000
     15 C9         0.7818   13.2726   25.1200 C.2       1 RES1    0.0000
     16 H7         0.6751   13.9785   25.7462 H         1 RES1    0.0000
     17 C10        0.7622   13.6629   23.8205 C.2       1 RES1    0.0000
     18 C11        0.7780   12.7820   22.6345 C.ar      1 RES1    0.0000
     19 C12        0.2155   11.4985   22.6408 C.ar      1 RES1    0.0000
     20 H8        -0.2058   11.1763   23.4283 H         1 RES1    0.0000
     21 C13        0.2651   10.6940   21.5182 C.ar      1 RES1    0.0000
     22 H9        -0.1134    9.8234   21.5426 H         1 RES1    0.0000
     23 C14        0.8651   11.1550   20.3614 C.ar      1 RES1    0.0000
     24 H10        0.9214   10.5948   19.5974 H         1 RES1    0.0000
     25 C15        1.3818   12.4332   20.3241 C.ar      1 RES1    0.0000
     26 H11        1.7775   12.7517   19.5218 H         1 RES1    0.0000
     27 C16        1.3360   13.2626   21.4326 C.ar      1 RES1    0.0000
     28 C17        1.8414   14.6810   21.3756 C.3       1 RES1    0.0000
     29 H12        1.8872   14.9799   20.4322 H         1 RES1    0.0000
     30 H13        2.7538   14.7247   21.7560 H         1 RES1    0.0000
     31 C18        0.9139   15.6046   22.1612 C.3       1 RES1    0.0000
     32 H14        1.2887   16.5212   22.1612 H         1 RES1    0.0000
     33 H15        0.0300   15.6370   21.7155 H         1 RES1    0.0000
     34 C19        0.7375   15.1410   23.5742 C.2       1 RES1    0.0000
     35 N1         1.1361    6.9887   30.0645 N.pl3     1 RES1    0.0000
     36 O1         1.3019    7.0945   31.2834 O.2       1 RES1    0.0000
     37 O2         1.0605    5.9068   29.4842 O.2       1 RES1    0.0000
     38 O3         0.5865   15.9437   24.4838 O.2       1 RES1    0.0000
@<TRIPOS>BOND
     1    1    2 ar
     2    2    3 1
     3    4    2 ar
     4    5    4 1
     5    6    4 ar
     6    7    6 ar
     7    8    7 1
     8    9    1 ar
     9   10    9 1
    10   11    6 1
    11   12   11 1
    12   13   11 2
    13   14   13 1
    14   15   13 1
    15   16   15 1
    16   17   15 2
    17   18   17 1
    18   19   18 ar
    19   20   19 1
    20   21   19 ar
    21   22   21 1
    22   23   21 ar
    23   24   23 1
    24   25   23 ar
    25   26   25 1
    26   27   18 ar
    27   28   27 1
    28   29   28 1
    29   30   28 1
    30   31   28 1
    31   32   31 1
    32   33   31 1
    33   34   17 1
    34   35    1 1
    35   36   35 2
    36   37   35 2
    37   38   34 2
    38    7    9 ar
    39   25   27 ar
    40   31   34 1
@<TRIPOS>SUBSTRUCTURE
     1 RES1 1

@<TRIPOS>CRYSIN
   7.5097   14.8345   27.0160  90.0000  90.0000  90.0000  61 1

