# MOL2 file generated by ConQuest
# Please check atom types

@<TRIPOS>MOLECULE
CACXIQ
    46    49     1
SMALL
NO_CHARGES
****
Generated from CSD

@<TRIPOS>ATOM
      1 O1         1.2273    3.6782    3.5223 O.3       1 RES1    0.0000
      2 O2        -0.1440    1.2736    5.0909 O.2       1 RES1    0.0000
      3 O3        -1.5040    1.2813    3.4231 O.2       1 RES1    0.0000
      4 O4        -3.6561    8.5235    7.2634 O.3       1 RES1    0.0000
      5 N1         2.8670    4.1462    5.1877 N.pl3     1 RES1    0.0000
      6 N2         2.9069    4.4170    6.5479 N.2       1 RES1    0.0000
      7 N3        -0.8862    1.8369    4.3154 N.pl3     1 RES1    0.0000
      8 C1         1.5836    3.9515    4.8047 C.2       1 RES1    0.0000
      9 C2         0.7692    4.0684    5.8871 C.2       1 RES1    0.0000
     10 C3        -0.7181    3.8689    5.8229 C.3       1 RES1    0.0000
     11 H1        -0.9646    3.1794    6.4737 H         1 RES1    0.0000
     12 C4        -1.0514    3.3463    4.4160 C.3       1 RES1    0.0000
     13 H2        -1.9852    3.5677    4.2179 H         1 RES1    0.0000
     14 C5        -0.1737    3.9479    3.3224 C.3       1 RES1    0.0000
     15 H3        -0.4469    3.5876    2.4635 H         1 RES1    0.0000
     16 H4        -0.3109    4.9083    3.2983 H         1 RES1    0.0000
     17 C6         1.6407    4.3695    6.9498 C.2       1 RES1    0.0000
     18 C7         1.2732    4.6088    8.3736 C.3       1 RES1    0.0000
     19 H5         0.9052    3.8052    8.7486 H         1 RES1    0.0000
     20 H6         0.6217    5.3118    8.4221 H         1 RES1    0.0000
     21 H7         2.0560    4.8638    8.8675 H         1 RES1    0.0000
     22 C8        -1.5046    5.1365    6.1459 C.ar      1 RES1    0.0000
     23 C9        -1.0457    6.3924    5.7956 C.ar      1 RES1    0.0000
     24 H8        -0.2491    6.4675    5.3205 H         1 RES1    0.0000
     25 C10       -1.7417    7.5463    6.1337 C.ar      1 RES1    0.0000
     26 H9        -1.4137    8.3801    5.8848 H         1 RES1    0.0000
     27 C11       -2.9151    7.4491    6.8359 C.ar      1 RES1    0.0000
     28 C12       -3.4035    6.2070    7.1730 C.ar      1 RES1    0.0000
     29 H10       -4.2092    6.1365    7.6337 H         1 RES1    0.0000
     30 C13       -2.7063    5.0630    6.8322 C.ar      1 RES1    0.0000
     31 H11       -3.0481    4.2310    7.0680 H         1 RES1    0.0000
     32 C14       -3.0881    9.8212    7.1063 C.3       1 RES1    0.0000
     33 H12       -2.2435    9.8575    7.5613 H         1 RES1    0.0000
     34 H13       -3.6812   10.4775    7.4779 H         1 RES1    0.0000
     35 H14       -2.9566   10.0014    6.1717 H         1 RES1    0.0000
     36 C15        4.0672    4.1434    4.4292 C.ar      1 RES1    0.0000
     37 C16        4.1864    3.3443    3.3091 C.ar      1 RES1    0.0000
     38 H15        3.4858    2.7910    3.0483 H         1 RES1    0.0000
     39 C17        5.3613    3.3759    2.5787 C.ar      1 RES1    0.0000
     40 H16        5.4458    2.8437    1.8213 H         1 RES1    0.0000
     41 C18        6.4024    4.1830    2.9603 C.ar      1 RES1    0.0000
     42 H17        7.1830    4.2064    2.4567 H         1 RES1    0.0000
     43 C19        6.2870    4.9551    4.0881 C.ar      1 RES1    0.0000
     44 H18        6.9990    5.4896    4.3559 H         1 RES1    0.0000
     45 C20        5.1201    4.9434    4.8285 C.ar      1 RES1    0.0000
     46 H19        5.0447    5.4709    5.5910 H         1 RES1    0.0000
@<TRIPOS>BOND
     1    1    8 1
     2    2    7 2
     3    3    7 2
     4    4   27 1
     5    5    6 1
     6    6   17 2
     7    7   12 1
     8    8    5 1
     9    9    8 2
    10   10    9 1
    11   11   10 1
    12   12   10 1
    13   13   12 1
    14   14    1 1
    15   15   14 1
    16   16   14 1
    17   17    9 1
    18   18   17 1
    19   19   18 1
    20   20   18 1
    21   21   18 1
    22   22   10 1
    23   23   22 ar
    24   24   23 1
    25   25   23 ar
    26   26   25 1
    27   27   25 ar
    28   28   27 ar
    29   29   28 1
    30   30   22 ar
    31   31   30 1
    32   32    4 1
    33   33   32 1
    34   34   32 1
    35   35   32 1
    36   36    5 1
    37   37   36 ar
    38   38   37 1
    39   39   37 ar
    40   40   39 1
    41   41   39 ar
    42   42   41 1
    43   43   41 ar
    44   44   43 1
    45   45   36 ar
    46   46   45 1
    47   12   14 1
    48   28   30 ar
    49   43   45 ar
@<TRIPOS>SUBSTRUCTURE
     1 RES1 1

@<TRIPOS>CRYSIN
  11.4288   11.6975   13.6633  90.0000  90.0000  90.0000  19 1

