# MOL2 file generated by ConQuest
# Please check atom types

@<TRIPOS>MOLECULE
CADDIU
    47    50     1
SMALL
NO_CHARGES
****
Generated from CSD

@<TRIPOS>ATOM
      1 O1         3.0344    2.0947   10.2875 O.3       1 RES1    0.0000
      2 N1         3.0530    1.7128   11.6343 N.2       1 RES1    0.0000
      3 C1         1.7966    1.6921   12.0247 C.2       1 RES1    0.0000
      4 C2         0.9337    2.0938   10.9690 C.2       1 RES1    0.0000
      5 H1         0.0083    2.1788   10.9943 H         1 RES1    0.0000
      6 C3         1.7511    2.3280    9.9238 C.2       1 RES1    0.0000
      7 C4         1.6257    2.6855    8.4817 C.2       1 RES1    0.0000
      8 O2         2.4932    2.3143    7.7098 O.2       1 RES1    0.0000
      9 C5         0.4975    3.5134    8.0117 C.2       1 RES1    0.0000
     10 C6         0.3931    3.8104    6.5563 C.ar      1 RES1    0.0000
     11 C7        -0.7019    3.3897    5.8225 C.ar      1 RES1    0.0000
     12 H2        -1.3911    2.9264    6.2408 H         1 RES1    0.0000
     13 C8        -0.7703    3.6582    4.4667 C.ar      1 RES1    0.0000
     14 H3        -1.5077    3.3801    3.9732 H         1 RES1    0.0000
     15 C9         0.2559    4.3386    3.8502 C.ar      1 RES1    0.0000
     16 H4         0.2108    4.5117    2.9370 H         1 RES1    0.0000
     17 C10        1.3393    4.7639    4.5653 C.ar      1 RES1    0.0000
     18 H5         2.0221    5.2360    4.1438 H         1 RES1    0.0000
     19 C11        1.4145    4.4940    5.9063 C.ar      1 RES1    0.0000
     20 H6         2.1590    4.7706    6.3891 H         1 RES1    0.0000
     21 N2        -0.2842    3.9794    8.9424 N.2       1 RES1    0.0000
     22 N3        -1.2737    4.8142    8.5854 N.pl3     1 RES1    0.0000
     23 H7        -1.3804    5.0237    7.7583 H         1 RES1    0.0000
     24 C12        1.4771    1.2692   13.4007 C.ar      1 RES1    0.0000
     25 C13        0.2723    1.6013   14.0000 C.ar      1 RES1    0.0000
     26 H8        -0.3590    2.0915   13.5247 H         1 RES1    0.0000
     27 C14        0.0006    1.2101   15.2956 C.ar      1 RES1    0.0000
     28 H9        -0.8047    1.4486   15.6942 H         1 RES1    0.0000
     29 C15        0.9224    0.4675   15.9996 C.ar      1 RES1    0.0000
     30 H10        0.7419    0.2065   16.8741 H         1 RES1    0.0000
     31 C16        2.1121    0.1100   15.4062 C.ar      1 RES1    0.0000
     32 H11        2.7295   -0.4043   15.8753 H         1 RES1    0.0000
     33 C17        2.3882    0.5088   14.1214 C.ar      1 RES1    0.0000
     34 H12        3.1963    0.2676   13.7292 H         1 RES1    0.0000
     35 C18       -2.1229    5.3399    9.5464 C.ar      1 RES1    0.0000
     36 C19       -3.1688    6.1506    9.1316 C.ar      1 RES1    0.0000
     37 H13       -3.2671    6.3472    8.2279 H         1 RES1    0.0000
     38 C20       -4.0647    6.6678   10.0415 C.ar      1 RES1    0.0000
     39 H14       -4.7699    7.2053    9.7618 H         1 RES1    0.0000
     40 C21       -3.8937    6.3702   11.3716 C.ar      1 RES1    0.0000
     41 N4        -4.8085    6.9360   12.3427 N.pl3     1 RES1    0.0000
     42 O3        -4.6811    6.6145   13.5146 O.2       1 RES1    0.0000
     43 O4        -5.6493    7.7493   11.9672 O.2       1 RES1    0.0000
     44 C22       -2.8567    5.5810   11.7938 C.ar      1 RES1    0.0000
     45 H15       -2.7593    5.3931   12.6988 H         1 RES1    0.0000
     46 C23       -1.9653    5.0638   10.8955 C.ar      1 RES1    0.0000
     47 H16       -1.2598    4.5321   11.1859 H         1 RES1    0.0000
@<TRIPOS>BOND
     1    1    2 1
     2    2    3 2
     3    3    4 1
     4    4    5 1
     5    6    1 1
     6    7    6 1
     7    8    7 2
     8    9    7 1
     9   10    9 1
    10   11   10 ar
    11   12   11 1
    12   13   11 ar
    13   14   13 1
    14   15   13 ar
    15   16   15 1
    16   17   15 ar
    17   18   17 1
    18   19   10 ar
    19   20   19 1
    20   21    9 2
    21   22   21 1
    22   23   22 1
    23   24    3 1
    24   25   24 ar
    25   26   25 1
    26   27   25 ar
    27   28   27 1
    28   29   27 ar
    29   30   29 1
    30   31   29 ar
    31   32   31 1
    32   33   24 ar
    33   34   33 1
    34   35   22 1
    35   36   35 ar
    36   37   36 1
    37   38   36 ar
    38   39   38 1
    39   40   38 ar
    40   41   40 1
    41   42   41 2
    42   43   41 2
    43   44   40 ar
    44   45   44 1
    45   46   35 ar
    46   47   46 1
    47    4    6 2
    48   17   19 ar
    49   31   33 ar
    50   44   46 ar
@<TRIPOS>SUBSTRUCTURE
     1 RES1 1

@<TRIPOS>CRYSIN
   5.7870   29.0890   11.8810  90.0000 100.4900  90.0000 231 1

