# MOL2 file generated by ConQuest
# Please check atom types

@<TRIPOS>MOLECULE
CADDOA
    30    31     1
SMALL
USER_CHARGES
****
Generated from CSD

@<TRIPOS>ATOM
      1 C1        -0.4089    1.0474    2.0660 C.ar      1 RES1    0.0000
      2 C2        -0.2900    2.1110    2.9463 C.ar      1 RES1    0.0000
      3 C3         0.9349    2.3991    3.4846 C.ar      1 RES1    0.0000
      4 C4         2.0784    1.6616    3.1508 C.ar      1 RES1    0.0000
      5 C5         1.9426    0.5969    2.2486 C.ar      1 RES1    0.0000
      6 C6         0.6915    0.3019    1.7089 C.ar      1 RES1    0.0000
      7 C7         2.6320   -4.5758   -1.2129 C.ar      1 RES1    0.0000
      8 C8         2.6863   -3.4834   -0.3639 C.ar      1 RES1    0.0000
      9 C9         3.9306   -2.9499   -0.0395 C.ar      1 RES1    0.0000
     10 C10        5.0938   -3.4846   -0.5138 C.ar      1 RES1    0.0000
     11 C11        4.9996   -4.5988   -1.3710 C.ar      1 RES1    0.0000
     12 C12        3.7942   -5.1220   -1.7089 C.ar      1 RES1    0.0000
     13 C13        3.3870    2.0476    3.7204 C.2       1 RES1    0.0000
     14 N1         4.0013   -1.7964    0.8340 N.pl3     1 RES1    1.0000
     15 N2         2.9019   -1.1753    1.0630 N.2       1 RES1    0.0000
     16 N3         3.0680   -0.1498    1.8834 N.pl3     1 RES1    0.0000
     17 O1         5.1196   -1.4185    1.3464 O.2       1 RES1   -1.0000
     18 O2         3.3074    3.0317    4.5967 O.3       1 RES1    0.0000
     19 O3         4.4455    1.5326    3.4138 O.2       1 RES1    0.0000
     20 H1        -1.3212    0.8158    1.6980 H         1 RES1    0.0000
     21 H2        -1.0943    2.5835    3.1876 H         1 RES1    0.0000
     22 H3         1.0499    3.1101    4.0761 H         1 RES1    0.0000
     23 H4         4.1268    3.3013    4.7929 H         1 RES1    0.0000
     24 H5         3.8892    0.0254    2.1873 H         1 RES1    0.0000
     25 H6         0.6607   -0.3860    1.0643 H         1 RES1    0.0000
     26 H7         1.7403   -5.0298   -1.5277 H         1 RES1    0.0000
     27 H8         1.9271   -3.0974    0.0259 H         1 RES1    0.0000
     28 H9         5.9731   -3.0720   -0.2235 H         1 RES1    0.0000
     29 H10        5.8682   -4.9088   -1.6735 H         1 RES1    0.0000
     30 H11        3.7258   -5.8986   -2.2868 H         1 RES1    0.0000
@<TRIPOS>BOND
     1    1    2 ar
     2    2    3 ar
     3    3    4 ar
     4    4    5 ar
     5    5    6 ar
     6    6    1 ar
     7    7    8 ar
     8    8    9 ar
     9    9   10 ar
    10   10   11 ar
    11   11   12 ar
    12   12    7 ar
    13   13    4 1
    14   14    9 1
    15   15   14 2
    16   16    5 1
    17   17   14 1
    18   18   13 1
    19   19   13 2
    20   20    1 1
    21   21    2 1
    22   22    3 1
    23   23   18 1
    24   24   16 1
    25   25    6 1
    26   26    7 1
    27   27    8 1
    28   28   10 1
    29   29   11 1
    30   30   12 1
    31   15   16 1
@<TRIPOS>SUBSTRUCTURE
     1 RES1 1

@<TRIPOS>CRYSIN
   8.0060   11.5230   13.9370  90.0000 102.0900  90.0000 231 1

