# MOL2 file generated by ConQuest
# Please check atom types

@<TRIPOS>MOLECULE
CADHUN
    28    29     1
SMALL
NO_CHARGES
****
Generated from CSD

@<TRIPOS>ATOM
      1 O1         5.3347   12.6601    7.9762 O.3       1 RES1    0.0000
      2 O2         4.5644   11.1135    4.8462 O.2       1 RES1    0.0000
      3 C1         5.1579    9.5717   11.2119 C.ar      1 RES1    0.0000
      4 H1         4.7123    9.7100   12.0162 H         1 RES1    0.0000
      5 C2         5.2787    9.8074    8.8271 C.ar      1 RES1    0.0000
      6 C3         6.3632    8.9071   11.1824 C.ar      1 RES1    0.0000
      7 O3         3.3001   10.4305    7.6377 O.3       1 RES1    0.0000
      8 C4         4.6246   10.0278   10.0248 C.ar      1 RES1    0.0000
      9 H2         3.8172   10.4887   10.0305 H         1 RES1    0.0000
     10 C5         6.4900    9.1297    8.8367 C.ar      1 RES1    0.0000
     11 H3         6.9329    8.9710    8.0346 H         1 RES1    0.0000
     12 C6         4.7086   10.2677    7.5079 C.3       1 RES1    0.0000
     13 H4         4.8853    9.5803    6.8315 H         1 RES1    0.0000
     14 N1         6.9377    8.3953   12.4358 N.pl3     1 RES1    0.0000
     15 C7         7.0455    8.6894   10.0168 C.ar      1 RES1    0.0000
     16 H5         7.8670    8.2538   10.0213 H         1 RES1    0.0000
     17 C8         4.8065   11.9873    5.6494 C.2       1 RES1    0.0000
     18 C9         5.2829   11.5860    7.0245 C.3       1 RES1    0.0000
     19 O4         8.0251    7.8436   12.3965 O.2       1 RES1    0.0000
     20 O5         6.2971    8.5389   13.4637 O.2       1 RES1    0.0000
     21 C10        6.5605   12.1367    7.4759 C.3       1 RES1    0.0000
     22 H6         7.0997   11.5965    8.0742 H         1 RES1    0.0000
     23 H7         7.0641   12.6819    6.8519 H         1 RES1    0.0000
     24 C11        4.6518   13.4317    5.3313 C.3       1 RES1    0.0000
     25 H8         4.3323   13.5283    4.4315 H         1 RES1    0.0000
     26 H9         5.5002   13.8720    5.4188 H         1 RES1    0.0000
     27 H10        4.0219   13.8274    5.9389 H         1 RES1    0.0000
     28 H11        2.9253   10.2349    6.8946 H         1 RES1    0.0000
@<TRIPOS>BOND
     1    1   18 1
     2    2   17 2
     3    3    4 1
     4    5    8 ar
     5    6    3 ar
     6    7   12 1
     7    8    3 ar
     8    9    8 1
     9   10    5 ar
    10   11   10 1
    11   12    5 1
    12   13   12 1
    13   14    6 1
    14   15    6 ar
    15   16   15 1
    16   17   18 1
    17   18   12 1
    18   19   14 2
    19   20   14 2
    20   21    1 1
    21   22   21 1
    22   23   21 1
    23   24   17 1
    24   25   24 1
    25   26   24 1
    26   27   24 1
    27   28    7 1
    28   10   15 ar
    29   18   21 1
@<TRIPOS>SUBSTRUCTURE
     1 RES1 1

@<TRIPOS>CRYSIN
   5.9930    9.4478   10.6741  72.9285  81.9410  75.2862   2 1

