# MOL2 file generated by ConQuest
# Please check atom types

@<TRIPOS>MOLECULE
CADJEZ
    38    39     1
SMALL
NO_CHARGES
****
Generated from CSD

@<TRIPOS>ATOM
      1 C1        -1.9574    5.9265    5.2554 C.ar      1 RES1    0.0000
      2 C2        -1.1018    6.5324    4.3686 C.ar      1 RES1    0.0000
      3 H1        -0.9120    7.4402    4.4376 H         1 RES1    0.0000
      4 C3        -0.5293    5.7695    3.3740 C.ar      1 RES1    0.0000
      5 H2         0.0539    6.1667    2.7680 H         1 RES1    0.0000
      6 C4        -0.8124    4.4142    3.2658 C.ar      1 RES1    0.0000
      7 C5        -1.6926    3.8392    4.1654 C.ar      1 RES1    0.0000
      8 H3        -1.9001    2.9361    4.0879 H         1 RES1    0.0000
      9 C6        -2.2684    4.5846    5.1752 C.ar      1 RES1    0.0000
     10 H4        -2.8505    4.1928    5.7850 H         1 RES1    0.0000
     11 C7        -0.1406    3.5829    2.1906 C.3       1 RES1    0.0000
     12 H5         0.0471    4.1545    1.4170 H         1 RES1    0.0000
     13 C8         1.1478    2.9461    2.6538 C.3       1 RES1    0.0000
     14 C9         1.9379    2.3175    1.5374 C.2       1 RES1    0.0000
     15 C10        3.4487    0.4831    0.9551 C.3       1 RES1    0.0000
     16 C11        3.8359   -0.7374    1.7648 C.3       1 RES1    0.0000
     17 H6         4.3293   -0.4630    2.5410 H         1 RES1    0.0000
     18 H7         4.3813   -1.3177    1.2284 H         1 RES1    0.0000
     19 H8         3.0443   -1.2050    2.0376 H         1 RES1    0.0000
     20 C12        4.6391    1.3741    0.7026 C.3       1 RES1    0.0000
     21 H9         4.3542    2.1665    0.2417 H         1 RES1    0.0000
     22 H10        5.2817    0.9051    0.1648 H         1 RES1    0.0000
     23 H11        5.0402    1.6177    1.5396 H         1 RES1    0.0000
     24 C13        2.7219    0.1094   -0.3085 C.3       1 RES1    0.0000
     25 H12        1.8841   -0.3033   -0.0860 H         1 RES1    0.0000
     26 H13        3.2557   -0.5059   -0.8147 H         1 RES1    0.0000
     27 H14        2.5610    0.8991   -0.8311 H         1 RES1    0.0000
     28 C14        1.8996    3.3688    3.8390 C.3       1 RES1    0.0000
     29 H15        2.8617    3.2447    3.8335 H         1 RES1    0.0000
     30 H16        1.5921    4.1572    4.3131 H         1 RES1    0.0000
     31 N1        -2.5448    6.7357    6.3344 N.pl3     1 RES1    0.0000
     32 O1        -3.1786    6.1600    7.2001 O.2       1 RES1    0.0000
     33 O2        -2.3895    7.9367    6.3062 O.2       1 RES1    0.0000
     34 O3        -0.9398    2.4875    1.7721 O.3       1 RES1    0.0000
     35 H17       -1.4960    2.7469    1.2284 H         1 RES1    0.0000
     36 O4         1.0813    2.2092    3.8798 O.3       1 RES1    0.0000
     37 O5         2.0234    2.8555    0.4626 O.2       1 RES1    0.0000
     38 O6         2.5288    1.1913    1.8906 O.3       1 RES1    0.0000
@<TRIPOS>BOND
     1    1    2 ar
     2    2    3 1
     3    4    2 ar
     4    5    4 1
     5    6    4 ar
     6    7    6 ar
     7    8    7 1
     8    9    1 ar
     9   10    9 1
    10   11    6 1
    11   12   11 1
    12   13   11 1
    13   14   13 1
    14   15   16 1
    15   16   17 1
    16   18   16 1
    17   19   16 1
    18   20   15 1
    19   21   20 1
    20   22   20 1
    21   23   20 1
    22   24   15 1
    23   25   24 1
    24   26   24 1
    25   27   24 1
    26   28   13 1
    27   29   28 1
    28   30   28 1
    29   31    1 1
    30   32   31 2
    31   33   31 2
    32   34   11 1
    33   35   34 1
    34   36   13 1
    35   37   14 2
    36   38   14 1
    37    7    9 ar
    38   15   38 1
    39   28   36 1
@<TRIPOS>SUBSTRUCTURE
     1 RES1 1

@<TRIPOS>CRYSIN
  12.1232    6.7095   18.4910  90.0000  98.0900  90.0000 231 1

