# MOL2 file generated by ConQuest
# Please check atom types

@<TRIPOS>MOLECULE
CAFCUK
    46    47     1
SMALL
NO_CHARGES
****
Generated from CSD

@<TRIPOS>ATOM
      1 O1        -1.8726    0.0502    0.4999 O.2       1 RES1    0.0000
      2 N1        -1.3086   -0.1753    1.6154 N.pl3     1 RES1    0.0000
      3 C1        -0.9479   -1.5750    2.0463 C.3       1 RES1    0.0000
      4 C2        -2.2439   -2.2145    2.5231 C.3       1 RES1    0.0000
      5 H1        -2.0703   -3.1135    2.8109 H         1 RES1    0.0000
      6 H2        -2.6005   -1.7070    3.2564 H         1 RES1    0.0000
      7 H3        -2.8796   -2.2253    1.8036 H         1 RES1    0.0000
      8 C3        -0.3742   -2.3357    0.8711 C.3       1 RES1    0.0000
      9 H4        -0.1450   -3.2255    1.1469 H         1 RES1    0.0000
     10 H5        -1.0256   -2.3764    0.1674 H         1 RES1    0.0000
     11 H6         0.4127   -1.8866    0.5532 H         1 RES1    0.0000
     12 C4         0.0627   -1.2759    3.1974 C.3       1 RES1    0.0000
     13 C5         1.5018   -1.1168    2.7320 C.3       1 RES1    0.0000
     14 H7         1.8472   -1.9711    2.4623 H         1 RES1    0.0000
     15 H8         1.5329   -0.5101    1.9890 H         1 RES1    0.0000
     16 H9         2.0345   -0.7698    3.4515 H         1 RES1    0.0000
     17 C6        -0.0132   -2.2206    4.3848 C.3       1 RES1    0.0000
     18 H10        0.2788   -3.0953    4.1177 H         1 RES1    0.0000
     19 H11        0.5527   -1.8959    5.0888 H         1 RES1    0.0000
     20 H12       -0.9197   -2.2677    4.6986 H         1 RES1    0.0000
     21 N2        -0.3919    0.1002    3.5970 N.pl3     1 RES1    0.0000
     22 O2        -0.0830    0.6404    4.7049 O.2       1 RES1    0.0000
     23 C7        -1.0496    0.7091    2.5799 C.2       1 RES1    0.0000
     24 C8        -1.3749    2.1240    2.5599 C.2       1 RES1    0.0000
     25 N3        -0.4103    3.0038    2.6736 N.pl3     1 RES1    0.0000
     26 O3         0.8394    2.7815    2.7138 O.2       1 RES1    0.0000
     27 C9        -0.9014    4.4161    2.7376 C.3       1 RES1    0.0000
     28 C10       -0.3788    5.1825    1.5339 C.3       1 RES1    0.0000
     29 H13        0.5677    5.3150    1.6245 H         1 RES1    0.0000
     30 H14       -0.5568    4.6829    0.7334 H         1 RES1    0.0000
     31 H15       -0.8172    6.0354    1.4827 H         1 RES1    0.0000
     32 C11       -0.4872    5.0478    4.0484 C.3       1 RES1    0.0000
     33 H16        0.4630    5.1862    4.0505 H         1 RES1    0.0000
     34 H17       -0.9334    5.8924    4.1518 H         1 RES1    0.0000
     35 H18       -0.7282    4.4671    4.7743 H         1 RES1    0.0000
     36 N4        -2.3330    4.1794    2.6675 N.3       1 RES1    0.0000
     37 O4        -3.1691    5.1370    2.6798 O.2       1 RES1    0.0000
     38 C12       -2.7450    2.7558    2.5625 C.3       1 RES1    0.0000
     39 C13       -3.5493    2.5483    1.2844 C.3       1 RES1    0.0000
     40 H19       -3.8136    1.6278    1.2184 H         1 RES1    0.0000
     41 H20       -4.3304    3.1054    1.3036 H         1 RES1    0.0000
     42 H21       -3.0090    2.7810    0.5255 H         1 RES1    0.0000
     43 C14       -3.5421    2.3659    3.7979 C.3       1 RES1    0.0000
     44 H22       -3.8087    1.4459    3.7297 H         1 RES1    0.0000
     45 H23       -2.9989    2.4846    4.5803 H         1 RES1    0.0000
     46 H24       -4.3232    2.9202    3.8629 H         1 RES1    0.0000
@<TRIPOS>BOND
     1    1    2 1
     2    2    3 1
     3    3    4 1
     4    4    5 1
     5    6    4 1
     6    7    4 1
     7    8    3 1
     8    9    8 1
     9   10    8 1
    10   11    8 1
    11   12    3 1
    12   13   12 1
    13   14   13 1
    14   15   13 1
    15   16   13 1
    16   17   12 1
    17   18   17 1
    18   19   17 1
    19   20   17 1
    20   21   12 1
    21   22   21 1
    22   23    2 2
    23   24   23 1
    24   25   24 2
    25   26   25 1
    26   27   25 1
    27   28   27 1
    28   29   28 1
    29   30   28 1
    30   31   28 1
    31   32   27 1
    32   33   32 1
    33   34   32 1
    34   35   32 1
    35   36   27 1
    36   37   36 1
    37   38   24 1
    38   39   38 1
    39   40   39 1
    40   41   39 1
    41   42   39 1
    42   43   38 1
    43   44   43 1
    44   45   43 1
    45   46   43 1
    46   21   23 1
    47   36   38 1
@<TRIPOS>SUBSTRUCTURE
     1 RES1 1

@<TRIPOS>CRYSIN
   7.5050   11.0120   11.4660  97.0090 106.9090 108.5310   2 1

