# MOL2 file generated by ConQuest
# Please check atom types

@<TRIPOS>MOLECULE
CAFQUW
    29    30     1
SMALL
NO_CHARGES
****
Generated from CSD

@<TRIPOS>ATOM
      1 N1        17.6380    6.7760    1.4583 N.am      1 RES1    0.0000
      2 C1        17.9541    6.5947    2.8216 C.2       1 RES1    0.0000
      3 O1        17.1679    5.9531    3.5054 O.2       1 RES1    0.0000
      4 N2        19.0994    7.1370    3.2823 N.2       1 RES1    0.0000
      5 C2        19.8404    7.9175    2.4828 C.2       1 RES1    0.0000
      6 N3        20.9796    8.3925    2.9587 N.3       1 RES1    0.0000
      7 C3        19.4422    8.2420    1.1562 C.2       1 RES1    0.0000
      8 C4        18.3564    7.6369    0.6731 C.2       1 RES1    0.0000
      9 C5        16.5193    6.0569    0.9402 C.ar      1 RES1    0.0000
     10 C6        16.7123    4.7955    0.3881 C.ar      1 RES1    0.0000
     11 N4        18.0711    4.2430    0.4186 N.pl3     1 RES1    0.0000
     12 O2        18.8716    4.6099   -0.3343 O.2       1 RES1    0.0000
     13 O3        18.2538    3.4231    1.2871 O.2       1 RES1    0.0000
     14 C7        15.7065    4.0355   -0.1425 C.ar      1 RES1    0.0000
     15 C8        14.4359    4.5675   -0.0905 C.ar      1 RES1    0.0000
     16 N5        13.3214    3.7768   -0.6471 N.pl3     1 RES1    0.0000
     17 O4        13.5985    2.7741   -1.2772 O.2       1 RES1    0.0000
     18 O5        12.1945    4.1568   -0.4302 O.2       1 RES1    0.0000
     19 C9        14.1527    5.7792    0.4867 C.ar      1 RES1    0.0000
     20 C10       15.2098    6.5217    0.9806 C.ar      1 RES1    0.0000
     21 N6        14.9080    7.8108    1.6089 N.pl3     1 RES1    0.0000
     22 O6        13.8571    7.8809    2.2354 O.2       1 RES1    0.0000
     23 O7        15.7147    8.7243    1.4807 O.2       1 RES1    0.0000
     24 H1        13.3501    6.0773    0.5602 H         1 RES1    0.0000
     25 H2        15.8625    3.1454   -0.5665 H         1 RES1    0.0000
     26 H3        19.9410    8.9362    0.6077 H         1 RES1    0.0000
     27 H4        18.0341    7.7903   -0.3263 H         1 RES1    0.0000
     28 H5        21.2239    8.2639    3.6963 H         1 RES1    0.0000
     29 H6        21.4517    8.9830    2.3456 H         1 RES1    0.0000
@<TRIPOS>BOND
     1    1    2 1
     2    2    3 2
     3    4    2 1
     4    5    4 2
     5    6    5 1
     6    7    5 1
     7    8    1 1
     8    9    1 1
     9   10    9 ar
    10   11   10 1
    11   12   11 2
    12   13   11 2
    13   14   10 ar
    14   15   14 ar
    15   16   15 1
    16   17   16 2
    17   18   16 2
    18   19   15 ar
    19   20    9 ar
    20   21   20 1
    21   22   21 2
    22   23   21 2
    23   24   19 1
    24   25   14 1
    25   26    7 1
    26   27    8 1
    27   28    6 1
    28   29    6 1
    29    7    8 2
    30   19   20 ar
@<TRIPOS>SUBSTRUCTURE
     1 RES1 1

@<TRIPOS>CRYSIN
  20.5260   14.6160    8.9630  90.0000  90.0000  90.0000  61 1

