# MOL2 file generated by ConQuest
# Please check atom types

@<TRIPOS>MOLECULE
CAFSAG01
    43    45     1
SMALL
NO_CHARGES
****
Generated from CSD

@<TRIPOS>ATOM
      1 O1         5.4160    2.8058    7.8154 O.2       1 RES1    0.0000
      2 O2         7.1246    1.9169    6.8794 O.2       1 RES1    0.0000
      3 N1         6.0482    2.4966    6.8182 N.pl3     1 RES1    0.0000
      4 N2         2.0831    7.5822    7.0361 N.2       1 RES1    0.0000
      5 N3         1.8199    8.5408    7.9555 N.pl3     1 RES1    0.0000
      6 H1         2.3142    8.6223    8.6560 H         1 RES1    0.0000
      7 C1         3.1105    6.8168    7.2445 C.2       1 RES1    0.0000
      8 C2         3.3608    5.7908    6.2492 C.2       1 RES1    0.0000
      9 H2         2.7348    5.7994    5.5089 H         1 RES1    0.0000
     10 C3         4.3601    4.9139    6.3095 C.2       1 RES1    0.0000
     11 H3         4.9172    4.9473    7.0748 H         1 RES1    0.0000
     12 C4         4.6534    3.8945    5.2946 C.ar      1 RES1    0.0000
     13 C5         4.1598    4.0274    3.9960 C.ar      1 RES1    0.0000
     14 H4         3.5917    4.7938    3.7711 H         1 RES1    0.0000
     15 C6         4.4610    3.1301    2.9970 C.ar      1 RES1    0.0000
     16 H5         4.0744    3.2530    2.1275 H         1 RES1    0.0000
     17 C7         5.2929    2.0612    3.2403 C.ar      1 RES1    0.0000
     18 H6         5.5073    1.4309    2.5619 H         1 RES1    0.0000
     19 C8         5.8160    1.8890    4.4960 C.ar      1 RES1    0.0000
     20 H7         6.4008    1.1576    4.7330 H         1 RES1    0.0000
     21 C9         5.4870    2.7864    5.4979 C.ar      1 RES1    0.0000
     22 C10        3.9797    6.9208    8.4516 C.ar      1 RES1    0.0000
     23 C11        5.0821    7.7544    8.4803 C.ar      1 RES1    0.0000
     24 H8         5.2865    8.2747    7.7023 H         1 RES1    0.0000
     25 C12        5.8706    7.8210    9.6150 C.ar      1 RES1    0.0000
     26 H9         6.6249    8.3959    9.5943 H         1 RES1    0.0000
     27 C13        5.5627    7.0694   10.7177 C.ar      1 RES1    0.0000
     28 H10        6.1333    7.1106   11.5111 H         1 RES1    0.0000
     29 C14        4.4681    6.2484   10.7054 C.ar      1 RES1    0.0000
     30 H11        4.2675    5.7121   11.4593 H         1 RES1    0.0000
     31 C15        3.6721    6.1750    9.5759 C.ar      1 RES1    0.0000
     32 H12        2.8740    5.6102    9.5425 H         1 RES1    0.0000
     33 C16        0.6528    9.2957    7.8608 C.ar      1 RES1    0.0000
     34 C17        0.2749   10.0662    8.9433 C.ar      1 RES1    0.0000
     35 H13        0.8275   10.0580    9.7109 H         1 RES1    0.0000
     36 C18       -0.8826   10.8077    8.8948 C.ar      1 RES1    0.0000
     37 H14       -1.0928   11.3142    9.6555 H         1 RES1    0.0000
     38 C19       -1.6812   10.7904    7.7745 C.ar      1 RES1    0.0000
     39 H15       -2.5076   11.3013    7.7541 H         1 RES1    0.0000
     40 C20       -1.2981   10.0347    6.6966 C.ar      1 RES1    0.0000
     41 H16       -1.8400   10.0321    5.9257 H         1 RES1    0.0000
     42 C21       -0.1370    9.2903    6.7231 C.ar      1 RES1    0.0000
     43 H17        0.0978    8.7791    5.9716 H         1 RES1    0.0000
@<TRIPOS>BOND
     1    1    3 2
     2    2    3 2
     3    3   21 1
     4    4    5 1
     5    5    6 1
     6    7    4 2
     7    8    7 1
     8    9    8 1
     9   10    8 2
    10   11   10 1
    11   12   10 1
    12   13   12 ar
    13   14   13 1
    14   15   13 ar
    15   16   15 1
    16   17   15 ar
    17   18   17 1
    18   19   17 ar
    19   20   19 1
    20   21   12 ar
    21   22    7 1
    22   23   22 ar
    23   24   23 1
    24   25   23 ar
    25   26   25 1
    26   27   25 ar
    27   28   27 1
    28   29   27 ar
    29   30   29 1
    30   31   22 ar
    31   32   31 1
    32   33    5 1
    33   34   33 ar
    34   35   34 1
    35   36   34 ar
    36   37   36 1
    37   38   36 ar
    38   39   38 1
    39   40   38 ar
    40   41   40 1
    41   42   33 ar
    42   43   42 1
    43   19   21 ar
    44   29   31 ar
    45   40   42 ar
@<TRIPOS>SUBSTRUCTURE
     1 RES1 1

@<TRIPOS>CRYSIN
   9.1955   16.1678   11.9934  90.0000 100.9860  90.0000 231 1

