# MOL2 file generated by ConQuest
# Please check atom types

@<TRIPOS>MOLECULE
CAFSAG
    43    45     1
SMALL
NO_CHARGES
****
Generated from CSD

@<TRIPOS>ATOM
      1 O1         8.3687   29.4721   -7.7998 O.2       1 RES1    0.0000
      2 N1        11.6932   24.7071   -7.0191 N.2       1 RES1    0.0000
      3 N2        11.9576   23.7535   -7.9471 N.pl3     1 RES1    0.0000
      4 H1        11.4086   23.6181   -8.5952 H         1 RES1    0.0000
      5 N3         7.7320   29.7799   -6.8056 N.pl3     1 RES1    0.0000
      6 C1         8.2933   29.4914   -5.4841 C.ar      1 RES1    0.0000
      7 C2         7.9702   30.3833   -4.4897 C.ar      1 RES1    0.0000
      8 H2         7.4033   31.0987   -4.6707 H         1 RES1    0.0000
      9 C3         8.4845   30.2154   -3.2336 C.ar      1 RES1    0.0000
     10 H3         8.2770   30.8163   -2.5545 H         1 RES1    0.0000
     11 C4         9.3128   29.1481   -2.9904 C.ar      1 RES1    0.0000
     12 H4         9.6732   29.0285   -2.1409 H         1 RES1    0.0000
     13 C5         9.6140   28.2561   -3.9903 C.ar      1 RES1    0.0000
     14 H5        10.1673   27.5359   -3.7918 H         1 RES1    0.0000
     15 C6         9.1251   28.3834   -5.2889 C.ar      1 RES1    0.0000
     16 C7         9.4220   27.3700   -6.2935 C.2       1 RES1    0.0000
     17 H6         8.8649   27.3374   -7.0383 H         1 RES1    0.0000
     18 C8        10.4162   26.4885   -6.2416 C.2       1 RES1    0.0000
     19 H7        10.9939   26.5339   -5.5143 H         1 RES1    0.0000
     20 C9        10.6664   25.4676   -7.2304 C.2       1 RES1    0.0000
     21 C10        9.8020   25.3645   -8.4328 C.ar      1 RES1    0.0000
     22 C11       10.1039   26.1066   -9.5493 C.ar      1 RES1    0.0000
     23 H8        10.8500   26.6630   -9.5446 H         1 RES1    0.0000
     24 C12        9.3135   26.0358  -10.6797 C.ar      1 RES1    0.0000
     25 H9         9.5242   26.5468  -11.4270 H         1 RES1    0.0000
     26 C13        8.2197   25.2117  -10.6996 C.ar      1 RES1    0.0000
     27 H10        7.6856   25.1607  -11.4587 H         1 RES1    0.0000
     28 C14        7.9187   24.4661   -9.5975 C.ar      1 RES1    0.0000
     29 H11        7.1778   23.9037   -9.6104 H         1 RES1    0.0000
     30 C15        8.6990   24.5356   -8.4671 C.ar      1 RES1    0.0000
     31 H12        8.4823   24.0215   -7.7222 H         1 RES1    0.0000
     32 C16       13.1196   22.9954   -7.8471 C.ar      1 RES1    0.0000
     33 C17       13.4987   22.2283   -8.9218 C.ar      1 RES1    0.0000
     34 H13       12.9692   22.2111   -9.6856 H         1 RES1    0.0000
     35 C18       14.6513   21.4875   -8.8784 C.ar      1 RES1    0.0000
     36 H14       14.8942   20.9702   -9.6116 H         1 RES1    0.0000
     37 C19       15.4481   21.5038   -7.7621 C.ar      1 RES1    0.0000
     38 H15       16.2353   21.0089   -7.7374 H         1 RES1    0.0000
     39 C20       15.0684   22.2588   -6.6846 C.ar      1 RES1    0.0000
     40 H16       15.6020   22.2708   -5.9232 H         1 RES1    0.0000
     41 C21       13.9073   22.9996   -6.7128 C.ar      1 RES1    0.0000
     42 H17       13.6555   23.5003   -5.9714 H         1 RES1    0.0000
     43 O2         6.6578   30.3552   -6.8646 O.2       1 RES1    0.0000
@<TRIPOS>BOND
     1    1    5 2
     2    2    3 1
     3    3    4 1
     4    5    6 1
     5    6    7 ar
     6    7    8 1
     7    9    7 ar
     8   10    9 1
     9   11    9 ar
    10   12   11 1
    11   13   11 ar
    12   14   13 1
    13   15    6 ar
    14   16   15 1
    15   17   16 1
    16   18   16 2
    17   19   18 1
    18   20    2 2
    19   21   20 1
    20   22   21 ar
    21   23   22 1
    22   24   22 ar
    23   25   24 1
    24   26   24 ar
    25   27   26 1
    26   28   26 ar
    27   29   28 1
    28   30   21 ar
    29   31   30 1
    30   32    3 1
    31   33   32 ar
    32   34   33 1
    33   35   33 ar
    34   36   35 1
    35   37   35 ar
    36   38   37 1
    37   39   37 ar
    38   40   39 1
    39   41   32 ar
    40   42   41 1
    41   43    5 2
    42   13   15 ar
    43   18   20 1
    44   28   30 ar
    45   39   41 ar
@<TRIPOS>SUBSTRUCTURE
     1 RES1 1

@<TRIPOS>CRYSIN
   9.1782   16.1359   11.9709  90.0000 101.0220  90.0000 231 1

