# MOL2 file generated by ConQuest
# Please check atom types

@<TRIPOS>MOLECULE
CAJGEB
    49    52     1
SMALL
NO_CHARGES
****
Generated from CSD

@<TRIPOS>ATOM
      1 N1        -6.7536    1.4411   11.7329 N.pl3     1 RES1    0.0000
      2 O1        -1.2525    4.1776   10.1676 O.3       1 RES1    0.0000
      3 O2         0.1105    4.1164    8.3107 O.3       1 RES1    0.0000
      4 O3         1.2242    2.4117    7.4328 O.2       1 RES1    0.0000
      5 O4        -7.8925    1.7029   11.3743 O.2       1 RES1    0.0000
      6 O5        -6.4836    0.5370   12.5055 O.2       1 RES1    0.0000
      7 C1        -5.6508    2.2282   11.1555 C.ar      1 RES1    0.0000
      8 C2        -4.3578    1.9017   11.4824 C.ar      1 RES1    0.0000
      9 H1        -4.1816    1.1928   12.0580 H         1 RES1    0.0000
     10 C3        -3.3272    2.6375   10.9464 C.ar      1 RES1    0.0000
     11 H2        -2.4480    2.4189   11.1580 H         1 RES1    0.0000
     12 C4        -3.5826    3.6981   10.0964 C.ar      1 RES1    0.0000
     13 C5        -4.8979    4.0075    9.7983 C.ar      1 RES1    0.0000
     14 H3        -5.0831    4.7227    9.2340 H         1 RES1    0.0000
     15 C6        -5.9435    3.2690   10.3257 C.ar      1 RES1    0.0000
     16 H4        -6.8250    3.4795   10.1188 H         1 RES1    0.0000
     17 C7        -2.4681    4.4951    9.4846 C.3       1 RES1    0.0000
     18 H5        -2.3848    4.2801    8.5420 H         1 RES1    0.0000
     19 H6        -2.6554    5.4441    9.5660 H         1 RES1    0.0000
     20 C8        -0.0955    4.7047    9.6022 C.3       1 RES1    0.0000
     21 H7        -0.1511    5.6807    9.5367 H         1 RES1    0.0000
     22 C9         1.0921    4.2810   10.4786 C.3       1 RES1    0.0000
     23 H8         0.7640    4.0273   11.3672 H         1 RES1    0.0000
     24 C10        1.6469    3.0234    9.7613 C.3       1 RES1    0.0000
     25 C11        1.0124    3.0990    8.3892 C.2       1 RES1    0.0000
     26 C12        1.1996    1.7326   10.4578 C.3       1 RES1    0.0000
     27 H9         1.4295    1.7892   11.3987 H         1 RES1    0.0000
     28 H10        0.2348    1.6615   10.3947 H         1 RES1    0.0000
     29 C13        1.8218    0.4759    9.8769 C.3       1 RES1    0.0000
     30 H11        1.5535   -0.2924   10.4064 H         1 RES1    0.0000
     31 H12        1.5001    0.3445    8.9710 H         1 RES1    0.0000
     32 C14        3.3366    0.5784    9.8640 C.3       1 RES1    0.0000
     33 H13        3.6640    0.6198   10.7769 H         1 RES1    0.0000
     34 H14        3.7102   -0.2141    9.4479 H         1 RES1    0.0000
     35 C15        3.7909    1.7973    9.1148 C.3       1 RES1    0.0000
     36 H15        3.5433    1.7083    8.1809 H         1 RES1    0.0000
     37 H16        4.7588    1.8576    9.1615 H         1 RES1    0.0000
     38 C16        3.1840    3.0729    9.6722 C.3       1 RES1    0.0000
     39 H17        3.5116    3.1548   10.5922 H         1 RES1    0.0000
     40 C17        3.6564    4.3224    8.9359 C.3       1 RES1    0.0000
     41 H18        4.6137    4.4159    9.0610 H         1 RES1    0.0000
     42 H19        3.4931    4.2072    7.9868 H         1 RES1    0.0000
     43 C18        2.9727    5.5989    9.4012 C.3       1 RES1    0.0000
     44 H20        3.6452    6.2672    9.6022 H         1 RES1    0.0000
     45 H21        2.4149    5.9416    8.6858 H         1 RES1    0.0000
     46 C19        2.1261    5.3605   10.6226 C.2       1 RES1    0.0000
     47 C20        2.2794    6.0172   11.7436 C.2       1 RES1    0.0000
     48 H22        1.7406    5.8193   12.4753 H         1 RES1    0.0000
     49 H23        2.9263    6.6819   11.8090 H         1 RES1    0.0000
@<TRIPOS>BOND
     1    1    5 2
     2    2   17 1
     3    3   20 1
     4    4   25 2
     5    6    1 2
     6    7    1 1
     7    8    7 ar
     8    9    8 1
     9   10    8 ar
    10   11   10 1
    11   12   10 ar
    12   13   12 ar
    13   14   13 1
    14   15    7 ar
    15   16   15 1
    16   17   12 1
    17   18   17 1
    18   19   17 1
    19   20    2 1
    20   21   20 1
    21   22   20 1
    22   23   22 1
    23   24   22 1
    24   25    3 1
    25   26   24 1
    26   27   26 1
    27   28   26 1
    28   29   26 1
    29   30   29 1
    30   31   29 1
    31   32   29 1
    32   33   32 1
    33   34   32 1
    34   35   32 1
    35   36   35 1
    36   37   35 1
    37   38   24 1
    38   39   38 1
    39   40   38 1
    40   41   40 1
    41   42   40 1
    42   43   40 1
    43   44   43 1
    44   45   43 1
    45   46   22 1
    46   47   46 2
    47   48   47 1
    48   49   47 1
    49   13   15 ar
    50   24   25 1
    51   35   38 1
    52   43   46 1
@<TRIPOS>SUBSTRUCTURE
     1 RES1 1

@<TRIPOS>CRYSIN
  17.3171    8.9956   12.4459  90.0000 110.0900  90.0000  14 1

