# MOL2 file generated by ConQuest
# Please check atom types

@<TRIPOS>MOLECULE
CAJTEM
    27    29     1
SMALL
NO_CHARGES
****
Generated from CSD

@<TRIPOS>ATOM
      1 O1         7.9930    5.3438   -2.4144 O.2       1 RES1    0.0000
      2 O2         9.1643    7.0323   -2.9855 O.2       1 RES1    0.0000
      3 N1        11.1125    6.0466    2.8175 N.2       1 RES1    0.0000
      4 N2         8.8323    6.1848   -2.1837 N.pl3     1 RES1    0.0000
      5 N3         9.6854    5.2817    1.2512 N.pl3     1 RES1    0.0000
      6 C1        10.3402    5.0267    3.3160 C.2       1 RES1    0.0000
      7 C2         9.4560    4.5328    2.4008 C.2       1 RES1    0.0000
      8 C3         9.0696    5.2817    0.0281 C.2       1 RES1    0.0000
      9 C4         9.4955    6.1795   -0.8907 C.2       1 RES1    0.0000
     10 C5        10.5287    7.1115   -0.6438 C.2       1 RES1    0.0000
     11 C6        11.1294    7.1019    0.5729 C.2       1 RES1    0.0000
     12 C7        10.7134    6.1934    1.5636 C.2       1 RES1    0.0000
     13 C8         8.4529    3.4604    2.5206 C.ar      1 RES1    0.0000
     14 C9         7.7426    3.3351    3.7101 C.ar      1 RES1    0.0000
     15 C10        6.8123    2.3087    3.8681 C.ar      1 RES1    0.0000
     16 C11        6.5868    1.4238    2.8402 C.ar      1 RES1    0.0000
     17 C12        7.2859    1.5331    1.6725 C.ar      1 RES1    0.0000
     18 C13        8.2339    2.5294    1.5055 C.ar      1 RES1    0.0000
     19 H1        10.3508    4.7460    4.2585 H         1 RES1    0.0000
     20 H2         8.3434    4.7032   -0.1453 H         1 RES1    0.0000
     21 H3        10.7711    7.7029   -1.3892 H         1 RES1    0.0000
     22 H4        11.8714    7.6708    0.7718 H         1 RES1    0.0000
     23 H5         7.9707    3.9318    4.4129 H         1 RES1    0.0000
     24 H6         6.2732    2.2498    4.7307 H         1 RES1    0.0000
     25 H7         5.9052    0.7285    2.9238 H         1 RES1    0.0000
     26 H8         7.1135    0.9642    0.9080 H         1 RES1    0.0000
     27 H9         8.7066    2.5926    0.6901 H         1 RES1    0.0000
@<TRIPOS>BOND
     1    1    4 2
     2    2    4 2
     3    3    6 1
     4    4    9 1
     5    5    7 1
     6    6    7 2
     7    7   13 1
     8    8    5 1
     9    9    8 2
    10   10    9 1
    11   11   10 2
    12   12    3 2
    13   13   14 ar
    14   14   15 ar
    15   15   16 ar
    16   16   17 ar
    17   17   18 ar
    18   18   13 ar
    19   19    6 1
    20   20    8 1
    21   21   10 1
    22   22   11 1
    23   23   14 1
    24   24   15 1
    25   25   16 1
    26   26   17 1
    27   27   18 1
    28    5   12 1
    29   11   12 1
@<TRIPOS>SUBSTRUCTURE
     1 RES1 1

@<TRIPOS>CRYSIN
  11.8180   10.7210    9.0800  90.0000  90.0000  92.1600  14 3

