# MOL2 file generated by ConQuest
# Please check atom types

@<TRIPOS>MOLECULE
CAJYES
    40    45     1
SMALL
USER_CHARGES
****
Generated from CSD

@<TRIPOS>ATOM
      1 C1         7.8592    1.4591    6.8356 C.ar      1 RES1    0.0000
      2 C2         6.9212    0.9138    7.7629 C.ar      1 RES1    0.0000
      3 C3         6.7840    1.4778    9.0182 C.ar      1 RES1    0.0000
      4 C4         6.0834   -0.2452    7.5216 C.2       1 RES1    0.0000
      5 O1         5.0229   -1.9433    6.7074 O.3       1 RES1    0.0000
      6 C5         7.5241    2.6215    9.3797 C.ar      1 RES1    0.0000
      7 H1         7.3477    3.0282   10.2167 H         1 RES1    0.0000
      8 C6         8.6100    2.5980    7.2264 C.ar      1 RES1    0.0000
      9 C7         5.3061   -0.7620    8.5645 C.2       1 RES1    0.0000
     10 C8         3.8471   -0.0236   10.4418 C.ar      1 RES1    0.0000
     11 C9         5.2680   -0.2352    9.9651 C.3       1 RES1    0.0000
     12 C10        8.1170    0.9040    5.5581 C.ar      1 RES1    0.0000
     13 H2         7.6074    0.1452    5.2982 H         1 RES1    0.0000
     14 N1         4.6530   -1.8048    8.1174 N.pl3     1 RES1    1.0000
     15 C11        8.3953    3.1633    8.5051 C.ar      1 RES1    0.0000
     16 H3         8.9314    3.9873    8.7561 H         1 RES1    0.0000
     17 C12        9.5903    3.1230    6.3466 C.ar      1 RES1    0.0000
     18 H4        10.0753    3.9552    6.6212 H         1 RES1    0.0000
     19 C13        9.0840    1.4245    4.7497 C.ar      1 RES1    0.0000
     20 H5         9.2273    0.9563    3.9192 H         1 RES1    0.0000
     21 C14        9.8300    2.5372    5.1422 C.ar      1 RES1    0.0000
     22 H6        10.5418    2.9039    4.5374 H         1 RES1    0.0000
     23 C15        3.3013   -0.8837   11.4016 C.ar      1 RES1    0.0000
     24 C16        3.0829    0.9878    9.8935 C.ar      1 RES1    0.0000
     25 H7         3.5308    1.6223    9.2225 H         1 RES1    0.0000
     26 C17        1.2202    0.2764   11.2389 C.ar      1 RES1    0.0000
     27 H8         0.3179    0.4077   11.4836 H         1 RES1    0.0000
     28 C18        1.9824   -0.7092   11.7882 C.ar      1 RES1    0.0000
     29 H9         1.5793   -1.3151   12.4752 H         1 RES1    0.0000
     30 C19        4.1193   -1.9202   11.9947 C.2       1 RES1    0.0000
     31 H10        3.6253   -2.5270   12.6103 H         1 RES1    0.0000
     32 C20        1.7448    1.1253   10.3034 C.ar      1 RES1    0.0000
     33 H11        1.3313    1.8219    9.8560 H         1 RES1    0.0000
     34 C21        5.4032   -2.0685   11.7385 C.2       1 RES1    0.0000
     35 H12        5.9070   -2.7071   12.1247 H         1 RES1    0.0000
     36 O2         3.8828   -2.6380    8.5853 O.2       1 RES1   -1.0000
     37 O3         5.9178    1.0451    9.9920 O.3       1 RES1    0.0000
     38 N2         5.9269   -0.9320    6.4065 N.2       1 RES1    0.0000
     39 O4         7.3088   -1.2247   10.6866 O.2       1 RES1    0.0000
     40 C22        6.1058   -1.2096   10.8348 C.2       1 RES1    0.0000
@<TRIPOS>BOND
     1    1    2 ar
     2    2    3 ar
     3    3    6 ar
     4    4    2 1
     5    5   14 1
     6    6    7 1
     7    8    1 ar
     8    9    4 1
     9   10   11 1
    10   11    9 1
    11   12    1 ar
    12   13   12 1
    13   14    9 2
    14   15    6 ar
    15   16   15 1
    16   17    8 ar
    17   18   17 1
    18   19   12 ar
    19   20   19 1
    20   21   17 ar
    21   22   21 1
    22   23   10 ar
    23   24   10 ar
    24   25   24 1
    25   26   27 1
    26   28   23 ar
    27   29   28 1
    28   30   23 1
    29   31   30 1
    30   32   24 ar
    31   33   32 1
    32   34   30 2
    33   35   34 1
    34   36   14 1
    35   37    3 1
    36   38    4 2
    37   39   40 2
    38   40   11 1
    39    5   38 1
    40    8   15 ar
    41   11   37 1
    42   19   21 ar
    43   26   28 ar
    44   26   32 ar
    45   34   40 1
@<TRIPOS>SUBSTRUCTURE
     1 RES1 1

@<TRIPOS>CRYSIN
   9.3953   13.9612   12.7471  90.0000  90.9450  90.0000  14 1

