# MOL2 file generated by ConQuest
# Please check atom types

@<TRIPOS>MOLECULE
CALKOQ
    19    19     1
SMALL
NO_CHARGES
****
Generated from CSD

@<TRIPOS>ATOM
      1 O1        -1.6815    6.4195    3.1647 O.3       1 RES1    0.0000
      2 H1        -2.0761    5.9209    4.0523 H         1 RES1    0.0000
      3 N1        -1.0011    3.9598    0.6298 N.3       1 RES1    0.0000
      4 H2        -0.9598    3.1962    1.0839 H         1 RES1    0.0000
      5 O2         1.0537    6.1045    2.6277 O.2       1 RES1    0.0000
      6 C1        -1.9723    4.8546    1.2850 C.3       1 RES1    0.0000
      7 N2        -1.1269    5.4222    2.3640 N.am      1 RES1    0.0000
      8 C2         0.1785    5.4712    2.0496 C.2       1 RES1    0.0000
      9 C3         0.3377    4.5783    0.8398 C.3       1 RES1    0.0000
     10 H3         1.0167    3.8844    0.9667 H         1 RES1    0.0000
     11 H4         0.5404    5.1572    0.0976 H         1 RES1    0.0000
     12 C4        -2.4444    5.9662    0.3574 C.3       1 RES1    0.0000
     13 H5        -1.6353    6.4017    0.0000 H         1 RES1    0.0000
     14 H6        -3.0430    5.5626   -0.3222 H         1 RES1    0.0000
     15 H7        -2.9719    6.5903    0.8886 H         1 RES1    0.0000
     16 C5        -3.1397    4.0588    1.8553 C.3       1 RES1    0.0000
     17 H8        -3.7682    4.6575    2.2556 H         1 RES1    0.0000
     18 H9        -3.5763    3.6204    1.0546 H         1 RES1    0.0000
     19 H10       -2.7515    3.3942    2.4607 H         1 RES1    0.0000
@<TRIPOS>BOND
     1    1    2 1
     2    3    4 1
     3    5    8 2
     4    6    3 1
     5    7    1 1
     6    8    7 1
     7    9    3 1
     8   10    9 1
     9   11    9 1
    10   12    6 1
    11   13   12 1
    12   14   12 1
    13   15   12 1
    14   16    6 1
    15   17   16 1
    16   18   16 1
    17   19   16 1
    18    6    7 1
    19    8    9 1
@<TRIPOS>SUBSTRUCTURE
     1 RES1 1

@<TRIPOS>CRYSIN
   7.1099    9.4282    9.7646  90.0000  90.0000  90.0000  19 1

