# MOL2 file generated by ConQuest
# Please check atom types

@<TRIPOS>MOLECULE
CALKIK
    36    37     1
SMALL
NO_CHARGES
****
Generated from CSD

@<TRIPOS>ATOM
      1 C1         5.2222    0.1078    8.4816 C.3       1 RES1    0.0000
      2 O1         5.8709    1.0576    9.3951 O.3       1 RES1    0.0000
      3 C2         5.2885    1.3603   10.5779 C.2       1 RES1    0.0000
      4 N1         4.2274    0.8567   11.0588 N.2       1 RES1    0.0000
      5 C3         3.5478   -0.2051   10.2910 C.3       1 RES1    0.0000
      6 C4         4.2218   -1.5113   10.6835 C.2       1 RES1    0.0000
      7 O2         4.3543   -3.3740   11.8910 O.3       1 RES1    0.0000
      8 H1         3.8848   -3.8200   12.5079 H         1 RES1    0.0000
      9 N2         3.6042   -2.2594   11.4976 N.2       1 RES1    0.0000
     10 C5         5.6269   -1.7404   10.1844 C.3       1 RES1    0.0000
     11 H2         6.3031   -1.1738   10.8124 H         1 RES1    0.0000
     12 H3         5.7954   -2.6356   10.2328 H         1 RES1    0.0000
     13 C6         5.8307   -1.2666    8.7349 C.3       1 RES1    0.0000
     14 H4         5.3231   -1.8247    8.1093 H         1 RES1    0.0000
     15 H5         6.7825   -1.2271    8.5723 H         1 RES1    0.0000
     16 C7         3.7360    0.0662    8.7975 C.3       1 RES1    0.0000
     17 H6         3.2432   -0.5762    8.2909 H         1 RES1    0.0000
     18 H7         3.3348    0.9603    8.5557 H         1 RES1    0.0000
     19 C8         5.5035    0.6882    7.0799 C.3       1 RES1    0.0000
     20 H8         5.1256    1.6112    7.0834 H         1 RES1    0.0000
     21 C9         4.8394   -0.1184    5.9702 C.3       1 RES1    0.0000
     22 H9         5.2102   -0.9817    5.9642 H         1 RES1    0.0000
     23 H10        4.9917    0.2881    5.0964 H         1 RES1    0.0000
     24 H11        3.8354   -0.1921    6.1207 H         1 RES1    0.0000
     25 C10        6.9989    0.8675    6.7931 C.3       1 RES1    0.0000
     26 H12        7.4593    1.4832    7.5780 H         1 RES1    0.0000
     27 H13        7.3677    0.0320    6.7003 H         1 RES1    0.0000
     28 H14        7.0010    1.3125    5.9125 H         1 RES1    0.0000
     29 C11        6.0774    2.3891   11.3062 C.3       1 RES1    0.0000
     30 H15        6.1973    3.0624   10.7092 H         1 RES1    0.0000
     31 H16        5.5839    2.7850   12.0715 H         1 RES1    0.0000
     32 H17        6.9164    1.9527   11.6085 H         1 RES1    0.0000
     33 C12        2.0622   -0.1835   10.6462 C.3       1 RES1    0.0000
     34 H18        1.9671   -0.1921   11.6752 H         1 RES1    0.0000
     35 H19        1.6780    0.6296   10.3611 H         1 RES1    0.0000
     36 H20        1.6004   -0.9924   10.2295 H         1 RES1    0.0000
@<TRIPOS>BOND
     1    1    2 1
     2    2    3 1
     3    3    4 2
     4    4    5 1
     5    5    6 1
     6    6    9 2
     7    7    8 1
     8    9    7 1
     9   10    6 1
    10   11   10 1
    11   12   10 1
    12   13    1 1
    13   14   13 1
    14   15   13 1
    15   16    1 1
    16   17   16 1
    17   18   16 1
    18   19    1 1
    19   20   19 1
    20   21   19 1
    21   22   21 1
    22   23   21 1
    23   24   21 1
    24   25   19 1
    25   26   25 1
    26   27   25 1
    27   28   25 1
    28   29    3 1
    29   30   29 1
    30   31   29 1
    31   32   29 1
    32   33    5 1
    33   34   33 1
    34   35   33 1
    35   36   33 1
    36    5   16 1
    37   10   13 1
@<TRIPOS>SUBSTRUCTURE
     1 RES1 1

@<TRIPOS>CRYSIN
   7.0504   10.6705   16.6550  90.0000  90.0000  90.0000  19 1

