# MOL2 file generated by ConQuest
# Please check atom types

@<TRIPOS>MOLECULE
CALKEI
    54    58     1
SMALL
NO_CHARGES
****
Generated from CSD

@<TRIPOS>ATOM
      1 O1         1.5212   10.4943    0.6602 O.2       1 RES1    0.0000
      2 O2         2.6462    8.9720   -0.3628 O.2       1 RES1    0.0000
      3 O3         6.4734    8.6426    2.4356 O.2       1 RES1    0.0000
      4 O4         6.3218   10.4873    3.5836 O.2       1 RES1    0.0000
      5 N1         2.8439    6.3610    1.5125 N.3       1 RES1    0.0000
      6 N2         1.6185   10.4132    5.2338 N.ar      1 RES1    0.0000
      7 N3         2.1372    9.4474    0.6439 N.pl3     1 RES1    0.0000
      8 N4         5.8149    9.4702    3.0824 N.pl3     1 RES1    0.0000
      9 N5         4.1947   10.3707    5.4162 N.pl3     1 RES1    0.0000
     10 H1         3.6107   10.8491    5.8578 H         1 RES1    0.0000
     11 C1         1.6884    7.2283    1.7211 C.3       1 RES1    0.0000
     12 H2         1.1648    6.9306    2.5073 H         1 RES1    0.0000
     13 H3         1.0994    7.2234    0.9253 H         1 RES1    0.0000
     14 C2         3.8337    6.8679    2.4659 C.3       1 RES1    0.0000
     15 H4         4.7317    6.4904    2.2887 H         1 RES1    0.0000
     16 H5         3.5723    6.6648    3.3987 H         1 RES1    0.0000
     17 C3         3.7969    8.3786    2.1900 C.3       1 RES1    0.0000
     18 H6         4.2747    8.5476    1.3285 H         1 RES1    0.0000
     19 C4         4.4109    9.2504    3.2391 C.2       1 RES1    0.0000
     20 C5         3.7210    9.8034    4.2827 C.2       1 RES1    0.0000
     21 C6         2.2327    9.8390    4.1828 C.ar      1 RES1    0.0000
     22 C7         0.2898   10.5375    5.1906 C.ar      1 RES1    0.0000
     23 H7        -0.1507   10.9597    5.9193 H         1 RES1    0.0000
     24 C8        -0.4779   10.0777    4.1278 C.ar      1 RES1    0.0000
     25 H8        -1.4224   10.1760    4.1343 H         1 RES1    0.0000
     26 C9         0.1578    9.4757    3.0638 C.ar      1 RES1    0.0000
     27 H9        -0.3476    9.1428    2.3318 H         1 RES1    0.0000
     28 C10        1.5565    9.3578    3.0677 C.ar      1 RES1    0.0000
     29 C11        2.2763    8.6391    1.9578 C.3       1 RES1    0.0000
     30 C12        2.5090    4.9580    1.6958 C.3       1 RES1    0.0000
     31 H10        1.6672    4.7644    1.2116 H         1 RES1    0.0000
     32 H11        2.3477    4.7909    2.6581 H         1 RES1    0.0000
     33 C13        3.5826    4.0111    1.2081 C.ar      1 RES1    0.0000
     34 C14        3.5734    2.6966    1.6620 C.ar      1 RES1    0.0000
     35 H12        2.9513    2.4388    2.3318 H         1 RES1    0.0000
     36 C15        4.4551    1.7578    1.1554 C.ar      1 RES1    0.0000
     37 H13        4.4270    0.8613    1.4680 H         1 RES1    0.0000
     38 C16        5.3819    2.1285    0.1885 C.ar      1 RES1    0.0000
     39 H14        5.9877    1.4879   -0.1662 H         1 RES1    0.0000
     40 C17        5.4148    3.4396   -0.2537 C.ar      1 RES1    0.0000
     41 H15        6.0566    3.6987   -0.9048 H         1 RES1    0.0000
     42 C18        4.5224    4.3818    0.2413 C.ar      1 RES1    0.0000
     43 H16        4.5498    5.2761   -0.0769 H         1 RES1    0.0000
     44 C19        5.3987   10.1282    6.1152 C.ar      1 RES1    0.0000
     45 C20        6.1227    8.9491    5.9672 C.ar      1 RES1    0.0000
     46 H17        5.8192    8.2750    5.3705 H         1 RES1    0.0000
     47 C21        7.2896    8.7611    6.6937 C.ar      1 RES1    0.0000
     48 H18        7.7877    7.9590    6.5892 H         1 RES1    0.0000
     49 C22        7.7340    9.7386    7.5715 C.ar      1 RES1    0.0000
     50 H19        8.5475    9.6177    8.0470 H         1 RES1    0.0000
     51 C23        6.9921   10.8859    7.7534 C.ar      1 RES1    0.0000
     52 H20        7.2850   11.5455    8.3712 H         1 RES1    0.0000
     53 C24        5.8164   11.0813    7.0351 C.ar      1 RES1    0.0000
     54 H21        5.2996   11.8665    7.1740 H         1 RES1    0.0000
@<TRIPOS>BOND
     1    1    7 2
     2    2    7 2
     3    3    8 2
     4    4    8 2
     5    5   11 1
     6    6   21 ar
     7    7   29 1
     8    8   19 1
     9    9   10 1
    10   11   12 1
    11   13   11 1
    12   14    5 1
    13   15   14 1
    14   16   14 1
    15   17   14 1
    16   18   17 1
    17   19   17 1
    18   20    9 1
    19   21   20 1
    20   22    6 ar
    21   23   22 1
    22   24   22 ar
    23   25   24 1
    24   26   24 ar
    25   27   26 1
    26   28   21 ar
    27   29   11 1
    28   30    5 1
    29   31   30 1
    30   32   30 1
    31   33   30 1
    32   34   33 ar
    33   35   34 1
    34   36   34 ar
    35   37   36 1
    36   38   36 ar
    37   39   38 1
    38   40   38 ar
    39   41   40 1
    40   42   33 ar
    41   43   42 1
    42   44    9 1
    43   45   44 ar
    44   46   45 1
    45   47   45 ar
    46   48   47 1
    47   49   47 ar
    48   50   49 1
    49   51   49 ar
    50   52   51 1
    51   53   44 ar
    52   54   53 1
    53   17   29 1
    54   19   20 2
    55   26   28 ar
    56   28   29 1
    57   40   42 ar
    58   51   53 ar
@<TRIPOS>SUBSTRUCTURE
     1 RES1 1

@<TRIPOS>CRYSIN
  10.0912   10.8126   11.0506  68.2110  81.8910  70.7350   2 1

