# MOL2 file generated by ConQuest
# Please check atom types

@<TRIPOS>MOLECULE
CALLIL
    80    84     1
SMALL
NO_CHARGES
****
Generated from CSD

@<TRIPOS>ATOM
      1 O1         7.5741    3.8749    2.1191 O.3       1 RES1    0.0000
      2 O2        11.0486    4.4467    3.0202 O.3       1 RES1    0.0000
      3 O3         8.1942    6.0269    1.4113 O.3       1 RES1    0.0000
      4 O4        10.6073    7.8378    0.8828 O.3       1 RES1    0.0000
      5 O5        12.4456    6.6117    1.4780 O.3       1 RES1    0.0000
      6 O6        14.9862    6.5365    3.9690 O.2       1 RES1    0.0000
      7 O7        13.4331    6.7603    5.4304 O.2       1 RES1    0.0000
      8 O8        15.3391    3.9159    5.8030 O.3       1 RES1    0.0000
      9 O9        15.7684    1.7106    6.0496 O.3       1 RES1    0.0000
     10 O10       14.0548    1.1628    2.8815 O.3       1 RES1    0.0000
     11 O11       13.4607   -0.8002    3.8276 O.3       1 RES1    0.0000
     12 O12       10.8473    2.3795    5.4248 O.2       1 RES1    0.0000
     13 O13       10.3006    4.2220    6.3654 O.2       1 RES1    0.0000
     14 N1        13.9186    6.2287    4.4459 N.pl3     1 RES1    0.0000
     15 N2        11.1197    3.4524    5.9221 N.pl3     1 RES1    0.0000
     16 C1         8.9203    3.5066    2.4350 C.3       1 RES1    0.0000
     17 H1         9.3400    3.0856    1.6689 H         1 RES1    0.0000
     18 H2         8.9296    2.8786    3.1749 H         1 RES1    0.0000
     19 C2         9.6684    4.7624    2.8112 C.3       1 RES1    0.0000
     20 H3         9.2865    5.1468    3.6284 H         1 RES1    0.0000
     21 C3         9.5668    5.7616    1.6735 C.3       1 RES1    0.0000
     22 H4         9.9807    5.3799    0.8717 H         1 RES1    0.0000
     23 C4        10.2698    7.0598    2.0293 C.3       1 RES1    0.0000
     24 H5         9.7187    7.5852    2.6451 H         1 RES1    0.0000
     25 C5        11.6449    6.7971    2.6416 C.3       1 RES1    0.0000
     26 H6        11.9476    7.5913    3.1288 H         1 RES1    0.0000
     27 C6        11.7202    5.5769    3.5517 C.3       1 RES1    0.0000
     28 H7        11.3156    5.8047    4.4151 H         1 RES1    0.0000
     29 C7        13.1569    5.1073    3.7950 C.3       1 RES1    0.0000
     30 H8        13.5673    4.9351    2.9215 H         1 RES1    0.0000
     31 C8        13.2371    3.8128    4.6124 C.3       1 RES1    0.0000
     32 H9        12.7422    3.1408    4.0979 H         1 RES1    0.0000
     33 C9        14.6712    3.2818    4.7244 C.3       1 RES1    0.0000
     34 H10       15.1544    3.4491    3.8889 H         1 RES1    0.0000
     35 C10       14.7403    1.7897    5.0793 C.3       1 RES1    0.0000
     36 H11       13.8926    1.5183    5.4887 H         1 RES1    0.0000
     37 C11       15.0300    0.8913    3.8963 C.3       1 RES1    0.0000
     38 H12       15.9359    1.0459    3.5576 H         1 RES1    0.0000
     39 C12       14.8171   -0.5883    4.2117 C.3       1 RES1    0.0000
     40 H13       15.4196   -1.1471    3.6958 H         1 RES1    0.0000
     41 H14       14.9470   -0.7683    5.1556 H         1 RES1    0.0000
     42 C13       12.5653    3.8636    5.9894 C.3       1 RES1    0.0000
     43 H15       13.0380    3.2742    6.5978 H         1 RES1    0.0000
     44 H16       12.6254    4.7649    6.3409 H         1 RES1    0.0000
     45 C14        7.4449    4.8472    1.0846 C.3       1 RES1    0.0000
     46 C15        5.9910    5.2664    1.1176 C.3       1 RES1    0.0000
     47 H17        5.4379    4.5257    0.8593 H         1 RES1    0.0000
     48 H18        5.8537    5.9948    0.5067 H         1 RES1    0.0000
     49 H19        5.7588    5.5455    2.0056 H         1 RES1    0.0000
     50 C16        7.8479    4.2830   -0.2704 C.3       1 RES1    0.0000
     51 H20        8.7418    3.9368   -0.2197 H         1 RES1    0.0000
     52 H21        7.8108    4.9796   -0.9301 H         1 RES1    0.0000
     53 H22        7.2454    3.5764   -0.5156 H         1 RES1    0.0000
     54 C17       11.9687    7.5478    0.5079 C.3       1 RES1    0.0000
     55 C18       12.7673    8.8352    0.5739 C.3       1 RES1    0.0000
     56 H23       12.3929    9.4746   -0.0354 H         1 RES1    0.0000
     57 H24       13.6798    8.6587    0.3331 H         1 RES1    0.0000
     58 H25       12.7334    9.1863    1.4670 H         1 RES1    0.0000
     59 C19       12.0163    6.9007   -0.8522 C.3       1 RES1    0.0000
     60 H26       11.4564    6.1206   -0.8557 H         1 RES1    0.0000
     61 H27       12.9201    6.6466   -1.0542 H         1 RES1    0.0000
     62 H28       11.7042    7.5223   -1.5130 H         1 RES1    0.0000
     63 C20       16.3277    2.9917    6.2747 C.3       1 RES1    0.0000
     64 C21       17.6146    3.1546    5.5029 C.3       1 RES1    0.0000
     65 H29       18.1898    2.4062    5.6801 H         1 RES1    0.0000
     66 H30       18.0501    3.9644    5.7757 H         1 RES1    0.0000
     67 H31       17.4214    3.1945    4.5639 H         1 RES1    0.0000
     68 C22       16.5002    3.2006    7.7537 C.3       1 RES1    0.0000
     69 H32       15.6608    3.0549    8.1977 H         1 RES1    0.0000
     70 H33       16.7960    4.0993    7.9177 H         1 RES1    0.0000
     71 H34       17.1518    2.5826    8.0914 H         1 RES1    0.0000
     72 C23       13.2432   -0.0066    2.6781 C.3       1 RES1    0.0000
     73 C24       11.7991    0.3941    2.6538 C.3       1 RES1    0.0000
     74 H35       11.2566   -0.3742    2.4662 H         1 RES1    0.0000
     75 H36       11.6627    1.0567    1.9719 H         1 RES1    0.0000
     76 H37       11.5535    0.7591    3.5080 H         1 RES1    0.0000
     77 C25       13.6798   -0.7191    1.4165 C.3       1 RES1    0.0000
     78 H38       14.6174   -0.9186    1.4687 H         1 RES1    0.0000
     79 H39       13.5139   -0.1549    0.6573 H         1 RES1    0.0000
     80 H40       13.1831   -1.5351    1.3217 H         1 RES1    0.0000
@<TRIPOS>BOND
     1    1   16 1
     2    2   19 1
     3    3   21 1
     4    4   23 1
     5    5   25 1
     6    6   14 2
     7    7   14 2
     8    8   33 1
     9    9   35 1
    10   10   37 1
    11   11   39 1
    12   12   15 2
    13   13   15 2
    14   14   29 1
    15   15   42 1
    16   16   17 1
    17   18   16 1
    18   19   16 1
    19   20   19 1
    20   21   19 1
    21   22   21 1
    22   23   21 1
    23   24   23 1
    24   25   23 1
    25   26   25 1
    26   27    2 1
    27   28   27 1
    28   29   27 1
    29   30   29 1
    30   31   29 1
    31   32   31 1
    32   33   31 1
    33   34   33 1
    34   35   33 1
    35   36   35 1
    36   37   35 1
    37   38   37 1
    38   39   37 1
    39   40   39 1
    40   41   39 1
    41   42   31 1
    42   43   42 1
    43   44   42 1
    44   45    1 1
    45   46   45 1
    46   47   46 1
    47   48   46 1
    48   49   46 1
    49   50   45 1
    50   51   50 1
    51   52   50 1
    52   53   50 1
    53   54    4 1
    54   55   54 1
    55   56   55 1
    56   57   55 1
    57   58   55 1
    58   59   54 1
    59   60   59 1
    60   61   59 1
    61   62   59 1
    62   63    8 1
    63   64   63 1
    64   65   64 1
    65   66   64 1
    66   67   64 1
    67   68   63 1
    68   69   68 1
    69   70   68 1
    70   71   68 1
    71   72   10 1
    72   73   72 1
    73   74   73 1
    74   75   73 1
    75   76   73 1
    76   77   72 1
    77   78   77 1
    78   79   77 1
    79   80   77 1
    80    3   45 1
    81    5   54 1
    82    9   63 1
    83   11   72 1
    84   25   27 1
@<TRIPOS>SUBSTRUCTURE
     1 RES1 1

@<TRIPOS>CRYSIN
  10.9150   15.3360   17.7170  90.0000  90.0000  90.0000  19 1

