# MOL2 file generated by ConQuest
# Please check atom types

@<TRIPOS>MOLECULE
CANBAV
    61    63     1
SMALL
NO_CHARGES
****
Generated from CSD

@<TRIPOS>ATOM
      1 O1        -2.7705    4.1599    7.5964 O.3       1 RES1    0.0000
      2 O2        -2.4679    1.5778    8.3191 O.3       1 RES1    0.0000
      3 O3        -6.1335    6.4474    6.6035 O.2       1 RES1    0.0000
      4 O4        -4.2999    7.1404    7.6893 O.3       1 RES1    0.0000
      5 N1        -0.5547    5.2441    5.8116 N.pl3     1 RES1    0.0000
      6 N2        -2.0421    0.2572    8.6577 N.2       1 RES1    0.0000
      7 N3        -0.4417    1.3456    7.4917 N.2       1 RES1    0.0000
      8 N4        -6.6631    3.2137    9.0592 N.3       1 RES1    0.0000
      9 C1         0.5352    5.5315    4.8993 C.3       1 RES1    0.0000
     10 H1         1.0889    4.7529    4.8074 H         1 RES1    0.0000
     11 H2         1.0583    6.2580    5.2449 H         1 RES1    0.0000
     12 H3         0.1782    5.7732    4.0406 H         1 RES1    0.0000
     13 C2        -1.4827    6.3406    6.0577 C.3       1 RES1    0.0000
     14 H4        -2.1644    6.0518    6.6691 H         1 RES1    0.0000
     15 H5        -1.8881    6.6078    5.2296 H         1 RES1    0.0000
     16 H6        -1.0075    7.0834    6.4361 H         1 RES1    0.0000
     17 C3        -0.6894    4.0230    6.3475 C.2       1 RES1    0.0000
     18 H7        -0.0249    3.4250    6.0927 H         1 RES1    0.0000
     19 C4        -1.6093    3.4931    7.1887 C.2       1 RES1    0.0000
     20 C5        -1.4585    2.1368    7.6317 C.2       1 RES1    0.0000
     21 C6        -0.8462    0.1955    8.1414 C.2       1 RES1    0.0000
     22 C7         0.0360   -1.0000    8.1994 C.ar      1 RES1    0.0000
     23 C8         1.1389   -1.0092    7.3571 C.ar      1 RES1    0.0000
     24 H8         1.2930   -0.2851    6.7949 H         1 RES1    0.0000
     25 C9         2.0105   -2.0765    7.3407 C.ar      1 RES1    0.0000
     26 H9         2.7486   -2.0678    6.7741 H         1 RES1    0.0000
     27 C10        1.7850   -3.1532    8.1644 C.ar      1 RES1    0.0000
     28 H10        2.3676   -3.8786    8.1546 H         1 RES1    0.0000
     29 C11        0.6962   -3.1558    9.0034 C.ar      1 RES1    0.0000
     30 H11        0.5553   -3.8913    9.5547 H         1 RES1    0.0000
     31 C12       -0.2061   -2.0898    9.0548 C.ar      1 RES1    0.0000
     32 C13       -1.3683   -2.1842   10.0020 C.3       1 RES1    0.0000
     33 H12       -1.3231   -3.0156   10.4811 H         1 RES1    0.0000
     34 H13       -2.1889   -2.1446    9.5065 H         1 RES1    0.0000
     35 H14       -1.3339   -1.4541   10.6244 H         1 RES1    0.0000
     36 C14       -2.8605    4.5355    8.9323 C.ar      1 RES1    0.0000
     37 C15       -1.8008    4.4351    9.8106 C.ar      1 RES1    0.0000
     38 H15       -0.9788    4.1108    9.5175 H         1 RES1    0.0000
     39 C16       -1.9671    4.8196   11.1298 C.ar      1 RES1    0.0000
     40 H16       -1.2567    4.7464   11.7248 H         1 RES1    0.0000
     41 C17       -3.1656    5.3045   11.5608 C.ar      1 RES1    0.0000
     42 H17       -3.2802    5.5556   12.4490 H         1 RES1    0.0000
     43 C18       -4.2126    5.4203   10.6572 C.ar      1 RES1    0.0000
     44 H18       -5.0213    5.7734   10.9504 H         1 RES1    0.0000
     45 C19       -4.0972    5.0269    9.3359 C.ar      1 RES1    0.0000
     46 C20       -5.3045    6.2550    7.4687 C.2       1 RES1    0.0000
     47 C21       -5.2471    5.1403    8.4061 C.2       1 RES1    0.0000
     48 C22       -4.2657    8.2939    6.8223 C.3       1 RES1    0.0000
     49 H19       -3.5178    8.8493    7.0563 H         1 RES1    0.0000
     50 H20       -5.0794    8.7941    6.9229 H         1 RES1    0.0000
     51 H21       -4.1777    8.0065    5.9100 H         1 RES1    0.0000
     52 C23       -6.3450    4.3375    8.3875 C.2       1 RES1    0.0000
     53 H22       -7.0041    4.6183    7.7947 H         1 RES1    0.0000
     54 C24       -7.9901    2.6509    8.9432 C.3       1 RES1    0.0000
     55 H23       -8.5201    3.1967    8.3569 H         1 RES1    0.0000
     56 H24       -8.4027    2.6201    9.8106 H         1 RES1    0.0000
     57 H25       -7.9309    1.7616    8.5855 H         1 RES1    0.0000
     58 C25       -5.7399    2.4987    9.9080 C.3       1 RES1    0.0000
     59 H26       -4.8993    2.9639    9.9298 H         1 RES1    0.0000
     60 H27       -5.6063    1.6134    9.5612 H         1 RES1    0.0000
     61 H28       -6.0974    2.4443   10.7962 H         1 RES1    0.0000
@<TRIPOS>BOND
     1    1   19 1
     2    2    6 1
     3    3   46 2
     4    4   46 1
     5    5    9 1
     6    6   21 2
     7    7   20 2
     8    8   52 1
     9    9   10 1
    10   11    9 1
    11   12    9 1
    12   13    5 1
    13   14   13 1
    14   15   13 1
    15   16   13 1
    16   17    5 1
    17   18   17 1
    18   19   17 2
    19   20    2 1
    20   21    7 1
    21   22   21 1
    22   23   22 ar
    23   24   23 1
    24   25   23 ar
    25   26   25 1
    26   27   25 ar
    27   28   27 1
    28   29   27 ar
    29   30   29 1
    30   31   22 ar
    31   32   31 1
    32   33   32 1
    33   34   32 1
    34   35   32 1
    35   36    1 1
    36   37   36 ar
    37   38   37 1
    38   39   37 ar
    39   40   39 1
    40   41   39 ar
    41   42   41 1
    42   43   41 ar
    43   44   43 1
    44   45   36 ar
    45   46   47 1
    46   47   45 1
    47   48    4 1
    48   49   48 1
    49   50   48 1
    50   51   48 1
    51   52   47 2
    52   53   52 1
    53   54    8 1
    54   55   54 1
    55   56   54 1
    56   57   54 1
    57   58    8 1
    58   59   58 1
    59   60   58 1
    60   61   58 1
    61   19   20 1
    62   29   31 ar
    63   43   45 ar
@<TRIPOS>SUBSTRUCTURE
     1 RES1 1

@<TRIPOS>CRYSIN
  10.2500   10.6910   12.2630 105.4600 110.7400  92.3000   2 1

