# MOL2 file generated by ConQuest
# Please check atom types

@<TRIPOS>MOLECULE
CANHAB
    67    70     1
SMALL
NO_CHARGES
****
Generated from CSD

@<TRIPOS>ATOM
      1 C1        -0.1459    0.2859   24.2172 C.3       1 RES1    0.0000
      2 H1        -0.3100   -0.1707   23.3775 H         1 RES1    0.0000
      3 H2        -0.9805    0.6899   24.5008 H         1 RES1    0.0000
      4 C2         0.2788   -0.7396   25.2563 C.3       1 RES1    0.0000
      5 C3         2.2828    4.6740   24.5518 C.ar      1 RES1    0.0000
      6 H3         3.0686    5.0936   24.2844 H         1 RES1    0.0000
      7 C4         1.3940    5.2799   25.3446 C.ar      1 RES1    0.0000
      8 H4         1.5711    6.1476   25.6306 H         1 RES1    0.0000
      9 C5         0.2123    4.6683   25.7612 C.ar      1 RES1    0.0000
     10 H5        -0.3735    5.1391   26.3084 H         1 RES1    0.0000
     11 C6        -0.1094    3.3782   25.3819 C.ar      1 RES1    0.0000
     12 H6        -0.9058    2.9814   25.6555 H         1 RES1    0.0000
     13 C7         0.7941    2.6969   24.5854 C.ar      1 RES1    0.0000
     14 C8         0.8688    1.3812   23.9831 C.2       1 RES1    0.0000
     15 C9         1.9622    1.3342   23.2845 C.2       1 RES1    0.0000
     16 H7         2.2310    0.6017   22.7778 H         1 RES1    0.0000
     17 N1         2.6681    2.5006   23.3906 N.pl3     1 RES1    0.0000
     18 H8         3.4357    2.6556   23.0349 H         1 RES1    0.0000
     19 C10        1.9658    3.3654   24.1423 C.ar      1 RES1    0.0000
     20 O1         1.5676   -1.3157   24.8490 O.3       1 RES1    0.0000
     21 N2         1.5381   -2.6969   25.0769 N.2       1 RES1    0.0000
     22 C11        0.3835   -3.0169   25.4450 C.2       1 RES1    0.0000
     23 C12       -0.6288   -1.9245   25.4612 C.3       1 RES1    0.0000
     24 H9        -1.0970   -1.8776   26.3096 H         1 RES1    0.0000
     25 H10       -1.2711   -2.0155   24.7402 H         1 RES1    0.0000
     26 C13        0.1653   -4.4905   25.8140 C.2       1 RES1    0.0000
     27 O2         0.9717   -5.3255   25.5407 O.2       1 RES1    0.0000
     28 O3        -0.9758   -4.6086   26.4281 O.3       1 RES1    0.0000
     29 C14       -1.3487   -5.9769   26.8649 C.3       1 RES1    0.0000
     30 H11       -2.2510   -6.1604   26.5602 H         1 RES1    0.0000
     31 H12       -0.7594   -6.6099   26.4265 H         1 RES1    0.0000
     32 C15       -1.3029   -6.1746   28.0245 C.3       1 RES1    0.0000
     33 H13       -2.1158   -5.8674   28.4349 H         1 RES1    0.0000
     34 H14       -0.5588   -5.7010   28.4007 H         1 RES1    0.0000
     35 H15       -1.1999   -7.1148   28.1862 H         1 RES1    0.0000
     36 C16        0.4770    0.0043   26.5888 C.2       1 RES1    0.0000
     37 O4         1.6758   -0.0626   27.1248 O.3       1 RES1    0.0000
     38 C17        1.8958    0.6529   28.3864 C.3       1 RES1    0.0000
     39 H16        1.0370    0.7951   28.8366 H         1 RES1    0.0000
     40 C18        2.7675   -0.1963   29.2370 C.3       1 RES1    0.0000
     41 H17        3.6104   -0.3172   28.7520 H         1 RES1    0.0000
     42 C19        3.0875    0.6074   30.4962 C.3       1 RES1    0.0000
     43 H18        2.2687    0.7496   30.9967 H         1 RES1    0.0000
     44 H19        3.6880    0.0896   31.0558 H         1 RES1    0.0000
     45 C20        3.7139    1.9259   30.2039 C.3       1 RES1    0.0000
     46 H20        4.5668    1.7837   29.7656 H         1 RES1    0.0000
     47 H21        3.8821    2.3911   31.0403 H         1 RES1    0.0000
     48 C21        2.8257    2.7922   29.3148 C.3       1 RES1    0.0000
     49 H22        1.9869    2.9700   29.7904 H         1 RES1    0.0000
     50 C22        2.5057    1.9800   28.0398 C.3       1 RES1    0.0000
     51 H23        1.8905    2.4835   27.4829 H         1 RES1    0.0000
     52 H24        3.3210    1.8392   27.5342 H         1 RES1    0.0000
     53 C23        2.2046   -1.6258   29.5479 C.3       1 RES1    0.0000
     54 H25        2.6351   -1.6543   30.4278 H         1 RES1    0.0000
     55 C24        0.8217   -1.5874   30.1480 C.3       1 RES1    0.0000
     56 H26        0.6817   -2.3740   30.6796 H         1 RES1    0.0000
     57 H27        0.1688   -1.5575   29.4422 H         1 RES1    0.0000
     58 H28        0.7341   -0.8079   30.6983 H         1 RES1    0.0000
     59 C25        2.8116   -2.6627   29.1500 C.3       1 RES1    0.0000
     60 H29        2.1787   -3.3711   29.0101 H         1 RES1    0.0000
     61 H30        3.4527   -2.9344   29.8153 H         1 RES1    0.0000
     62 H31        3.2704   -2.4721   28.3261 H         1 RES1    0.0000
     63 C26        3.4492    4.1122   28.9324 C.3       1 RES1    0.0000
     64 H32        2.7857    4.6740   28.5251 H         1 RES1    0.0000
     65 H33        4.1662    3.9614   28.3137 H         1 RES1    0.0000
     66 H34        3.7915    4.5446   29.7189 H         1 RES1    0.0000
     67 O5        -0.4411    0.5746   27.1080 O.2       1 RES1    0.0000
@<TRIPOS>BOND
     1    1    2 1
     2    3    1 1
     3    4    1 1
     4    5    6 1
     5    7    5 ar
     6    8    7 1
     7    9    7 ar
     8   10    9 1
     9   11    9 ar
    10   12   11 1
    11   13   11 ar
    12   14    1 1
    13   15   14 2
    14   16   15 1
    15   17   15 1
    16   18   17 1
    17   19    5 ar
    18   20    4 1
    19   21   20 1
    20   22   21 2
    21   23    4 1
    22   24   23 1
    23   25   23 1
    24   26   22 1
    25   27   26 2
    26   28   26 1
    27   29   28 1
    28   30   29 1
    29   31   29 1
    30   32   29 1
    31   33   32 1
    32   34   32 1
    33   35   32 1
    34   36    4 1
    35   37   36 1
    36   38   37 1
    37   39   38 1
    38   40   38 1
    39   41   40 1
    40   42   40 1
    41   43   42 1
    42   44   42 1
    43   45   42 1
    44   46   45 1
    45   47   45 1
    46   48   45 1
    47   49   48 1
    48   50   38 1
    49   51   50 1
    50   52   50 1
    51   53   40 1
    52   54   53 1
    53   55   53 1
    54   56   55 1
    55   57   55 1
    56   58   55 1
    57   59   53 1
    58   60   59 1
    59   61   59 1
    60   62   59 1
    61   63   48 1
    62   64   63 1
    63   65   63 1
    64   66   63 1
    65   67   36 2
    66   13   14 1
    67   13   19 ar
    68   17   19 1
    69   22   23 1
    70   48   50 1
@<TRIPOS>SUBSTRUCTURE
     1 RES1 1

@<TRIPOS>CRYSIN
   5.8820   14.2240   31.0900  90.0000  90.0000  90.0000  19 1

