# MOL2 file generated by ConQuest
# Please check atom types

@<TRIPOS>MOLECULE
CANXIA
    28    27     1
SMALL
NO_CHARGES
****
Generated from CSD

@<TRIPOS>ATOM
      1 N1         0.3969    1.7750    6.9671 N.pl3     1 RES1    0.0000
      2 N2         1.4346   -0.1552    4.9557 N.pl3     1 RES1    0.0000
      3 O1        -0.2856    2.6820    7.3614 O.2       1 RES1    0.0000
      4 O2         1.5806    1.8908    6.6565 O.2       1 RES1    0.0000
      5 O3         1.7430    0.5825    4.0354 O.2       1 RES1    0.0000
      6 O4         2.2165   -0.9193    5.4987 O.2       1 RES1    0.0000
      7 O5        -0.7710    2.0021    4.5192 O.3       1 RES1    0.0000
      8 H1        -0.1432    2.2697    4.0637 H         1 RES1    0.0000
      9 O6        -0.2283   -2.1600    4.0127 O.3       1 RES1    0.0000
     10 H2         0.3821   -2.7077    4.0133 H         1 RES1    0.0000
     11 O7        -2.0915   -0.8428    7.8156 O.3       1 RES1    0.0000
     12 H3        -2.4462   -1.2539    7.2008 H         1 RES1    0.0000
     13 O8         0.4146    0.1615    9.2015 O.3       1 RES1    0.0000
     14 H4         1.1359    0.3706    9.5303 H         1 RES1    0.0000
     15 C1        -0.8841    0.5938    4.3881 C.3       1 RES1    0.0000
     16 H5        -0.6041    0.3390    3.4949 H         1 RES1    0.0000
     17 H6        -1.8160    0.3437    4.4877 H         1 RES1    0.0000
     18 C2        -0.0500   -0.1876    5.4112 C.3       1 RES1    0.0000
     19 C3        -0.4371   -1.6851    5.3299 C.3       1 RES1    0.0000
     20 H7         0.1020   -2.1970    5.9523 H         1 RES1    0.0000
     21 H8        -1.3695   -1.7957    5.5737 H         1 RES1    0.0000
     22 C4        -1.6597    0.4172    7.3501 C.3       1 RES1    0.0000
     23 H9        -1.7421    1.0714    8.0613 H         1 RES1    0.0000
     24 H10       -2.2216    0.7007    6.6125 H         1 RES1    0.0000
     25 C5        -0.1825    0.3431    6.8802 C.3       1 RES1    0.0000
     26 C6         0.6287   -0.4424    7.9328 C.3       1 RES1    0.0000
     27 H11        0.3401   -1.3684    7.9523 H         1 RES1    0.0000
     28 H12        1.5728   -0.4205    7.7092 H         1 RES1    0.0000
@<TRIPOS>BOND
     1    1    3 2
     2    2    5 2
     3    4    1 2
     4    6    2 2
     5    7    8 1
     6    9   10 1
     7   11   12 1
     8   13   14 1
     9   15    7 1
    10   16   15 1
    11   17   15 1
    12   18    2 1
    13   19    9 1
    14   20   19 1
    15   21   19 1
    16   22   11 1
    17   23   22 1
    18   24   22 1
    19   25    1 1
    20   26   13 1
    21   27   26 1
    22   28   26 1
    23   15   18 1
    24   18   19 1
    25   18   25 1
    26   22   25 1
    27   25   26 1
@<TRIPOS>SUBSTRUCTURE
     1 RES1 1

@<TRIPOS>CRYSIN
   6.3240    6.4540    7.0620 111.5500  95.5050 113.3950   1 1

