# MOL2 file generated by ConQuest
# Please check atom types

@<TRIPOS>MOLECULE
CAQLOV
    41    41     1
SMALL
NO_CHARGES
****
Generated from CSD

@<TRIPOS>ATOM
      1 O1         6.8531    5.5869    0.6431 O.2       1 RES1    0.0000
      2 O2         8.1744    7.2370    0.1649 O.2       1 RES1    0.0000
      3 O3         7.5586    6.9748    3.3021 O.3       1 RES1    0.0000
      4 O4         9.8300    9.2772    3.9410 O.2       1 RES1    0.0000
      5 O5         8.8740    8.0751    5.5790 O.3       1 RES1    0.0000
      6 O6         5.6180    7.8929    4.9296 O.2       1 RES1    0.0000
      7 O7         6.4570    9.9820    4.8847 O.3       1 RES1    0.0000
      8 O8         6.2129   11.7633    2.1683 O.2       1 RES1    0.0000
      9 O9         4.2766   11.4078    3.0547 O.2       1 RES1    0.0000
     10 N1         7.1045    6.7785    0.5523 N.pl3     1 RES1    0.0000
     11 N2         5.2258   11.0604    2.3688 N.pl3     1 RES1    0.0000
     12 C1         6.2583    8.9098    1.5764 C.ar      1 RES1    0.0000
     13 C2         6.0067    7.7383    0.8519 C.ar      1 RES1    0.0000
     14 C3         4.7783    7.3922    0.3247 C.ar      1 RES1    0.0000
     15 C4         3.7016    8.2502    0.5063 C.ar      1 RES1    0.0000
     16 C5         3.8785    9.4282    1.1880 C.ar      1 RES1    0.0000
     17 C6         5.1385    9.7413    1.6954 C.ar      1 RES1    0.0000
     18 C7         7.5576    9.1589    2.3207 C.3       1 RES1    0.0000
     19 C8         7.5991    8.3406    3.6247 C.3       1 RES1    0.0000
     20 C9         8.9135    8.6422    4.3836 C.2       1 RES1    0.0000
     21 C10       10.0552    8.2274    6.4382 C.3       1 RES1    0.0000
     22 C11        9.7565    7.5218    7.7191 C.3       1 RES1    0.0000
     23 C12        6.4253    8.6996    4.5590 C.2       1 RES1    0.0000
     24 C13        5.4371   10.4300    5.8661 C.3       1 RES1    0.0000
     25 C14        5.8275    9.9995    7.2535 C.3       1 RES1    0.0000
     26 H1         7.3011    6.5473    3.9702 H         1 RES1    0.0000
     27 H2         4.6700    6.5431   -0.1931 H         1 RES1    0.0000
     28 H3         2.8619    7.9601    0.1190 H         1 RES1    0.0000
     29 H4         3.1257   10.0453    1.2841 H         1 RES1    0.0000
     30 H5         8.2698    8.8969    1.7758 H         1 RES1    0.0000
     31 H6         7.6931   10.1471    2.5222 H         1 RES1    0.0000
     32 H7        10.2227    9.2257    6.5269 H         1 RES1    0.0000
     33 H8        10.7683    7.8479    5.9579 H         1 RES1    0.0000
     34 H9        10.5183    7.6755    8.4081 H         1 RES1    0.0000
     35 H10        9.0770    7.9233    8.1304 H         1 RES1    0.0000
     36 H11        9.5062    6.5465    7.5479 H         1 RES1    0.0000
     37 H12        5.4613   11.4473    5.8003 H         1 RES1    0.0000
     38 H13        4.5429   10.0126    5.5852 H         1 RES1    0.0000
     39 H14        6.6182   10.2675    7.4800 H         1 RES1    0.0000
     40 H15        5.1825   10.2635    7.8809 H         1 RES1    0.0000
     41 H16        5.7407    9.0251    7.3391 H         1 RES1    0.0000
@<TRIPOS>BOND
     1    1   10 2
     2    2   10 2
     3    3   19 1
     4    4   20 2
     5    5   20 1
     6    6   23 2
     7    7   23 1
     8    8   11 2
     9    9   11 2
    10   10   13 1
    11   11   17 1
    12   12   13 ar
    13   13   14 ar
    14   14   15 ar
    15   15   16 ar
    16   16   17 ar
    17   17   12 ar
    18   18   12 1
    19   19   18 1
    20   20   19 1
    21   21    5 1
    22   22   21 1
    23   23   19 1
    24   24    7 1
    25   25   24 1
    26   26    3 1
    27   27   14 1
    28   28   15 1
    29   29   16 1
    30   30   18 1
    31   31   18 1
    32   32   21 1
    33   33   21 1
    34   34   22 1
    35   35   22 1
    36   36   22 1
    37   37   24 1
    38   38   24 1
    39   39   25 1
    40   40   25 1
    41   41   25 1
@<TRIPOS>SUBSTRUCTURE
     1 RES1 1

@<TRIPOS>CRYSIN
   7.7860   10.3240   11.1550  71.4300  77.2100  76.4000   2 1

