# MOL2 file generated by ConQuest
# Please check atom types

@<TRIPOS>MOLECULE
CARLIQ
    69    72     1
SMALL
NO_CHARGES
****
Generated from CSD

@<TRIPOS>ATOM
      1 C1         2.6012   -7.0825    7.5943 C.3       1 RES1    0.0000
      2 C2         2.1035   -6.0007    8.5376 C.3       1 RES1    0.0000
      3 C3         0.6728   -5.6116    8.2268 C.3       1 RES1    0.0000
      4 C4         0.5020   -5.2024    6.7496 C.3       1 RES1    0.0000
      5 C5        -0.9325   -4.8080    6.4937 C.2       1 RES1    0.0000
      6 C6        -1.8519   -5.6751    6.0367 C.2       1 RES1    0.0000
      7 C7        -1.4621   -7.0962    5.6893 C.3       1 RES1    0.0000
      8 C8        -0.0094   -7.4991    5.9361 C.3       1 RES1    0.0000
      9 C9         0.9713   -6.3264    5.7899 C.3       1 RES1    0.0000
     10 C10        0.9441   -5.8337    4.3438 C.2       1 RES1    0.0000
     11 C11        1.7848   -4.6388    4.0275 C.3       1 RES1    0.0000
     12 C12        3.2317   -4.9909    4.3529 C.3       1 RES1    0.0000
     13 C13        3.4263   -5.5165    5.7643 C.3       1 RES1    0.0000
     14 C14        2.4815   -6.7166    6.0970 C.3       1 RES1    0.0000
     15 C15       -3.3219   -5.3610    5.9014 C.3       1 RES1    0.0000
     16 C16       -3.9639   -5.9310    4.6418 C.3       1 RES1    0.0000
     17 C17       -4.0742   -5.8125    7.1409 C.3       1 RES1    0.0000
     18 O1         0.3735   -6.4523    3.4626 O.2       1 RES1    0.0000
     19 C18        4.9140   -5.8242    5.9763 C.3       1 RES1    0.0000
     20 C19        2.8773   -7.9580    5.2816 C.3       1 RES1    0.0000
     21 C20       -1.2949   -3.4450    6.8904 C.2       1 RES1    0.0000
     22 N1        -0.4087   -2.6943    7.4316 N.2       1 RES1    0.0000
     23 N2        -0.8325   -1.4201    7.7807 N.3       1 RES1    0.0000
     24 C21       -0.0307   -0.6947    8.5906 C.ar      1 RES1    0.0000
     25 C22       -0.3442    0.6069    9.0678 C.ar      1 RES1    0.0000
     26 N3        -1.5838    1.2657    8.7204 N.pl3     1 RES1    0.0000
     27 O2        -2.3382    0.7349    7.9069 O.2       1 RES1    0.0000
     28 O3        -1.8419    2.3495    9.2396 O.2       1 RES1    0.0000
     29 C23        0.5188    1.3048    9.9051 C.ar      1 RES1    0.0000
     30 C24        1.6979    0.7412   10.2652 C.ar      1 RES1    0.0000
     31 N4         2.6175    1.4698   11.1318 N.pl3     1 RES1    0.0000
     32 O4         3.6595    0.9242   11.4609 O.2       1 RES1    0.0000
     33 O5         2.2796    2.5822   11.5157 O.2       1 RES1    0.0000
     34 C25        2.0444   -0.5329    9.8320 C.ar      1 RES1    0.0000
     35 C26        1.2052   -1.2287    9.0221 C.ar      1 RES1    0.0000
     36 H1         3.5938   -7.3066    7.8063 H         1 RES1    0.0000
     37 H2         2.1059   -7.9728    7.7515 H         1 RES1    0.0000
     38 H3         2.7803   -5.2024    8.4096 H         1 RES1    0.0000
     39 H4         2.1364   -6.3127    9.4700 H         1 RES1    0.0000
     40 H5         0.3946   -4.8429    8.8118 H         1 RES1    0.0000
     41 H6         0.0171   -6.4184    8.4462 H         1 RES1    0.0000
     42 H7         1.0727   -4.3776    6.5815 H         1 RES1    0.0000
     43 H8        -1.6838   -7.2220    4.7350 H         1 RES1    0.0000
     44 H9        -2.0642   -7.7507    6.1975 H         1 RES1    0.0000
     45 H10        0.2713   -8.2266    5.2834 H         1 RES1    0.0000
     46 H11        0.0909   -7.8988    6.8922 H         1 RES1    0.0000
     47 H12        1.5093   -3.8595    4.6801 H         1 RES1    0.0000
     48 H13        1.6713   -4.4305    3.0896 H         1 RES1    0.0000
     49 H14        3.8455   -4.1767    4.1865 H         1 RES1    0.0000
     50 H15        3.5583   -5.6782    3.6929 H         1 RES1    0.0000
     51 H16        3.1987   -4.7794    6.3986 H         1 RES1    0.0000
     52 H17       -3.4264   -4.3142    5.8136 H         1 RES1    0.0000
     53 H18       -4.9628   -5.6465    4.6070 H         1 RES1    0.0000
     54 H19       -3.4267   -5.6571    3.7843 H         1 RES1    0.0000
     55 H20       -3.9618   -6.8942    4.6984 H         1 RES1    0.0000
     56 H21       -5.0903   -5.5831    7.0568 H         1 RES1    0.0000
     57 H22       -4.0013   -6.8202    7.2396 H         1 RES1    0.0000
     58 H23       -3.6540   -5.4879    7.9160 H         1 RES1    0.0000
     59 H24        5.4470   -5.0121    5.8136 H         1 RES1    0.0000
     60 H25        5.0218   -6.2069    6.8740 H         1 RES1    0.0000
     61 H26        5.1929   -6.4819    5.3383 H         1 RES1    0.0000
     62 H27        2.3832   -8.7870    5.6125 H         1 RES1    0.0000
     63 H28        2.7375   -7.8882    4.2779 H         1 RES1    0.0000
     64 H29        3.8277   -8.1843    5.4297 H         1 RES1    0.0000
     65 H30       -2.2365   -3.1511    6.7643 H         1 RES1    0.0000
     66 H31       -1.6927   -1.1314    7.5138 H         1 RES1    0.0000
     67 H32        0.1981    2.2311   10.2195 H         1 RES1    0.0000
     68 H33        2.8879   -0.9305   10.1281 H         1 RES1    0.0000
     69 H34        1.4439   -2.1677    8.7021 H         1 RES1    0.0000
@<TRIPOS>BOND
     1    1    2 1
     2    2    3 1
     3    3    4 1
     4    4    5 1
     5    5    6 2
     6    6    7 1
     7    7    8 1
     8    8    9 1
     9    9    4 1
    10   10    9 1
    11   11   10 1
    12   12   11 1
    13   13   12 1
    14   14    1 1
    15   15    6 1
    16   16   15 1
    17   17   15 1
    18   18   10 2
    19   19   13 1
    20   20   14 1
    21   21    5 1
    22   22   21 2
    23   23   22 1
    24   24   23 1
    25   25   24 ar
    26   26   25 1
    27   27   26 2
    28   28   26 2
    29   29   25 ar
    30   30   29 ar
    31   31   30 1
    32   32   31 2
    33   33   31 2
    34   34   30 ar
    35   35   24 ar
    36   36    1 1
    37   37    1 1
    38   38    2 1
    39   39    2 1
    40   40    3 1
    41   41    3 1
    42   42    4 1
    43   43    7 1
    44   44    7 1
    45   45    8 1
    46   46    8 1
    47   47   11 1
    48   48   11 1
    49   49   12 1
    50   50   12 1
    51   51   13 1
    52   52   15 1
    53   53   16 1
    54   54   16 1
    55   55   16 1
    56   56   17 1
    57   57   17 1
    58   58   17 1
    59   59   19 1
    60   60   19 1
    61   61   19 1
    62   62   20 1
    63   63   20 1
    64   64   20 1
    65   65   21 1
    66   66   23 1
    67   67   29 1
    68   68   34 1
    69   69   35 1
    70    9   14 1
    71   13   14 1
    72   34   35 ar
@<TRIPOS>SUBSTRUCTURE
     1 RES1 1

@<TRIPOS>CRYSIN
  12.8600   10.5740   19.1080  90.0000 106.9100  90.0000  14 1

