# MOL2 file generated by ConQuest
# Please check atom types

@<TRIPOS>MOLECULE
CARVOX01
    27    27     1
SMALL
NO_CHARGES
****
Generated from CSD

@<TRIPOS>ATOM
      1 C1        -5.1309    2.4028    3.2787 C.2       1 RES1    0.0000
      2 C2        -1.6798    0.0047    6.4233 C.3       1 RES1    0.0000
      3 C3        -4.3663    3.4478    3.9555 C.2       1 RES1    0.0000
      4 C4        -3.0384    3.1006    4.5670 C.3       1 RES1    0.0000
      5 C5        -2.9854    1.6623    5.0378 C.3       1 RES1    0.0000
      6 C6        -3.3882    0.7239    3.9220 C.3       1 RES1    0.0000
      7 C7        -4.6501    1.1658    3.2418 C.2       1 RES1    0.0000
      8 C8        -6.4057    2.7807    2.5742 C.3       1 RES1    0.0000
      9 C9        -1.6651    1.2725    5.6727 C.2       1 RES1    0.0000
     10 C10       -0.5729    1.9916    5.5462 C.2       1 RES1    0.0000
     11 H1        -4.5747    6.2439    4.6407 H         1 RES1    0.0000
     12 H2        -2.4927   -0.0592    7.1286 H         1 RES1    0.0000
     13 H3        -0.8768   -0.0592    6.9443 H         1 RES1    0.0000
     14 H4        -1.6678   -0.8057    5.6459 H         1 RES1    0.0000
     15 H5        -2.8359    3.6729    5.3025 H         1 RES1    0.0000
     16 H6        -2.3165    3.2582    3.8198 H         1 RES1    0.0000
     17 H7        -3.7232    1.5402    5.8051 H         1 RES1    0.0000
     18 H8        -3.4765   -0.1422    4.2386 H         1 RES1    0.0000
     19 H9        -2.6302    0.7109    3.1832 H         1 RES1    0.0000
     20 H10       -5.0965    0.4858    2.6973 H         1 RES1    0.0000
     21 H11       -6.2492    3.4833    1.9434 H         1 RES1    0.0000
     22 H12       -6.7631    2.0379    2.0774 H         1 RES1    0.0000
     23 H13       -7.0542    3.0686    3.1748 H         1 RES1    0.0000
     24 H14       -0.4776    2.8554    5.1601 H         1 RES1    0.0000
     25 H15        0.1238    1.6824    5.9726 H         1 RES1    0.0000
     26 N1        -4.8725    4.6290    3.9530 N.2       1 RES1    0.0000
     27 O1        -4.0334    5.5875    4.5578 O.3       1 RES1    0.0000
@<TRIPOS>BOND
     1    1    3 1
     2    2    9 1
     3    3    4 1
     4    4    5 1
     5    5    6 1
     6    6    7 1
     7    7    1 2
     8    8    1 1
     9    9    5 1
    10   10    9 2
    11   11   27 1
    12   12    2 1
    13   13    2 1
    14   14    2 1
    15   15    4 1
    16   16    4 1
    17   17    5 1
    18   18    6 1
    19   19    6 1
    20   20    7 1
    21   21    8 1
    22   22    8 1
    23   23    8 1
    24   24   10 1
    25   25   10 1
    26   26    3 2
    27   27   26 1
@<TRIPOS>SUBSTRUCTURE
     1 RES1 1

@<TRIPOS>CRYSIN
   9.8560   11.8480    8.4800  90.0000  98.9500  90.0000  14 1

