# MOL2 file generated by ConQuest
# Please check atom types

@<TRIPOS>MOLECULE
CASBOQ
    16    17     1
SMALL
NO_CHARGES
****
Generated from CSD

@<TRIPOS>ATOM
      1 O1         2.2749    0.4143    6.1194 O.2       1 RES1    0.0000
      2 O2         4.4275    0.5743    6.4233 O.2       1 RES1    0.0000
      3 N1         3.2454   -2.8495    3.8873 N.3       1 RES1    0.0000
      4 N2         4.5989   -2.8306    4.0116 N.2       1 RES1    0.0000
      5 N3         6.1727   -1.4387    5.0667 N.pl3     1 RES1    0.0000
      6 N4         7.1223   -1.4783    4.0895 N.2       1 RES1    0.0000
      7 N5         8.2374   -1.1891    4.6676 N.2       1 RES1    0.0000
      8 N6         8.0572   -0.9578    6.0088 N.2       1 RES1    0.0000
      9 N7         3.4333    0.0255    5.9413 N.pl3     1 RES1    0.0000
     10 C1         2.6277   -1.8626    4.5358 C.2       1 RES1    0.0000
     11 C2         3.6342   -1.1267    5.1332 C.2       1 RES1    0.0000
     12 C3         4.8352   -1.7734    4.7718 C.2       1 RES1    0.0000
     13 C4         6.7696   -1.1174    6.2276 C.2       1 RES1    0.0000
     14 H1         2.8385   -3.4342    3.3947 H         1 RES1    0.0000
     15 H2         1.6758   -1.7600    4.5262 H         1 RES1    0.0000
     16 H3         6.3133   -1.0337    7.0580 H         1 RES1    0.0000
@<TRIPOS>BOND
     1    1    9 2
     2    2    9 2
     3    3    4 1
     4    4   12 2
     5    5    6 1
     6    6    7 2
     7    7    8 1
     8    8   13 2
     9    9   11 1
    10   10    3 1
    11   11   10 2
    12   12    5 1
    13   13    5 1
    14   14    3 1
    15   15   10 1
    16   16   13 1
    17   11   12 1
@<TRIPOS>SUBSTRUCTURE
     1 RES1 1

@<TRIPOS>CRYSIN
   8.8484    9.5447    8.7982  90.0000 116.7300  90.0000  14 1

