# MOL2 file generated by ConQuest
# Please check atom types

@<TRIPOS>MOLECULE
CASCOP
    24    24     1
SMALL
NO_CHARGES
****
Generated from CSD

@<TRIPOS>ATOM
      1 N1         3.1070    1.0601    1.1251 N.pl3     1 RES1    0.0000
      2 H1         3.1784    0.1853    1.2126 H         1 RES1    0.0000
      3 N2         3.1484    1.6021   -0.1423 N.2       1 RES1    0.0000
      4 C1         3.0481    2.8982    0.0658 C.2       1 RES1    0.0000
      5 O1         3.0548    3.7315   -0.9745 O.3       1 RES1    0.0000
      6 H2         3.0580    4.5502   -0.6624 H         1 RES1    0.0000
      7 C2         2.9394    3.1754    1.4538 C.2       1 RES1    0.0000
      8 N3         2.7884    4.4688    1.9745 N.pl3     1 RES1    0.0000
      9 O2         2.6225    4.6553    3.1769 O.2       1 RES1    0.0000
     10 O3         2.8391    5.4078    1.1539 O.2       1 RES1    0.0000
     11 C3         2.9827    1.9339    2.1177 C.2       1 RES1    0.0000
     12 C4         2.9222    1.4804    3.5546 C.3       1 RES1    0.0000
     13 C5         3.1049   -0.0378    3.6305 C.3       1 RES1    0.0000
     14 H3         2.3936   -0.4785    3.1214 H         1 RES1    0.0000
     15 H4         3.0633   -0.3256    4.5664 H         1 RES1    0.0000
     16 H5         3.9760   -0.2813    3.2527 H         1 RES1    0.0000
     17 C6         1.5475    1.8387    4.1435 C.3       1 RES1    0.0000
     18 H6         1.3967    2.8031    4.0600 H         1 RES1    0.0000
     19 H7         1.5212    1.5847    5.0896 H         1 RES1    0.0000
     20 H8         0.8476    1.3553    3.6569 H         1 RES1    0.0000
     21 C7         4.0572    2.1417    4.3546 C.3       1 RES1    0.0000
     22 H9         4.9210    1.8781    3.9747 H         1 RES1    0.0000
     23 H10        4.0096    1.8514    5.2895 H         1 RES1    0.0000
     24 H11        3.9637    3.1158    4.3104 H         1 RES1    0.0000
@<TRIPOS>BOND
     1    1    2 1
     2    3    1 1
     3    4    3 2
     4    5    4 1
     5    6    5 1
     6    7    4 1
     7    8    7 1
     8    9    8 2
     9   10    8 2
    10   11    1 1
    11   12   11 1
    12   13   12 1
    13   14   13 1
    14   15   13 1
    15   16   13 1
    16   17   12 1
    17   18   17 1
    18   19   17 1
    19   20   17 1
    20   21   12 1
    21   22   21 1
    22   23   21 1
    23   24   21 1
    24    7   11 2
@<TRIPOS>SUBSTRUCTURE
     1 RES1 1

@<TRIPOS>CRYSIN
   6.4870    6.6560   11.5588  81.2270  76.7330  65.0370   2 1

