# MOL2 file generated by ConQuest
# Please check atom types

@<TRIPOS>MOLECULE
CASDOQ
    43    44     1
SMALL
NO_CHARGES
****
Generated from CSD

@<TRIPOS>ATOM
      1 N1         0.6269    8.6509    4.1530 N.3       1 RES1    0.0000
      2 N2        -0.9219    6.5003    5.7398 N.pl3     1 RES1    0.0000
      3 N3        -6.0758    5.8140    1.4712 N.pl3     1 RES1    0.0000
      4 O1        -0.5206    7.9591    3.5485 O.3       1 RES1    0.0000
      5 O2        -1.5005    9.9750    3.2544 O.2       1 RES1    0.0000
      6 O3        -0.7671    5.4440    5.1466 O.2       1 RES1    0.0000
      7 O4        -2.0011    6.9592    6.0347 O.2       1 RES1    0.0000
      8 O5        -5.8932    4.6820    1.0471 O.2       1 RES1    0.0000
      9 O6        -7.1647    6.3409    1.5213 O.2       1 RES1    0.0000
     10 C1         1.2203    7.5825    4.9876 C.3       1 RES1    0.0000
     11 H1         1.3382    6.7768    4.4412 H         1 RES1    0.0000
     12 C2         0.3086    7.2514    6.1823 C.3       1 RES1    0.0000
     13 H2         0.0325    8.0873    6.6125 H         1 RES1    0.0000
     14 C3         0.9621    6.3592    7.2191 C.3       1 RES1    0.0000
     15 H3         0.3068    6.0842    7.8639 H         1 RES1    0.0000
     16 H4         1.6634    6.8436    7.6623 H         1 RES1    0.0000
     17 H5         1.3325    5.5851    6.7872 H         1 RES1    0.0000
     18 C4         2.5708    8.0378    5.4947 C.ar      1 RES1    0.0000
     19 C5         2.7021    9.1525    6.3044 C.ar      1 RES1    0.0000
     20 H6         1.9602    9.6774    6.5020 H         1 RES1    0.0000
     21 C6         3.9470    9.4828    6.8189 C.ar      1 RES1    0.0000
     22 H7         4.0353   10.2252    7.3726 H         1 RES1    0.0000
     23 C7         5.0484    8.7256    6.5184 C.ar      1 RES1    0.0000
     24 H8         5.8782    8.9509    6.8723 H         1 RES1    0.0000
     25 C8         4.9270    7.6392    5.6999 C.ar      1 RES1    0.0000
     26 H9         5.6772    7.1333    5.4835 H         1 RES1    0.0000
     27 C9         3.6916    7.2896    5.1929 C.ar      1 RES1    0.0000
     28 H10        3.6136    6.5437    4.6428 H         1 RES1    0.0000
     29 C10        1.4834    9.0071    3.0200 C.3       1 RES1    0.0000
     30 H11        1.7334    8.2107    2.5461 H         1 RES1    0.0000
     31 H12        2.2725    9.4499    3.3421 H         1 RES1    0.0000
     32 H13        1.0051    9.5948    2.4297 H         1 RES1    0.0000
     33 C11       -1.5367    8.7805    3.2063 C.2       1 RES1    0.0000
     34 C12       -2.7006    7.9769    2.7406 C.ar      1 RES1    0.0000
     35 C13       -3.8975    8.6337    2.5090 C.ar      1 RES1    0.0000
     36 H14       -3.9505    9.5552    2.6283 H         1 RES1    0.0000
     37 C14       -5.0101    7.9314    2.1041 C.ar      1 RES1    0.0000
     38 H15       -5.8179    8.3669    1.9548 H         1 RES1    0.0000
     39 C15       -4.9018    6.5769    1.9264 C.ar      1 RES1    0.0000
     40 C16       -3.7312    5.8997    2.1350 C.ar      1 RES1    0.0000
     41 H16       -3.6853    4.9807    1.9966 H         1 RES1    0.0000
     42 C17       -2.6244    6.6005    2.5523 C.ar      1 RES1    0.0000
     43 H17       -1.8241    6.1543    2.7089 H         1 RES1    0.0000
@<TRIPOS>BOND
     1    1    4 1
     2    2    6 2
     3    3    8 2
     4    4   33 1
     5    5   33 2
     6    7    2 2
     7    9    3 2
     8   10    1 1
     9   11   10 1
    10   12    2 1
    11   13   12 1
    12   14   12 1
    13   15   14 1
    14   16   14 1
    15   17   14 1
    16   18   10 1
    17   19   18 ar
    18   20   19 1
    19   21   19 ar
    20   22   21 1
    21   23   21 ar
    22   24   23 1
    23   25   23 ar
    24   26   25 1
    25   27   18 ar
    26   28   27 1
    27   29    1 1
    28   30   29 1
    29   31   29 1
    30   32   29 1
    31   33   34 1
    32   34   35 ar
    33   35   36 1
    34   37   35 ar
    35   38   37 1
    36   39    3 1
    37   40   39 ar
    38   41   40 1
    39   42   34 ar
    40   43   42 1
    41   10   12 1
    42   25   27 ar
    43   37   39 ar
    44   40   42 ar
@<TRIPOS>SUBSTRUCTURE
     1 RES1 1

@<TRIPOS>CRYSIN
  10.4009   11.3173   15.3530  90.0000 103.4270  90.0000 231 1

