# MOL2 file generated by ConQuest
# Please check atom types

@<TRIPOS>MOLECULE
CASTEV
    52    54     1
SMALL
USER_CHARGES
****
Generated from CSD

@<TRIPOS>ATOM
      1 O1        -1.7430    6.0613    2.3256 O.2       1 RES1   -1.0000
      2 N1        -1.2788    5.0038    2.8923 N.pl3     1 RES1    1.0000
      3 C1        -1.0053    4.9307    4.1703 C.2       1 RES1    0.0000
      4 C2        -1.1931    6.0095    5.1290 C.ar      1 RES1    0.0000
      5 C3        -1.9743    7.1421    4.8446 C.ar      1 RES1    0.0000
      6 C4        -2.1394    8.1254    5.7880 C.ar      1 RES1    0.0000
      7 O2        -2.9038    9.2417    5.6182 O.3       1 RES1    0.0000
      8 C5        -3.4657    9.4876    4.3472 C.3       1 RES1    0.0000
      9 C6        -1.5360    8.0106    7.0440 C.ar      1 RES1    0.0000
     10 O3        -1.8056    9.0305    7.9031 O.3       1 RES1    0.0000
     11 C7        -1.2708    8.9492    9.2214 C.3       1 RES1    0.0000
     12 C8        -0.7739    6.9054    7.3217 C.ar      1 RES1    0.0000
     13 C9        -0.6029    5.9099    6.3786 C.ar      1 RES1    0.0000
     14 C10       -1.0722    3.8956    1.9624 C.ar      1 RES1    0.0000
     15 C11       -2.1560    3.1063    1.6381 C.ar      1 RES1    0.0000
     16 C12       -2.0252    2.1647    0.6374 C.ar      1 RES1    0.0000
     17 O4        -3.0010    1.3205    0.2203 O.3       1 RES1    0.0000
     18 C13       -4.2967    1.4760    0.7912 C.3       1 RES1    0.0000
     19 C14       -0.8079    2.0275   -0.0363 C.ar      1 RES1    0.0000
     20 O5        -0.7900    1.0839   -1.0158 O.3       1 RES1    0.0000
     21 C15        0.4489    0.8858   -1.7016 C.3       1 RES1    0.0000
     22 C16        0.2431    2.8239    0.3128 C.ar      1 RES1    0.0000
     23 C17        0.1107    3.7737    1.3183 C.ar      1 RES1    0.0000
     24 N2        -0.4874    3.6843    4.6156 N.am      1 RES1    0.0000
     25 C18       -1.2746    2.7102    5.2273 C.2       1 RES1    0.0000
     26 O6        -2.4593    2.8077    5.3495 O.2       1 RES1    0.0000
     27 C19       -0.3684    1.5999    5.6556 C.3       1 RES1    0.0000
     28 C20        1.0000    1.9808    5.1868 C.3       1 RES1    0.0000
     29 C21        0.8668    3.3379    4.5910 C.2       1 RES1    0.0000
     30 O7         1.7272    4.0510    4.1484 O.2       1 RES1    0.0000
     31 H1         1.0837    2.7274   -0.1413 H         1 RES1    0.0000
     32 H2        -0.3532    6.8221    8.1808 H         1 RES1    0.0000
     33 H3        -2.3952    7.2284    3.9862 H         1 RES1    0.0000
     34 H4         0.8513    4.3375    1.5538 H         1 RES1    0.0000
     35 H5        -2.9891    3.2099    2.1016 H         1 RES1    0.0000
     36 H6         1.3117    1.3561    4.5271 H         1 RES1    0.0000
     37 H7         1.6117    1.9991    5.9259 H         1 RES1    0.0000
     38 H8         0.2967    0.1656   -2.3187 H         1 RES1    0.0000
     39 H9         1.1604    0.6471   -1.1025 H         1 RES1    0.0000
     40 H10        0.6922    1.6771   -2.1877 H         1 RES1    0.0000
     41 H11       -0.0709    5.1410    6.5925 H         1 RES1    0.0000
     42 H12       -0.6409    0.7730    5.2523 H         1 RES1    0.0000
     43 H13       -0.3797    1.5095    6.6115 H         1 RES1    0.0000
     44 H14       -4.0950    8.7999    4.1171 H         1 RES1    0.0000
     45 H15       -2.7990    9.5526    3.6606 H         1 RES1    0.0000
     46 H16       -3.9246   10.3266    4.4289 H         1 RES1    0.0000
     47 H17       -4.8428    0.8187    0.3531 H         1 RES1    0.0000
     48 H18       -4.6012    2.3546    0.5547 H         1 RES1    0.0000
     49 H19       -4.3592    1.3602    1.7416 H         1 RES1    0.0000
     50 H20       -1.6295    9.6978    9.7036 H         1 RES1    0.0000
     51 H21       -0.3119    8.9665    9.2678 H         1 RES1    0.0000
     52 H22       -1.5956    8.1325    9.6106 H         1 RES1    0.0000
@<TRIPOS>BOND
     1    1    2 1
     2    2    3 2
     3    3    4 1
     4    4    5 ar
     5    5    6 ar
     6    6    7 1
     7    7    8 1
     8    8   44 1
     9    9    6 ar
    10   10    9 1
    11   11   10 1
    12   12    9 ar
    13   13    4 ar
    14   14    2 1
    15   15   14 ar
    16   16   15 ar
    17   17   16 1
    18   18   17 1
    19   19   16 ar
    20   20   19 1
    21   21   20 1
    22   22   19 ar
    23   23   14 ar
    24   24    3 1
    25   25   24 1
    26   26   25 2
    27   27   25 1
    28   28   27 1
    29   29   24 1
    30   30   29 2
    31   31   22 1
    32   32   12 1
    33   33    5 1
    34   34   23 1
    35   35   15 1
    36   36   28 1
    37   37   28 1
    38   38   21 1
    39   39   21 1
    40   40   21 1
    41   41   13 1
    42   42   27 1
    43   43   27 1
    44   45    8 1
    45   46    8 1
    46   47   18 1
    47   48   18 1
    48   49   18 1
    49   50   11 1
    50   51   11 1
    51   52   11 1
    52   12   13 ar
    53   22   23 ar
    54   28   29 1
@<TRIPOS>SUBSTRUCTURE
     1 RES1 1

@<TRIPOS>CRYSIN
  11.7780   10.1580   18.1190  90.0000 108.0600  90.0000 231 1

