# MOL2 file generated by ConQuest
# Please check atom types

@<TRIPOS>MOLECULE
CATJAI
    32    32     1
SMALL
NO_CHARGES
****
Generated from CSD

@<TRIPOS>ATOM
      1 C1         3.9186   -0.1029   -1.1019 C.3       1 RES1    0.0000
      2 C2         4.6940   -1.3938   -1.3809 C.3       1 RES1    0.0000
      3 C3         5.9742   -1.6229   -0.5869 C.3       1 RES1    0.0000
      4 N1         4.0299    0.3659    0.2639 N.3       1 RES1    0.0000
      5 N2         3.2737   -0.1411    1.2281 N.2       1 RES1    0.0000
      6 N3         3.7572   -2.6040   -1.2131 N.pl3     1 RES1    0.0000
      7 N4         5.0438   -1.4744   -2.8787 N.pl3     1 RES1    0.0000
      8 O1         2.6652   -1.1286    0.9376 O.2       1 RES1    0.0000
      9 O2         4.0973   -3.4982   -0.4838 O.2       1 RES1    0.0000
     10 O3         2.7272   -2.5680   -1.8462 O.2       1 RES1    0.0000
     11 O4         5.2299   -2.5860   -3.3174 O.2       1 RES1    0.0000
     12 O5         5.1796   -0.4529   -3.4899 O.2       1 RES1    0.0000
     13 H1         3.1336   -0.2546   -1.3427 H         1 RES1    0.0000
     14 H2         4.1283    0.5622   -1.7247 H         1 RES1    0.0000
     15 H3         6.7272   -2.1426   -1.1575 H         1 RES1    0.0000
     16 H4         5.6042   -2.0365    0.3010 H         1 RES1    0.0000
     17 N1D        6.6651   -0.3659   -0.2639 N.pl3     1 RES1    0.0000
     18 C3D        4.7208    1.6229    0.5869 C.3       1 RES1    0.0000
     19 C1D        6.7764    0.1029    1.1019 C.3       1 RES1    0.0000
     20 N2D        7.4213    0.1411   -1.2281 N.2       1 RES1    0.0000
     21 C2D        6.0010    1.3938    1.3809 C.3       1 RES1    0.0000
     22 H3D        3.9678    2.1426    1.1575 H         1 RES1    0.0000
     23 H4D        5.0908    2.0365   -0.3010 H         1 RES1    0.0000
     24 H1D        7.5614    0.2546    1.3427 H         1 RES1    0.0000
     25 H2D        6.5667   -0.5622    1.7247 H         1 RES1    0.0000
     26 O1D        8.0298    1.1286   -0.9376 O.2       1 RES1    0.0000
     27 N3D        6.9378    2.6040    1.2131 N.pl3     1 RES1    0.0000
     28 N4D        5.6512    1.4744    2.8787 N.pl3     1 RES1    0.0000
     29 O2D        6.5977    3.4982    0.4838 O.2       1 RES1    0.0000
     30 O3D        7.9678    2.5680    1.8462 O.2       1 RES1    0.0000
     31 O4D        5.4651    2.5860    3.3174 O.2       1 RES1    0.0000
     32 O5D        5.5154    0.4529    3.4899 O.2       1 RES1    0.0000
@<TRIPOS>BOND
     1    1    2 1
     2    2    3 1
     3    3   15 1
     4    4    1 1
     5    5    4 1
     6    6    2 1
     7    7    2 1
     8    8    5 2
     9    9    6 2
    10   10    6 2
    11   11    7 2
    12   12    7 2
    13   13    1 1
    14   14    1 1
    15   16    3 1
    16   17    3 1
    17   18    4 1
    18   19   17 1
    19   20   17 1
    20   21   18 1
    21   22   18 1
    22   23   18 1
    23   24   19 1
    24   25   19 1
    25   26   20 2
    26   27   21 1
    27   28   21 1
    28   29   27 2
    29   30   27 2
    30   31   28 2
    31   32   28 2
    32   19   21 1
@<TRIPOS>SUBSTRUCTURE
     1 RES1 1

@<TRIPOS>CRYSIN
  10.6950   10.6070   11.5750  90.0000  90.0000  90.0000  61 1

