# MOL2 file generated by ConQuest
# Please check atom types

@<TRIPOS>MOLECULE
CATJIQ01
    34    34     1
SMALL
NO_CHARGES
****
Generated from CSD

@<TRIPOS>ATOM
      1 C1         1.0704    4.9461    1.4604 C.3       1 RES1    0.0000
      2 C2         0.5447    3.4690   -0.6044 C.3       1 RES1    0.0000
      3 C3         1.3291    3.6423    0.6789 C.3       1 RES1    0.0000
      4 N1        -1.2425    4.9787    2.1223 N.pl3     1 RES1    0.0000
      5 N2        -0.2812    5.4507    1.2766 N.3       1 RES1    0.0000
      6 N3         1.0941    2.4364    1.6081 N.pl3     1 RES1    0.0000
      7 N4         2.8362    3.5190    0.4071 N.pl3     1 RES1    0.0000
      8 O1        -2.3058    5.5598    2.1347 O.2       1 RES1    0.0000
      9 O2        -0.9624    3.9828    2.7719 O.2       1 RES1    0.0000
     10 O3         1.6899    2.4455    2.6557 O.2       1 RES1    0.0000
     11 O4         0.3323    1.5760    1.2360 O.2       1 RES1    0.0000
     12 O5         3.5257    4.4976    0.4759 O.2       1 RES1    0.0000
     13 O6         3.2053    2.4007    0.0981 O.2       1 RES1    0.0000
     14 H1         1.6910    5.5629    1.1491 H         1 RES1    0.0000
     15 H2         1.2247    4.7718    2.4516 H         1 RES1    0.0000
     16 H3         1.0680    2.9410   -1.1942 H         1 RES1    0.0000
     17 H4        -0.2907    3.1204   -0.3451 H         1 RES1    0.0000
     18 N2D        0.2812    4.7433   -1.2766 N.pl3     1 RES1    0.0000
     19 C2D       -0.5447    6.7250    0.6044 C.3       1 RES1    0.0000
     20 C1D       -1.0704    5.2479   -1.4604 C.3       1 RES1    0.0000
     21 N1D        1.2425    5.2153   -2.1223 N.pl3     1 RES1    0.0000
     22 C3D       -1.3291    6.5517   -0.6789 C.3       1 RES1    0.0000
     23 H3D       -1.0680    7.2530    1.1942 H         1 RES1    0.0000
     24 H4D        0.2907    7.0736    0.3451 H         1 RES1    0.0000
     25 H1D       -1.6910    4.6311   -1.1491 H         1 RES1    0.0000
     26 H2D       -1.2247    5.4222   -2.4516 H         1 RES1    0.0000
     27 O1D        2.3058    4.6342   -2.1347 O.2       1 RES1    0.0000
     28 O2D        0.9624    6.2112   -2.7719 O.2       1 RES1    0.0000
     29 N3D       -1.0941    7.7576   -1.6081 N.pl3     1 RES1    0.0000
     30 N4D       -2.8362    6.6750   -0.4071 N.pl3     1 RES1    0.0000
     31 O3D       -1.6899    7.7485   -2.6557 O.2       1 RES1    0.0000
     32 O4D       -0.3323    8.6180   -1.2360 O.2       1 RES1    0.0000
     33 O5D       -3.5257    5.6964   -0.4759 O.2       1 RES1    0.0000
     34 O6D       -3.2053    7.7933   -0.0981 O.2       1 RES1    0.0000
@<TRIPOS>BOND
     1    1    3 1
     2    2    3 1
     3    3    6 1
     4    4    5 1
     5    5    1 1
     6    6   10 2
     7    7    3 1
     8    8    4 2
     9    9    4 2
    10   11    6 2
    11   12    7 2
    12   13    7 2
    13   14    1 1
    14   15    1 1
    15   16    2 1
    16   17    2 1
    17   18    2 1
    18   19    5 1
    19   20   18 1
    20   21   18 1
    21   22   19 1
    22   23   19 1
    23   24   19 1
    24   25   20 1
    25   26   20 1
    26   27   21 2
    27   28   21 2
    28   29   22 1
    29   30   22 1
    30   31   29 2
    31   32   29 2
    32   33   30 2
    33   34   30 2
    34   20   22 1
@<TRIPOS>SUBSTRUCTURE
     1 RES1 1

@<TRIPOS>CRYSIN
  11.8670   10.1940   11.2770  90.0000  90.0000  90.0000  61 1

