# MOL2 file generated by ConQuest
# Please check atom types

@<TRIPOS>MOLECULE
CATJUC
    35    36     1
SMALL
NO_CHARGES
****
Generated from CSD

@<TRIPOS>ATOM
      1 C1         7.9732    9.2120    8.3568 C.3       1 RES1    0.0000
      2 C2         7.4682    8.2224    7.3065 C.3       1 RES1    0.0000
      3 C3         7.4598    8.7229    5.8673 C.3       1 RES1    0.0000
      4 C4         8.8284    9.0201    5.3303 C.2       1 RES1    0.0000
      5 C5         9.0942    9.5907    3.9622 C.3       1 RES1    0.0000
      6 C6        10.6053    9.3102    3.8536 C.3       1 RES1    0.0000
      7 O1        10.9848    9.1682    5.2553 O.3       1 RES1    0.0000
      8 N1         9.8680    8.8009    6.0371 N.2       1 RES1    0.0000
      9 O2         7.1448    8.8956    9.4880 O.3       1 RES1    0.0000
     10 C7         5.8624    8.5722    8.9668 C.3       1 RES1    0.0000
     11 C8         5.2255    7.5546    9.8651 C.3       1 RES1    0.0000
     12 C9         5.0220    9.8264    8.8069 C.3       1 RES1    0.0000
     13 O3         6.1101    7.9823    7.6895 O.3       1 RES1    0.0000
     14 O4         6.7105    9.9176    5.7272 O.3       1 RES1    0.0000
     15 C10        8.2202    9.0280    2.8527 C.3       1 RES1    0.0000
     16 C11       10.9771    8.0261    3.1291 C.3       1 RES1    0.0000
     17 H1         8.9441    9.1068    8.6075 H         1 RES1    0.0000
     18 H2         7.8708   10.1849    7.9955 H         1 RES1    0.0000
     19 H3         7.8568    7.3626    7.2651 H         1 RES1    0.0000
     20 H4         7.0571    7.9060    5.2711 H         1 RES1    0.0000
     21 H5         8.9371   10.4566    4.0274 H         1 RES1    0.0000
     22 H6        11.1258   10.1762    3.5338 H         1 RES1    0.0000
     23 H7         5.1350    7.7833   10.9173 H         1 RES1    0.0000
     24 H8         5.8295    6.9068    9.8907 H         1 RES1    0.0000
     25 H9         4.3633    7.4064    9.4564 H         1 RES1    0.0000
     26 H10        4.2160    9.5451    8.3706 H         1 RES1    0.0000
     27 H11        5.5419   10.4654    8.3904 H         1 RES1    0.0000
     28 H12        4.7281   10.1236    9.7525 H         1 RES1    0.0000
     29 H13        6.0820    9.7817    5.7054 H         1 RES1    0.0000
     30 H14        7.4289    9.3347    2.9021 H         1 RES1    0.0000
     31 H15        8.2567    7.9586    2.8428 H         1 RES1    0.0000
     32 H16        8.5373    9.5363    2.0137 H         1 RES1    0.0000
     33 H17       11.8904    7.8534    3.1587 H         1 RES1    0.0000
     34 H18       10.7189    7.9762    2.1519 H         1 RES1    0.0000
     35 H19       10.5506    7.2224    3.5338 H         1 RES1    0.0000
@<TRIPOS>BOND
     1    1    2 1
     2    2    3 1
     3    3    4 1
     4    4    5 1
     5    5    6 1
     6    6    7 1
     7    7    8 1
     8    8    4 2
     9    9    1 1
    10   10    9 1
    11   11   10 1
    12   12   10 1
    13   13    2 1
    14   14    3 1
    15   15    5 1
    16   16    6 1
    17   17    1 1
    18   18    1 1
    19   19    2 1
    20   20    3 1
    21   21    5 1
    22   22    6 1
    23   23   11 1
    24   24   11 1
    25   25   11 1
    26   26   12 1
    27   27   12 1
    28   28   12 1
    29   29   14 1
    30   30   15 1
    31   31   15 1
    32   32   15 1
    33   33   16 1
    34   34   16 1
    35   35   16 1
    36   10   13 1
@<TRIPOS>SUBSTRUCTURE
     1 RES1 1

@<TRIPOS>CRYSIN
   7.0150    8.7650   19.7420  90.0000  90.0000  90.0000  19 1

