# MOL2 file generated by ConQuest
# Please check atom types

@<TRIPOS>MOLECULE
CATNOR
    25    29     1
SMALL
NO_CHARGES
****
Generated from CSD

@<TRIPOS>ATOM
      1 C1        -1.4611   -3.9402   -5.8467 C.2       1 RES1    0.0000
      2 C2        -0.9500   -3.3221   -6.9832 C.2       1 RES1    0.0000
      3 C3         0.0267   -3.9053   -7.7707 C.2       1 RES1    0.0000
      4 C4         0.4733   -5.1726   -7.3701 C.2       1 RES1    0.0000
      5 C5         4.2922   -7.5476   -5.6213 C.2       1 RES1    0.0000
      6 C6         3.9855   -8.8922   -4.9628 C.2       1 RES1    0.0000
      7 C7         2.6311   -8.1233   -7.4991 C.3       1 RES1    0.0000
      8 C8         4.0266   -7.5564   -7.1420 C.2       1 RES1    0.0000
      9 C9         2.8511  -11.1563   -5.0198 C.2       1 RES1    0.0000
     10 C10        1.5567   -7.1190   -7.1665 C.2       1 RES1    0.0000
     11 C11        3.0633   -9.8068   -5.6919 C.2       1 RES1    0.0000
     12 C12        2.4355   -9.4529   -6.8121 C.2       1 RES1    0.0000
     13 C13        2.5200   -8.4710   -8.9995 C.2       1 RES1    0.0000
     14 C14        3.6422   -9.1289  -10.9357 C.2       1 RES1    0.0000
     15 C15        3.5477   -6.5059   -4.7930 C.2       1 RES1    0.0000
     16 C16        1.3822   -7.2548   -3.6701 C.2       1 RES1    0.0000
     17 C17        0.5978   -7.8604   -4.8406 C.2       1 RES1    0.0000
     18 C18        0.6889   -7.0467   -6.0857 C.2       1 RES1    0.0000
     19 C19        0.0089   -5.7869   -6.2160 C.2       1 RES1    0.0000
     20 C20       -0.9933   -5.1638   -5.4502 C.2       1 RES1    0.0000
     21 N1         1.4200   -5.9937   -7.9377 N.2       1 RES1    0.0000
     22 N2         2.8622   -7.2162   -3.6810 N.2       1 RES1    0.0000
     23 O1         1.4711   -8.6330   -9.5603 O.2       1 RES1    0.0000
     24 O2         3.6977   -8.6405   -9.5956 O.3       1 RES1    0.0000
     25 O3         3.4200   -8.5495   -3.6498 O.3       1 RES1    0.0000
@<TRIPOS>BOND
     1    1    2 1
     2    2    3 1
     3    3    4 1
     4    4   19 1
     5    5    6 1
     6    6   11 1
     7    7    8 1
     8    8    5 1
     9    9   11 1
    10   10    7 1
    11   11   12 1
    12   12    7 1
    13   13    7 1
    14   14   24 1
    15   15    5 1
    16   16   17 1
    17   17   18 1
    18   18   10 1
    19   19   18 1
    20   20    1 1
    21   21    4 1
    22   22   15 1
    23   23   13 1
    24   24   13 1
    25   25    6 1
    26   10   21 1
    27   16   22 1
    28   19   20 1
    29   22   25 1
@<TRIPOS>SUBSTRUCTURE
     1 RES1 1

@<TRIPOS>CRYSIN
  11.1110   12.4610   13.5780  90.0000  90.0000  90.0000  19 1

