# MOL2 file generated by ConQuest
# Please check atom types

@<TRIPOS>MOLECULE
CAVDAF
    35    37     1
SMALL
NO_CHARGES
****
Generated from CSD

@<TRIPOS>ATOM
      1 N1         8.1978    9.5389    2.1002 N.am      1 RES1    0.0000
      2 N2         7.5930    7.6813    3.2770 N.3       1 RES1    0.0000
      3 N3         4.6696    6.8918    2.4924 N.pl3     1 RES1    0.0000
      4 O1        10.4537    9.0473    1.9341 O.2       1 RES1    0.0000
      5 O2         8.9545    7.5672    2.7403 O.3       1 RES1    0.0000
      6 O3         4.1332    5.8209    2.6402 O.2       1 RES1    0.0000
      7 O4         4.6364    7.7557    3.3396 O.2       1 RES1    0.0000
      8 C1         9.3185    8.7869    2.2207 C.2       1 RES1    0.0000
      9 C2         7.0290    8.7326    2.4080 C.3       1 RES1    0.0000
     10 C3         8.1766   10.9287    1.7666 C.ar      1 RES1    0.0000
     11 C4         7.6471   11.8297    2.6570 C.ar      1 RES1    0.0000
     12 C5         7.6023   13.1735    2.3323 C.ar      1 RES1    0.0000
     13 C6         8.0879   13.6019    1.1256 C.ar      1 RES1    0.0000
     14 C7         8.6252   12.7036    0.2452 C.ar      1 RES1    0.0000
     15 C8         8.6800   11.3570    0.5543 C.ar      1 RES1    0.0000
     16 C9         6.4254    8.0738    1.1714 C.ar      1 RES1    0.0000
     17 C10        6.9756    8.2727   -0.0816 C.ar      1 RES1    0.0000
     18 C11        6.5161    7.6030   -1.2041 C.ar      1 RES1    0.0000
     19 C12        5.5077    6.6866   -1.0946 C.ar      1 RES1    0.0000
     20 C13        4.9274    6.4571    0.1319 C.ar      1 RES1    0.0000
     21 C14        5.3716    7.1566    1.2335 C.ar      1 RES1    0.0000
     22 C15        7.7581    8.1470    4.6581 C.3       1 RES1    0.0000
     23 H1         6.3644    9.2722    2.8689 H         1 RES1    0.0000
     24 H2         7.3842   11.4953    3.4588 H         1 RES1    0.0000
     25 H3         7.2415   13.7908    2.9819 H         1 RES1    0.0000
     26 H4         8.0645   14.5589    0.9135 H         1 RES1    0.0000
     27 H5         8.9965   12.9774   -0.5651 H         1 RES1    0.0000
     28 H6         9.0160   10.7181   -0.0650 H         1 RES1    0.0000
     29 H7         7.7054    8.8926   -0.1765 H         1 RES1    0.0000
     30 H8         6.9247    7.7810   -2.0901 H         1 RES1    0.0000
     31 H9         5.1832    6.1995   -1.8749 H         1 RES1    0.0000
     32 H10        4.2306    5.7838    0.2694 H         1 RES1    0.0000
     33 H11        6.8000    8.2961    5.0473 H         1 RES1    0.0000
     34 H12        8.2041    7.3924    5.1325 H         1 RES1    0.0000
     35 H13        8.2461    9.0282    4.7036 H         1 RES1    0.0000
@<TRIPOS>BOND
     1    1    8 1
     2    2    5 1
     3    3    6 2
     4    4    8 2
     5    5    8 1
     6    7    3 2
     7    9    1 1
     8   10    1 1
     9   11   10 ar
    10   12   11 ar
    11   13   12 ar
    12   14   13 ar
    13   15   10 ar
    14   16    9 1
    15   17   16 ar
    16   18   17 ar
    17   19   18 ar
    18   20   19 ar
    19   21    3 1
    20   22    2 1
    21   23    9 1
    22   24   11 1
    23   25   12 1
    24   26   13 1
    25   27   14 1
    26   28   15 1
    27   29   17 1
    28   30   18 1
    29   31   19 1
    30   32   20 1
    31   33   22 1
    32   34   22 1
    33   35   22 1
    34    2    9 1
    35   14   15 ar
    36   16   21 ar
    37   20   21 ar
@<TRIPOS>SUBSTRUCTURE
     1 RES1 1

@<TRIPOS>CRYSIN
  10.0313    9.0372   15.5964  90.0000  96.9260  90.0000  14 1

