# MOL2 file generated by ConQuest
# Please check atom types

@<TRIPOS>MOLECULE
CAVDUB
    41    42     1
SMALL
NO_CHARGES
****
Generated from CSD

@<TRIPOS>ATOM
      1 O1         3.7612    4.4743    6.2523 O.2       1 RES1    0.0000
      2 O2        17.1057    1.4144    6.0281 O.3       1 RES1    0.0000
      3 C1        13.4927    4.2365    1.1622 C.3       1 RES1    0.0000
      4 H1        14.2824    4.5332    1.6198 H         1 RES1    0.0000
      5 H2        13.2090    4.9131    0.5428 H         1 RES1    0.0000
      6 H3        13.6840    3.4259    0.6863 H         1 RES1    0.0000
      7 O3        10.8597    4.7445    0.5656 O.2       1 RES1    0.0000
      8 O4         2.7281    3.9287    4.4444 O.2       1 RES1    0.0000
      9 N1         3.7411    4.2269    5.0565 N.pl3     1 RES1    0.0000
     10 C2         5.0066    4.2873    4.3179 C.ar      1 RES1    0.0000
     11 C3         6.1609    4.5936    5.0021 C.ar      1 RES1    0.0000
     12 H4         6.1334    4.7791    5.9130 H         1 RES1    0.0000
     13 C4         7.3565    4.6201    4.3183 C.ar      1 RES1    0.0000
     14 H5         8.1424    4.8182    4.7742 H         1 RES1    0.0000
     15 C5         7.3993    4.3528    2.9495 C.ar      1 RES1    0.0000
     16 C6         8.6486    4.3528    2.1857 C.2       1 RES1    0.0000
     17 H6         8.5635    4.3329    1.2600 H         1 RES1    0.0000
     18 C7         9.8828    4.3764    2.6587 C.2       1 RES1    0.0000
     19 H7        10.0255    4.3845    3.5772 H         1 RES1    0.0000
     20 C8        11.0465    4.3911    1.7274 C.2       1 RES1    0.0000
     21 C9        12.3970    3.9840    2.1655 C.2       1 RES1    0.0000
     22 C10       12.5625    3.3964    3.3636 C.2       1 RES1    0.0000
     23 H8        11.7855    3.3243    3.8678 H         1 RES1    0.0000
     24 C11       13.7554    2.8523    4.0083 C.ar      1 RES1    0.0000
     25 C12       14.9498    2.5180    3.3591 C.ar      1 RES1    0.0000
     26 H9        15.0108    2.6101    2.4359 H         1 RES1    0.0000
     27 C13       16.0343    2.0564    4.0655 C.ar      1 RES1    0.0000
     28 H10       16.8193    1.8466    3.6119 H         1 RES1    0.0000
     29 C14       15.9805    1.8981    5.4388 C.ar      1 RES1    0.0000
     30 C15       17.1104    1.2421    7.4372 C.3       1 RES1    0.0000
     31 H11       16.9308    2.0836    7.8630 H         1 RES1    0.0000
     32 H12       17.9701    0.9189    7.7171 H         1 RES1    0.0000
     33 H13       16.4329    0.6074    7.6849 H         1 RES1    0.0000
     34 C16        5.0024    4.0340    2.9689 C.ar      1 RES1    0.0000
     35 H14        4.2100    3.8411    2.5225 H         1 RES1    0.0000
     36 C17        6.2077    4.0730    2.2894 C.ar      1 RES1    0.0000
     37 H15        6.2204    3.9089    1.3738 H         1 RES1    0.0000
     38 C18       13.7221    2.6638    5.3911 C.ar      1 RES1    0.0000
     39 H16       12.9354    2.8545    5.8487 H         1 RES1    0.0000
     40 C19       14.8081    2.2066    6.1060 C.ar      1 RES1    0.0000
     41 H17       14.7535    2.1065    7.0283 H         1 RES1    0.0000
@<TRIPOS>BOND
     1    1    9 2
     2    2   29 1
     3    3    4 1
     4    5    3 1
     5    6    3 1
     6    7   20 2
     7    8    9 2
     8    9   10 1
     9   10   11 ar
    10   11   12 1
    11   13   11 ar
    12   14   13 1
    13   15   13 ar
    14   16   15 1
    15   17   16 1
    16   18   16 2
    17   19   18 1
    18   20   18 1
    19   21    3 1
    20   22   21 2
    21   23   22 1
    22   24   22 1
    23   25   24 ar
    24   26   25 1
    25   27   25 ar
    26   28   27 1
    27   29   27 ar
    28   30    2 1
    29   31   30 1
    30   32   30 1
    31   33   30 1
    32   34   10 ar
    33   35   34 1
    34   36   15 ar
    35   37   36 1
    36   38   24 ar
    37   39   38 1
    38   40   29 ar
    39   41   40 1
    40   20   21 1
    41   34   36 ar
    42   38   40 ar
@<TRIPOS>SUBSTRUCTURE
     1 RES1 1

@<TRIPOS>CRYSIN
  17.8276    7.3627   12.9740  90.0000 107.6230  90.0000  14 1

