# MOL2 file generated by ConQuest
# Please check atom types

@<TRIPOS>MOLECULE
CAVPUK
    38    40     1
SMALL
USER_CHARGES
****
Generated from CSD

@<TRIPOS>ATOM
      1 N1         6.8900   -0.5986   12.6508 N.pl3     1 RES1    0.0000
      2 N2         6.1981    3.5377   15.0052 N.pl3     1 RES1    0.0000
      3 N3         6.8843    3.7966   10.2192 N.pl3     1 RES1    0.0000
      4 N4        10.6603    1.5199    9.3108 N.pl3     1 RES1    1.0000
      5 O1         7.1850   -1.2398   11.6391 O.2       1 RES1    0.0000
      6 O2         6.6640   -1.1561   13.7346 O.2       1 RES1    0.0000
      7 O3         6.1658    2.8633   16.0415 O.2       1 RES1    0.0000
      8 O4         6.0516    4.7729   15.0196 O.2       1 RES1    0.0000
      9 O5         6.5614    4.9911   10.2856 O.2       1 RES1    0.0000
     10 O6         7.2955    3.2845    9.1680 O.2       1 RES1    0.0000
     11 O7         8.4140    1.2886   10.8266 O.3       1 RES1    0.0000
     12 O8         6.2237    0.9384   10.2240 O.3       1 RES1    0.0000
     13 C1         7.0497    1.5006   11.2397 C.3       1 RES1    0.0000
     14 C2         6.8038    0.8412   12.5752 C.2       1 RES1    0.0000
     15 C3         6.5476    1.4889   13.7403 C.2       1 RES1    0.0000
     16 H1         6.4533    1.0129   14.5719 H         1 RES1    0.0000
     17 C4         6.4287    2.8825   13.7624 C.2       1 RES1   -1.0000
     18 C5         6.5136    3.6144   12.5771 C.2       1 RES1    0.0000
     19 H2         6.3727    4.5980   12.5882 H         1 RES1    0.0000
     20 C6         6.7883    2.9838   11.3975 C.2       1 RES1    0.0000
     21 C7         8.4684    0.4238    9.6869 C.3       1 RES1    0.0000
     22 H3         8.8264   -0.4843    9.9693 H         1 RES1    0.0000
     23 C8         7.0137    0.3488    9.1877 C.3       1 RES1    0.0000
     24 H4         6.8748    0.8759    8.3953 H         1 RES1    0.0000
     25 H5         6.7074   -0.5645    9.0862 H         1 RES1    0.0000
     26 C9         9.4251    1.0147    8.6569 C.3       1 RES1    0.0000
     27 H6         9.6905    0.3861    7.9999 H         1 RES1    0.0000
     28 H7         9.0349    1.7559    8.2190 H         1 RES1    0.0000
     29 C10       10.7477    2.8331    9.6055 C.ar      1 RES1    0.0000
     30 H8        10.0130    3.3361    9.3562 H         1 RES1    0.0000
     31 C11       11.8630    3.3353   10.2308 C.ar      1 RES1    0.0000
     32 H9        11.9155    4.2770   10.3933 H         1 RES1    0.0000
     33 C12       12.8933    2.4830   10.5836 C.ar      1 RES1    0.0000
     34 H10       13.6042    2.8227   11.0064 H         1 RES1    0.0000
     35 C13       12.7713    1.1281   10.3058 C.ar      1 RES1    0.0000
     36 H11       13.4421    0.4594   10.6014 H         1 RES1    0.0000
     37 C14       11.6497    0.6660    9.6573 C.ar      1 RES1    0.0000
     38 H12       11.5091   -0.2588    9.4197 H         1 RES1    0.0000
@<TRIPOS>BOND
     1    1    5 2
     2    2    7 2
     3    3    9 2
     4    4   26 1
     5    6    1 2
     6    8    2 2
     7   10    3 2
     8   11   13 1
     9   12   13 1
    10   13   14 1
    11   14    1 1
    12   15   14 un
    13   16   15 1
    14   17    2 1
    15   18   17 un
    16   19   18 1
    17   20    3 1
    18   21   11 1
    19   22   21 1
    20   23   12 1
    21   24   23 1
    22   25   23 1
    23   26   21 1
    24   27   26 1
    25   28   26 1
    26   29    4 ar
    27   30   29 1
    28   31   29 ar
    29   32   31 1
    30   33   31 ar
    31   34   33 1
    32   35   33 ar
    33   36   35 1
    34   37    4 ar
    35   38   37 1
    36   13   20 1
    37   15   17 un
    38   18   20 un
    39   21   23 1
    40   35   37 ar
@<TRIPOS>SUBSTRUCTURE
     1 RES1 1

@<TRIPOS>CRYSIN
  13.3360   13.8370   16.0590  90.0000  98.5100  90.0000  15 1

