# MOL2 file generated by ConQuest
# Please check atom types

@<TRIPOS>MOLECULE
CAVQUM
    14    13     1
SMALL
NO_CHARGES
****
Generated from CSD

@<TRIPOS>ATOM
      1 O1         1.5809    1.8095    5.3989 O.2       1 RES1    0.0000
      2 O2         1.7688    2.9263    7.8217 O.3       1 RES1    0.0000
      3 C1         1.0720    2.9301    5.5895 C.2       1 RES1    0.0000
      4 C2         0.3956    3.6961    4.5324 C.2       1 RES1    0.0000
      5 C3         0.1351    3.1715    3.3578 C.2       1 RES1    0.0000
      6 C4        -0.5476    3.8607    2.2281 C.3       1 RES1    0.0000
      7 N1         1.0707    3.5176    6.7724 N.am      1 RES1    0.0000
      8 H1         0.9011    4.3701    6.8876 H         1 RES1    0.0000
      9 H2         1.1536    2.7927    8.4591 H         1 RES1    0.0000
     10 H3         0.1390    4.5425    4.7475 H         1 RES1    0.0000
     11 H4         0.4065    2.2325    3.2354 H         1 RES1    0.0000
     12 H5        -0.7828    4.8011    2.5377 H         1 RES1    0.0000
     13 H6        -1.3851    3.3875    1.9883 H         1 RES1    0.0000
     14 H7        -0.0005    3.8702    1.4651 H         1 RES1    0.0000
@<TRIPOS>BOND
     1    1    3 2
     2    2    7 1
     3    3    4 1
     4    4    5 2
     5    5    6 1
     6    6   12 1
     7    7    3 1
     8    8    7 1
     9    9    2 1
    10   10    4 1
    11   11    5 1
    12   13    6 1
    13   14    6 1
@<TRIPOS>SUBSTRUCTURE
     1 RES1 1

@<TRIPOS>CRYSIN
   7.1310    8.6195    9.2993  90.0000 110.3180  90.0000  14 1

