# MOL2 file generated by ConQuest
# Please check atom types

@<TRIPOS>MOLECULE
CAVROG
    33    34     1
SMALL
NO_CHARGES
****
Generated from CSD

@<TRIPOS>ATOM
      1 C1        -1.5295    2.8539    1.0204 C.3       1 RES1    0.0000
      2 C2        -0.6754    2.0333    1.8908 C.2       1 RES1    0.0000
      3 C3        -1.3890    1.3710    1.0352 C.2       1 RES1    0.0000
      4 C4        -0.9365    3.6553   -0.0804 C.3       1 RES1    0.0000
      5 C5         0.3959    2.1219    2.9011 C.3       1 RES1    0.0000
      6 C6        -1.8058    0.1182    0.3175 C.3       1 RES1    0.0000
      7 C7        -2.8336    3.5204    1.6349 C.3       1 RES1    0.0000
      8 C8        -3.8680    3.5314    0.5729 C.1       1 RES1    0.0000
      9 N1        -4.6316    3.5104   -0.2526 N.1       1 RES1    0.0000
     10 C9        -3.3696    2.6724    2.6795 C.1       1 RES1    0.0000
     11 N2        -3.7588    2.0087    3.4869 N.1       1 RES1    0.0000
     12 C10       -2.5486    4.9252    2.2291 C.ar      1 RES1    0.0000
     13 C11       -2.8378    6.0697    1.5247 C.ar      1 RES1    0.0000
     14 C12       -2.5152    7.3079    2.0649 C.ar      1 RES1    0.0000
     15 C13       -1.9327    7.4155    3.2896 C.ar      1 RES1    0.0000
     16 C14       -1.6448    6.2944    4.0124 C.ar      1 RES1    0.0000
     17 C15       -1.9491    5.0564    3.4596 C.ar      1 RES1    0.0000
     18 N3        -1.6159    8.7404    3.8881 N.pl3     1 RES1    0.0000
     19 O1        -1.9022    9.7138    3.2626 O.2       1 RES1    0.0000
     20 O2        -1.1116    8.8098    4.9767 O.2       1 RES1    0.0000
     21 H1        -0.0974    3.2007   -0.4660 H         1 RES1    0.0000
     22 H2        -0.7261    4.5420    0.2872 H         1 RES1    0.0000
     23 H3        -1.5210    3.7043   -0.8234 H         1 RES1    0.0000
     24 H4         0.7727    1.3101    2.9936 H         1 RES1    0.0000
     25 H5         1.0630    2.8137    2.6489 H         1 RES1    0.0000
     26 H6         0.1410    2.5316    3.7021 H         1 RES1    0.0000
     27 H7        -1.7149    0.1322   -0.6255 H         1 RES1    0.0000
     28 H8        -2.7032   -0.0811    0.5489 H         1 RES1    0.0000
     29 H9        -1.2988   -0.6899    0.7021 H         1 RES1    0.0000
     30 H10       -3.2732    5.9792    0.6574 H         1 RES1    0.0000
     31 H11       -2.7349    8.1059    1.6149 H         1 RES1    0.0000
     32 H12       -1.2795    6.4147    4.8766 H         1 RES1    0.0000
     33 H13       -1.7680    4.2475    3.9511 H         1 RES1    0.0000
@<TRIPOS>BOND
     1    1    2 1
     2    2    3 2
     3    3    1 1
     4    4    1 1
     5    5    2 1
     6    6    3 1
     7    7    1 1
     8    8    7 1
     9    9    8 3
    10   10    7 1
    11   11   10 3
    12   12    7 1
    13   13   12 ar
    14   14   13 ar
    15   15   14 ar
    16   16   15 ar
    17   17   12 ar
    18   18   15 1
    19   19   18 2
    20   20   18 2
    21   21    4 1
    22   22    4 1
    23   23    4 1
    24   24    5 1
    25   25    5 1
    26   26    5 1
    27   27    6 1
    28   28    6 1
    29   29    6 1
    30   30   13 1
    31   31   14 1
    32   32   16 1
    33   33   17 1
    34   16   17 ar
@<TRIPOS>SUBSTRUCTURE
     1 RES1 1

@<TRIPOS>CRYSIN
   7.6840   15.1150    7.2480  77.8800 117.8500 106.7300   2 1

