# MOL2 file generated by ConQuest
# Please check atom types

@<TRIPOS>MOLECULE
CAWDUB
    58    62     1
SMALL
NO_CHARGES
****
Generated from CSD

@<TRIPOS>ATOM
      1 O1        11.1933    7.0606    4.9325 O.3       1 RES1    0.0000
      2 O2         9.6051    2.8682    9.3944 O.3       1 RES1    0.0000
      3 O3         9.4755    4.6345   10.7639 O.2       1 RES1    0.0000
      4 O4         6.3155   12.3327    5.0280 O.2       1 RES1    0.0000
      5 O5         7.9184   12.9514    3.7104 O.2       1 RES1    0.0000
      6 N1         7.4209   12.1738    4.5111 N.pl3     1 RES1    0.0000
      7 C1        13.0110    4.7884    8.9895 C.ar      1 RES1    0.0000
      8 H1        12.7569    5.6824    9.0188 H         1 RES1    0.0000
      9 C2        14.0758    4.3626    9.7490 C.ar      1 RES1    0.0000
     10 H2        14.5269    4.9644   10.2963 H         1 RES1    0.0000
     11 C3        14.4760    3.0456    9.7002 C.ar      1 RES1    0.0000
     12 H3        15.1859    2.7514   10.2252 H         1 RES1    0.0000
     13 C4        13.8289    2.1850    8.8825 C.ar      1 RES1    0.0000
     14 H4        14.1151    1.3022    8.8229 H         1 RES1    0.0000
     15 C5        12.7396    2.6052    8.1301 C.ar      1 RES1    0.0000
     16 H5        12.2935    1.9990    7.5833 H         1 RES1    0.0000
     17 C6        12.3173    3.9136    8.1896 C.ar      1 RES1    0.0000
     18 C7        11.0508    4.3526    7.4789 C.3       1 RES1    0.0000
     19 H6        10.6541    3.5776    7.0288 H         1 RES1    0.0000
     20 C8        10.0335    4.9278    8.4597 C.2       1 RES1    0.0000
     21 C9         9.6067    6.1727    8.1399 C.2       1 RES1    0.0000
     22 C10       10.2443    6.5345    6.8727 C.2       1 RES1    0.0000
     23 C11       11.1407    5.4959    6.4949 C.2       1 RES1    0.0000
     24 C12       11.7019    5.8343    5.3210 C.2       1 RES1    0.0000
     25 C13       10.2723    7.4736    5.8803 C.2       1 RES1    0.0000
     26 C14        9.5602    8.6935    5.5551 C.ar      1 RES1    0.0000
     27 C15        8.3539    9.0017    6.1836 C.ar      1 RES1    0.0000
     28 H7         8.0091    8.4280    6.8294 H         1 RES1    0.0000
     29 C16        7.6691   10.1506    5.8541 C.ar      1 RES1    0.0000
     30 H8         6.8762   10.3670    6.2887 H         1 RES1    0.0000
     31 C17        8.1710   10.9720    4.8778 C.ar      1 RES1    0.0000
     32 C18        9.3470   10.6986    4.2320 C.ar      1 RES1    0.0000
     33 H9         9.6681   11.2693    3.5722 H         1 RES1    0.0000
     34 C19       10.0474    9.5598    4.5787 C.ar      1 RES1    0.0000
     35 H10       10.8530    9.3694    4.1554 H         1 RES1    0.0000
     36 C20        8.7004    7.0375    8.9257 C.ar      1 RES1    0.0000
     37 C21        7.4126    6.6538    9.2358 C.ar      1 RES1    0.0000
     38 H11        7.0885    5.8356    8.9341 H         1 RES1    0.0000
     39 C22        6.6041    7.4741    9.9892 C.ar      1 RES1    0.0000
     40 H12        5.7340    7.2043   10.1760 H         1 RES1    0.0000
     41 C23        7.0470    8.6837   10.4748 C.ar      1 RES1    0.0000
     42 C24        8.3202    9.0726   10.1403 C.ar      1 RES1    0.0000
     43 H13        8.6378    9.8933   10.4395 H         1 RES1    0.0000
     44 C25        9.1352    8.2745    9.3719 C.ar      1 RES1    0.0000
     45 H14        9.9891    8.5691    9.1494 H         1 RES1    0.0000
     46 C26        6.1846    9.5408   11.3755 C.3       1 RES1    0.0000
     47 H15        6.6644   10.3378   11.6127 H         1 RES1    0.0000
     48 H16        5.9660    9.0496   12.1706 H         1 RES1    0.0000
     49 H17        5.3774    9.7788   10.9138 H         1 RES1    0.0000
     50 C27        9.6666    4.1728    9.6746 C.2       1 RES1    0.0000
     51 C28        9.3203    1.9744   10.4875 C.3       1 RES1    0.0000
     52 H18        9.3008    1.0704   10.1645 H         1 RES1    0.0000
     53 H19        8.4672    2.1965   10.8691 H         1 RES1    0.0000
     54 H20       10.0020    2.0599   11.1578 H         1 RES1    0.0000
     55 C29       12.6713    5.2177    4.3965 C.3       1 RES1    0.0000
     56 H21       12.9610    4.3744    4.7523 H         1 RES1    0.0000
     57 H22       13.4292    5.7988    4.2929 H         1 RES1    0.0000
     58 H23       12.2555    5.0802    3.5425 H         1 RES1    0.0000
@<TRIPOS>BOND
     1    1   24 1
     2    2   50 1
     3    3   50 2
     4    4    6 2
     5    5    6 2
     6    6   31 1
     7    7    8 1
     8    9    7 ar
     9   10    9 1
    10   11    9 ar
    11   12   11 1
    12   13   11 ar
    13   14   13 1
    14   15   13 ar
    15   16   15 1
    16   17    7 ar
    17   18   17 1
    18   19   18 1
    19   20   18 1
    20   21   20 2
    21   22   21 1
    22   23   18 1
    23   24   23 2
    24   25    1 1
    25   26   25 1
    26   27   26 ar
    27   28   27 1
    28   29   27 ar
    29   30   29 1
    30   31   29 ar
    31   32   31 ar
    32   33   32 1
    33   34   26 ar
    34   35   34 1
    35   36   21 1
    36   37   36 ar
    37   38   37 1
    38   39   37 ar
    39   40   39 1
    40   41   39 ar
    41   42   41 ar
    42   43   42 1
    43   44   36 ar
    44   45   44 1
    45   46   41 1
    46   47   46 1
    47   48   46 1
    48   49   46 1
    49   50   20 1
    50   51    2 1
    51   52   51 1
    52   53   51 1
    53   54   51 1
    54   55   24 1
    55   56   55 1
    56   57   55 1
    57   58   55 1
    58   15   17 ar
    59   22   23 1
    60   22   25 2
    61   32   34 ar
    62   42   44 ar
@<TRIPOS>SUBSTRUCTURE
     1 RES1 1

@<TRIPOS>CRYSIN
  10.4828   10.5406   12.2608  70.7790  77.3210  74.3810   2 1

