# MOL2 file generated by ConQuest
# Please check atom types

@<TRIPOS>MOLECULE
CAWDAF
    51    54     1
SMALL
NO_CHARGES
****
Generated from CSD

@<TRIPOS>ATOM
      1 N1        10.7206    3.8393    3.4732 N.2       1 RES1    0.0000
      2 N2        11.1486    2.7226    4.0827 N.pl3     1 RES1    0.0000
      3 N3         9.6687    2.7399    1.6625 N.2       1 RES1    0.0000
      4 N4         9.0373    2.9405    0.5814 N.2       1 RES1    0.0000
      5 N5         7.4741   -1.7767   -2.0663 N.pl3     1 RES1    0.0000
      6 O1         6.5635   -1.7086   -2.8687 O.2       1 RES1    0.0000
      7 O2         7.9983   -2.8241   -1.7442 O.2       1 RES1    0.0000
      8 C1        10.0124    3.8988    2.3755 C.2       1 RES1    0.0000
      9 C2         9.6734    5.2842    1.9385 C.ar      1 RES1    0.0000
     10 C3         8.3935    5.6247    1.5015 C.ar      1 RES1    0.0000
     11 C4         8.0998    6.9346    1.1462 C.ar      1 RES1    0.0000
     12 C5         9.0622    7.8978    1.2216 C.ar      1 RES1    0.0000
     13 C6        10.3369    7.5834    1.6548 C.ar      1 RES1    0.0000
     14 C7        10.6435    6.2722    2.0203 C.ar      1 RES1    0.0000
     15 C8        11.9932    2.9442    5.2085 C.ar      1 RES1    0.0000
     16 C9        12.5122    4.1934    5.4743 C.ar      1 RES1    0.0000
     17 C10       13.3756    4.3742    6.5476 C.ar      1 RES1    0.0000
     18 C11       13.7151    3.3416    7.3680 C.ar      1 RES1    0.0000
     19 C12       13.1788    2.1060    7.1252 C.ar      1 RES1    0.0000
     20 C13       12.3234    1.9030    6.0544 C.ar      1 RES1    0.0000
     21 C14       10.7019    1.3669    3.8131 C.ar      1 RES1    0.0000
     22 C15       11.5212    0.5113    3.1013 C.ar      1 RES1    0.0000
     23 C16       11.1130   -0.7998    2.9173 C.ar      1 RES1    0.0000
     24 C17        9.9144   -1.2393    3.4323 C.ar      1 RES1    0.0000
     25 C18        9.1163   -0.3838    4.1491 C.ar      1 RES1    0.0000
     26 C19        9.5101    0.9286    4.3536 C.ar      1 RES1    0.0000
     27 C20        8.7354    1.7296   -0.1112 C.ar      1 RES1    0.0000
     28 C21        9.3954    0.5299    0.1201 C.ar      1 RES1    0.0000
     29 C22        9.0052   -0.6067   -0.5469 C.ar      1 RES1    0.0000
     30 C23        7.9490   -0.5349   -1.4325 C.ar      1 RES1    0.0000
     31 C24        7.3156    0.6463   -1.7149 C.ar      1 RES1    0.0000
     32 C25        7.7293    1.7928   -1.0619 C.ar      1 RES1    0.0000
     33 H1         7.6872    4.9276    1.4695 H         1 RES1    0.0000
     34 H2         7.1551    7.1562    0.8817 H         1 RES1    0.0000
     35 H3         8.8355    8.8029    0.9967 H         1 RES1    0.0000
     36 H4        11.0467    8.1715    1.7251 H         1 RES1    0.0000
     37 H5        11.5406    6.0419    2.2746 H         1 RES1    0.0000
     38 H6        12.2902    4.9400    4.8941 H         1 RES1    0.0000
     39 H7        13.7279    5.2372    6.6192 H         1 RES1    0.0000
     40 H8        14.3495    3.4543    8.0759 H         1 RES1    0.0000
     41 H9        13.3800    1.3991    7.6670 H         1 RES1    0.0000
     42 H10       11.9551    1.0648    5.9547 H         1 RES1    0.0000
     43 H11       12.3717    0.8543    2.7729 H         1 RES1    0.0000
     44 H12       11.6780   -1.4114    2.4662 H         1 RES1    0.0000
     45 H13        9.6563   -2.1667    3.2713 H         1 RES1    0.0000
     46 H14        8.2541   -0.7057    4.5235 H         1 RES1    0.0000
     47 H15        8.9605    1.5229    4.8430 H         1 RES1    0.0000
     48 H16       10.1473    0.5200    0.7284 H         1 RES1    0.0000
     49 H17        9.4291   -1.4486   -0.4089 H         1 RES1    0.0000
     50 H18        6.5409    0.6438   -1.5078 H         1 RES1    0.0000
     51 H19        7.3149    2.6372   -1.2012 H         1 RES1    0.0000
@<TRIPOS>BOND
     1    1    2 1
     2    2   15 1
     3    3    4 2
     4    4   27 1
     5    5    6 2
     6    7    5 2
     7    8    1 2
     8    9    8 1
     9   10    9 ar
    10   11   10 ar
    11   12   11 ar
    12   13   12 ar
    13   14    9 ar
    14   15   16 ar
    15   16   17 ar
    16   17   18 ar
    17   18   19 ar
    18   19   20 ar
    19   20   15 ar
    20   21    2 1
    21   22   21 ar
    22   23   22 ar
    23   24   23 ar
    24   25   24 ar
    25   26   21 ar
    26   27   28 ar
    27   28   29 ar
    28   29   30 ar
    29   30    5 1
    30   31   30 ar
    31   32   27 ar
    32   33   10 1
    33   34   11 1
    34   35   12 1
    35   36   13 1
    36   37   14 1
    37   38   16 1
    38   39   17 1
    39   40   18 1
    40   41   19 1
    41   42   20 1
    42   43   22 1
    43   44   23 1
    44   45   24 1
    45   46   25 1
    46   47   26 1
    47   48   28 1
    48   49   29 1
    49   50   31 1
    50   51   32 1
    51    3    8 1
    52   13   14 ar
    53   25   26 ar
    54   31   32 ar
@<TRIPOS>SUBSTRUCTURE
     1 RES1 1

@<TRIPOS>CRYSIN
  13.3830   12.3810   12.7950  90.0000  92.9200  90.0000  14 1

