# MOL2 file generated by ConQuest
# Please check atom types

@<TRIPOS>MOLECULE
CAWWAZ
    55    57     1
SMALL
NO_CHARGES
****
Generated from CSD

@<TRIPOS>ATOM
      1 O1         0.8512    3.2802    2.1378 O.2       1 RES1    0.0000
      2 O2         1.5442    3.0417    4.1622 O.2       1 RES1    0.0000
      3 O3        -0.4537   10.8317    1.6238 O.3       1 RES1    0.0000
      4 O4        -0.7987    9.8503    3.6379 O.2       1 RES1    0.0000
      5 N1         1.3171    7.4226    2.5012 N.ar      1 RES1    0.0000
      6 N2         1.2724    3.7692    3.2087 N.pl3     1 RES1    0.0000
      7 N3         0.7042    5.6843    1.0854 N.pl3     1 RES1    0.0000
      8 H1         0.6277    4.8032    1.0377 H         1 RES1    0.0000
      9 N4         1.9175    9.2112    3.7997 N.pl3     1 RES1    0.0000
     10 C1         2.3557    9.8202    5.0294 C.ar      1 RES1    0.0000
     11 C2         3.7002   10.0523    5.2278 C.ar      1 RES1    0.0000
     12 H2         4.3316    9.7866    4.5699 H         1 RES1    0.0000
     13 C3         4.1255   10.6742    6.3897 C.ar      1 RES1    0.0000
     14 H3         5.0509   10.8411    6.5237 H         1 RES1    0.0000
     15 C4         3.2143   11.0530    7.3550 C.ar      1 RES1    0.0000
     16 H4         3.5105   11.4832    8.1495 H         1 RES1    0.0000
     17 C5         1.8772   10.8053    7.1606 C.ar      1 RES1    0.0000
     18 H5         1.2502   11.0485    7.8307 H         1 RES1    0.0000
     19 C6         1.4374   10.2030    5.9945 C.ar      1 RES1    0.0000
     20 H6         0.5094   10.0533    5.8567 H         1 RES1    0.0000
     21 C7         1.4344   10.0825    2.7473 C.3       1 RES1    0.0000
     22 H7         1.7271    9.7249    1.8726 H         1 RES1    0.0000
     23 H8         1.8407   10.9794    2.8585 H         1 RES1    0.0000
     24 C8        -0.0782   10.2222    2.7432 C.2       1 RES1    0.0000
     25 C9        -1.8911   11.0979    1.3436 C.3       1 RES1    0.0000
     26 C10       -2.6536    9.7898    1.3234 C.3       1 RES1    0.0000
     27 H9        -2.1787    9.1421    0.7605 H         1 RES1    0.0000
     28 H10       -3.5518    9.9397    0.9611 H         1 RES1    0.0000
     29 H11       -2.7250    9.4384    2.2354 H         1 RES1    0.0000
     30 C11       -1.8362   11.7128   -0.0447 C.3       1 RES1    0.0000
     31 H12       -1.2813   12.5204   -0.0225 H         1 RES1    0.0000
     32 H13       -2.7421   11.9474   -0.3346 H         1 RES1    0.0000
     33 H14       -1.4482   11.0683   -0.6726 H         1 RES1    0.0000
     34 C12       -2.4292   12.0872    2.3663 C.3       1 RES1    0.0000
     35 H15       -2.3362   11.7104    3.2663 H         1 RES1    0.0000
     36 H16       -3.3749   12.2660    2.1824 H         1 RES1    0.0000
     37 H17       -1.9224   12.9229    2.3098 H         1 RES1    0.0000
     38 C13        1.7678    7.8562    3.6793 C.ar      1 RES1    0.0000
     39 C14        2.0843    6.9919    4.7548 C.ar      1 RES1    0.0000
     40 H18        2.4054    7.3295    5.5829 H         1 RES1    0.0000
     41 C15        1.9095    5.6613    4.5535 C.ar      1 RES1    0.0000
     42 H19        2.1068    5.0526    5.2550 H         1 RES1    0.0000
     43 C16        1.4457    5.1751    3.3352 C.ar      1 RES1    0.0000
     44 C17        1.1497    6.1066    2.2926 C.ar      1 RES1    0.0000
     45 C18        0.3464    6.3817   -0.0848 C.ar      1 RES1    0.0000
     46 C19        0.2613    7.7574   -0.2182 C.ar      1 RES1    0.0000
     47 H20        0.4526    8.3197    0.5228 H         1 RES1    0.0000
     48 C20       -0.1038    8.3109   -1.4336 C.ar      1 RES1    0.0000
     49 H21       -0.1509    9.2557   -1.5154 H         1 RES1    0.0000
     50 C21       -0.3973    7.5349   -2.5190 C.ar      1 RES1    0.0000
     51 H22       -0.6615    7.9296   -3.3418 H         1 RES1    0.0000
     52 C22       -0.3012    6.1639   -2.3937 C.ar      1 RES1    0.0000
     53 H23       -0.4880    5.6082   -3.1413 H         1 RES1    0.0000
     54 C23        0.0616    5.5939   -1.1967 C.ar      1 RES1    0.0000
     55 H24        0.1186    4.6476   -1.1267 H         1 RES1    0.0000
@<TRIPOS>BOND
     1    1    6 2
     2    2    6 2
     3    3   24 1
     4    4   24 2
     5    5   38 ar
     6    6   43 1
     7    7    8 1
     8    9   10 1
     9   10   11 ar
    10   11   12 1
    11   13   11 ar
    12   14   13 1
    13   15   13 ar
    14   16   15 1
    15   17   15 ar
    16   18   17 1
    17   19   10 ar
    18   20   19 1
    19   21    9 1
    20   22   21 1
    21   23   21 1
    22   24   21 1
    23   25    3 1
    24   26   25 1
    25   27   26 1
    26   28   26 1
    27   29   26 1
    28   30   25 1
    29   31   30 1
    30   32   30 1
    31   33   30 1
    32   34   25 1
    33   35   34 1
    34   36   34 1
    35   37   34 1
    36   38    9 1
    37   39   38 ar
    38   40   39 1
    39   41   39 ar
    40   42   41 1
    41   43   41 ar
    42   44    5 ar
    43   45    7 1
    44   46   45 ar
    45   47   46 1
    46   48   46 ar
    47   49   48 1
    48   50   48 ar
    49   51   50 1
    50   52   50 ar
    51   53   52 1
    52   54   45 ar
    53   55   54 1
    54    7   44 1
    55   17   19 ar
    56   43   44 ar
    57   52   54 ar
@<TRIPOS>SUBSTRUCTURE
     1 RES1 1

@<TRIPOS>CRYSIN
   7.6072   24.6950   11.8510  90.0000 108.0600  90.0000  14 1

