# MOL2 file generated by ConQuest
# Please check atom types

@<TRIPOS>MOLECULE
CAXKAQ
    40    42     1
SMALL
NO_CHARGES
****
Generated from CSD

@<TRIPOS>ATOM
      1 O1        -6.6287   -0.8042   -1.2678 O.3       1 RES1    0.0000
      2 O2        -9.3278   -2.3758   -4.5137 O.3       1 RES1    0.0000
      3 O3       -11.0740   -2.7960   -5.7989 O.2       1 RES1    0.0000
      4 C1       -10.4125   -3.1000   -4.8419 C.2       1 RES1    0.0000
      5 C2       -10.5655   -4.2065   -3.9013 C.2       1 RES1    0.0000
      6 N1        -6.0158   -4.1103   -2.2176 N.2       1 RES1    0.0000
      7 C3        -6.8979   -2.0313   -1.8254 C.2       1 RES1    0.0000
      8 C4       -11.2050   -5.3571   -4.1033 C.2       1 RES1    0.0000
      9 C5        -9.7110   -3.8746   -2.7139 C.3       1 RES1    0.0000
     10 C6        -8.6215   -3.0236   -3.4132 C.3       1 RES1    0.0000
     11 H1        -7.9300   -3.6164   -3.7752 H         1 RES1    0.0000
     12 O4        -5.1657   -5.1088   -1.7742 O.3       1 RES1    0.0000
     13 H2        -5.2471   -5.7700   -2.2532 H         1 RES1    0.0000
     14 C7        -6.0089   -3.1099   -1.4406 C.2       1 RES1    0.0000
     15 C8        -7.9748   -1.9314   -2.6353 C.2       1 RES1    0.0000
     16 C9        -7.5491    0.0621   -1.7624 C.2       1 RES1    0.0000
     17 H3        -7.5947    0.9671   -1.5521 H         1 RES1    0.0000
     18 C10      -10.3472   -6.1299   -1.8620 C.3       1 RES1    0.0000
     19 H4       -10.0123   -6.9449   -1.4570 H         1 RES1    0.0000
     20 H5       -10.9763   -5.7269   -1.2441 H         1 RES1    0.0000
     21 C11      -12.0736   -5.6306   -5.2834 C.3       1 RES1    0.0000
     22 H6       -11.8076   -5.0674   -6.0147 H         1 RES1    0.0000
     23 H7       -12.9881   -5.4498   -5.0567 H         1 RES1    0.0000
     24 H8       -11.9837   -6.5518   -5.5412 H         1 RES1    0.0000
     25 C12       -8.3755   -0.5712   -2.5896 C.2       1 RES1    0.0000
     26 H9        -9.0861   -0.1916   -3.0530 H         1 RES1    0.0000
     27 C13      -11.0567   -6.4690   -3.1362 C.3       1 RES1    0.0000
     28 H10      -10.5768   -7.1905   -3.5713 H         1 RES1    0.0000
     29 H11      -11.9411   -6.8010   -2.9141 H         1 RES1    0.0000
     30 C14      -10.5012   -3.0245   -1.7313 C.3       1 RES1    0.0000
     31 H12      -11.2574   -3.5219   -1.4132 H         1 RES1    0.0000
     32 H13      -10.8048   -2.2265   -2.1700 H         1 RES1    0.0000
     33 H14       -9.9389   -2.7870   -0.9900 H         1 RES1    0.0000
     34 C15       -9.1765   -5.1637   -2.0923 C.3       1 RES1    0.0000
     35 H15       -8.7402   -4.9667   -1.2486 H         1 RES1    0.0000
     36 H16       -8.5244   -5.5694   -2.6847 H         1 RES1    0.0000
     37 C16       -5.1661   -2.9714   -0.2404 C.3       1 RES1    0.0000
     38 H17       -4.3974   -3.5399   -0.3218 H         1 RES1    0.0000
     39 H18       -5.6707   -3.2242    0.5366 H         1 RES1    0.0000
     40 H19       -4.8811   -2.0583   -0.1527 H         1 RES1    0.0000
@<TRIPOS>BOND
     1    1    7 1
     2    2    4 1
     3    3    4 2
     4    4    5 1
     5    5    8 2
     6    6   12 1
     7    7   14 1
     8    8   21 1
     9    9    5 1
    10   10    2 1
    11   11   10 1
    12   12   13 1
    13   14    6 2
    14   15    7 2
    15   16    1 1
    16   17   16 1
    17   18   19 1
    18   20   18 1
    19   21   22 1
    20   23   21 1
    21   24   21 1
    22   25   15 1
    23   26   25 1
    24   27    8 1
    25   28   27 1
    26   29   27 1
    27   30    9 1
    28   31   30 1
    29   32   30 1
    30   33   30 1
    31   34    9 1
    32   35   34 1
    33   36   34 1
    34   37   14 1
    35   38   37 1
    36   39   37 1
    37   40   37 1
    38    9   10 1
    39   10   15 1
    40   16   25 2
    41   18   27 1
    42   18   34 1
@<TRIPOS>SUBSTRUCTURE
     1 RES1 1

@<TRIPOS>CRYSIN
   9.3160    8.9960    9.4580  90.0000 104.8800  90.0000   4 1

