# MOL2 file generated by ConQuest
# Please check atom types

@<TRIPOS>MOLECULE
CAXNIY
    30    32     1
SMALL
NO_CHARGES
****
Generated from CSD

@<TRIPOS>ATOM
      1 C1         2.7920    0.6464    4.5903 C.3       1 RES1    0.0000
      2 C2         3.1117    2.1191    4.6372 C.3       1 RES1    0.0000
      3 C3         3.0577    2.7618    3.2699 C.3       1 RES1    0.0000
      4 C4         4.0601    2.0558    2.3478 C.3       1 RES1    0.0000
      5 C5         3.7444    0.5794    2.2603 C.3       1 RES1    0.0000
      6 C6         2.3434    0.3871    1.6819 C.3       1 RES1    0.0000
      7 C7         1.3220    1.0769    2.5964 C.3       1 RES1    0.0000
      8 C8         1.3919    0.4653    4.0005 C.3       1 RES1    0.0000
      9 C9         3.8062   -0.0323    3.6555 C.3       1 RES1    0.0000
     10 C10        1.6370    2.5633    2.7220 C.3       1 RES1    0.0000
     11 N1         2.2166    2.8784    5.6583 N.pl3     1 RES1    0.0000
     12 O1         1.6827    2.2419    6.5309 O.2       1 RES1    0.0000
     13 O2         2.1417    4.0757    5.5340 O.2       1 RES1    0.0000
     14 N2         4.4950    2.3486    5.3209 N.pl3     1 RES1    0.0000
     15 O3         4.7923    1.6030    6.2176 O.2       1 RES1    0.0000
     16 O4         5.1652    3.2829    4.9556 O.2       1 RES1    0.0000
     17 H1         2.9011    0.2978    5.5682 H         1 RES1    0.0000
     18 H2         3.2546    3.6973    3.3866 H         1 RES1    0.0000
     19 H3         4.9866    2.1712    2.7017 H         1 RES1    0.0000
     20 H4         4.0005    2.4938    1.4586 H         1 RES1    0.0000
     21 H5         4.4333    0.0744    1.6743 H         1 RES1    0.0000
     22 H6         2.2757    0.8313    0.7357 H         1 RES1    0.0000
     23 H7         2.1674   -0.5583    1.5728 H         1 RES1    0.0000
     24 H8         0.4115    0.9802    2.2450 H         1 RES1    0.0000
     25 H9         1.2325   -0.4963    3.9700 H         1 RES1    0.0000
     26 H10        0.7030    0.8685    4.5662 H         1 RES1    0.0000
     27 H11        4.7594    0.0124    4.0208 H         1 RES1    0.0000
     28 H12        3.5268   -0.9802    3.6149 H         1 RES1    0.0000
     29 H13        0.9024    3.0273    3.3232 H         1 RES1    0.0000
     30 H14        1.5564    3.0397    1.8392 H         1 RES1    0.0000
@<TRIPOS>BOND
     1    1    2 1
     2    2    3 1
     3    3    4 1
     4    4    5 1
     5    5    6 1
     6    6    7 1
     7    7    8 1
     8    8    1 1
     9    9    1 1
    10   10    3 1
    11   11    2 1
    12   12   11 2
    13   13   11 2
    14   14    2 1
    15   15   14 2
    16   16   14 2
    17   17    1 1
    18   18    3 1
    19   19    4 1
    20   20    4 1
    21   21    5 1
    22   22    6 1
    23   23    6 1
    24   24    7 1
    25   25    8 1
    26   26    8 1
    27   27    9 1
    28   28    9 1
    29   29   10 1
    30   30   10 1
    31    5    9 1
    32    7   10 1
@<TRIPOS>SUBSTRUCTURE
     1 RES1 1

@<TRIPOS>CRYSIN
   6.5860   12.4070   12.9160  90.0000 100.8800  90.0000 231 1

