# MOL2 file generated by ConQuest
# Please check atom types

@<TRIPOS>MOLECULE
CAYTOO
    44    46     1
SMALL
NO_CHARGES
****
Generated from CSD

@<TRIPOS>ATOM
      1 O1         8.0855    6.1276    7.5651 O.2       1 RES1    0.0000
      2 O2         6.7641    6.4643    9.2110 O.2       1 RES1    0.0000
      3 O3         4.2060    1.3758    6.6406 O.3       1 RES1    0.0000
      4 N1         7.1049    5.8362    8.2210 N.pl3     1 RES1    0.0000
      5 N2         2.0289   -0.0153    5.2194 N.3       1 RES1    0.0000
      6 N3         0.1366   -0.2515    3.0777 N.pl3     1 RES1    0.0000
      7 N4        -1.4447    0.7894    1.7439 N.ar      1 RES1    0.0000
      8 C1         6.3341    4.6653    7.8222 C.ar      1 RES1    0.0000
      9 C2         6.7390    3.9225    6.7328 C.ar      1 RES1    0.0000
     10 H1         7.4971    4.1642    6.2524 H         1 RES1    0.0000
     11 C3         6.0062    2.8227    6.3688 C.ar      1 RES1    0.0000
     12 H2         6.2678    2.3130    5.6365 H         1 RES1    0.0000
     13 C4         4.8681    2.4657    7.0929 C.ar      1 RES1    0.0000
     14 C5         4.4883    3.2153    8.1968 C.ar      1 RES1    0.0000
     15 H3         3.7361    2.9742    8.6882 H         1 RES1    0.0000
     16 C6         5.2293    4.3194    8.5628 C.ar      1 RES1    0.0000
     17 H4         4.9840    4.8248    9.3042 H         1 RES1    0.0000
     18 C7         2.9802    1.0139    7.2980 C.3       1 RES1    0.0000
     19 H5         2.3442    1.7450    7.2429 H         1 RES1    0.0000
     20 H6         3.1486    0.8250    8.2353 H         1 RES1    0.0000
     21 C8         2.4249   -0.2030    6.6194 C.3       1 RES1    0.0000
     22 H7         3.0913   -0.9072    6.6591 H         1 RES1    0.0000
     23 H8         1.6512   -0.5073    7.1201 H         1 RES1    0.0000
     24 C9         0.8915    0.8931    5.0909 C.3       1 RES1    0.0000
     25 H9         1.1292    1.7616    5.4513 H         1 RES1    0.0000
     26 H10        0.1445    0.5490    5.6043 H         1 RES1    0.0000
     27 C10        0.4807    1.0433    3.6470 C.3       1 RES1    0.0000
     28 H11       -0.2838    1.6377    3.5872 H         1 RES1    0.0000
     29 H12        1.2094    1.4371    3.1423 H         1 RES1    0.0000
     30 C11        1.2273   -1.2053    3.2164 C.3       1 RES1    0.0000
     31 H13        1.9787   -0.9207    2.6713 H         1 RES1    0.0000
     32 H14        0.9385   -2.0756    2.9008 H         1 RES1    0.0000
     33 C12        1.6604   -1.3108    4.6573 C.3       1 RES1    0.0000
     34 H15        0.9370   -1.6904    5.1795 H         1 RES1    0.0000
     35 H16        2.4195   -1.9119    4.7185 H         1 RES1    0.0000
     36 C13       -0.7251   -0.3116    1.9925 C.ar      1 RES1    0.0000
     37 C14       -0.8864   -1.4733    1.2225 C.ar      1 RES1    0.0000
     38 H17       -0.3847   -2.2351    1.4051 H         1 RES1    0.0000
     39 C15       -1.7918   -1.4666    0.2005 C.ar      1 RES1    0.0000
     40 H18       -1.9007   -2.2271   -0.3241 H         1 RES1    0.0000
     41 C16       -2.5425   -0.3447   -0.0586 C.ar      1 RES1    0.0000
     42 H19       -3.1680   -0.3263   -0.7468 H         1 RES1    0.0000
     43 C17       -2.3297    0.7385    0.7384 C.ar      1 RES1    0.0000
     44 H20       -2.8368    1.5003    0.5737 H         1 RES1    0.0000
@<TRIPOS>BOND
     1    1    4 2
     2    2    4 2
     3    3   13 1
     4    4    8 1
     5    5   21 1
     6    6   27 1
     7    7   36 ar
     8    8    9 ar
     9    9   10 1
    10   11    9 ar
    11   12   11 1
    12   13   11 ar
    13   14   13 ar
    14   15   14 1
    15   16    8 ar
    16   17   16 1
    17   18    3 1
    18   19   18 1
    19   20   18 1
    20   21   18 1
    21   22   21 1
    22   23   21 1
    23   24    5 1
    24   25   24 1
    25   26   24 1
    26   27   24 1
    27   28   27 1
    28   29   27 1
    29   30    6 1
    30   31   30 1
    31   32   30 1
    32   33    5 1
    33   34   33 1
    34   35   33 1
    35   36    6 1
    36   37   36 ar
    37   38   37 1
    38   39   37 ar
    39   40   39 1
    40   41   39 ar
    41   42   41 1
    42   43    7 ar
    43   44   43 1
    44   14   16 ar
    45   30   33 1
    46   41   43 ar
@<TRIPOS>SUBSTRUCTURE
     1 RES1 1

@<TRIPOS>CRYSIN
  13.2360    6.1337   20.3710  90.0000  98.8180  90.0000  14 1

