# MOL2 file generated by ConQuest
# Please check atom types

@<TRIPOS>MOLECULE
CAYYOR
    45    48     1
SMALL
NO_CHARGES
****
Generated from CSD

@<TRIPOS>ATOM
      1 O1         1.8839    8.0166   -0.7425 O.3       1 RES1    0.0000
      2 C1         1.3283    9.2795   -0.2987 C.3       1 RES1    0.0000
      3 C2         1.3731    8.9552   -1.7317 C.3       1 RES1    0.0000
      4 C3         2.4129    9.5547   -2.6416 C.3       1 RES1    0.0000
      5 O2         1.8136   10.5639   -3.4330 O.3       1 RES1    0.0000
      6 C4         3.6306    9.9909   -1.8244 C.3       1 RES1    0.0000
      7 C5         3.2247   10.9098   -0.6826 C.3       1 RES1    0.0000
      8 C6         2.3346   10.2213    0.3532 C.3       1 RES1    0.0000
      9 O3         3.0916    9.5061    1.3302 O.3       1 RES1    0.0000
     10 C7         1.5574   11.2834    1.1154 C.3       1 RES1    0.0000
     11 C8         0.8260   10.8532    2.4205 C.3       1 RES1    0.0000
     12 N1         1.7637   11.7610    3.0923 N.am      1 RES1    0.0000
     13 C9         2.4180   12.1997    2.0116 C.2       1 RES1    0.0000
     14 O4         3.3188   13.0049    1.8451 O.2       1 RES1    0.0000
     15 O5         1.8147   12.2119    4.3932 O.3       1 RES1    0.0000
     16 C10        2.7865   11.4337    5.1605 C.3       1 RES1    0.0000
     17 C11        2.3573   10.0107    5.3569 C.ar      1 RES1    0.0000
     18 C12        1.1849    9.7174    6.0431 C.ar      1 RES1    0.0000
     19 C13        0.7886    8.4085    6.2420 C.ar      1 RES1    0.0000
     20 C14        1.5704    7.3599    5.7814 C.ar      1 RES1    0.0000
     21 C15        2.7439    7.6269    5.0946 C.ar      1 RES1    0.0000
     22 C16        3.1124    8.9559    4.8871 C.ar      1 RES1    0.0000
     23 O6         1.1010    6.1102    6.0522 O.3       1 RES1    0.0000
     24 C17        1.8119    4.9897    5.5382 C.3       1 RES1    0.0000
     25 H1         0.5159    9.2036    0.2074 H         1 RES1    0.0000
     26 H2         0.5613    8.6617   -2.1426 H         1 RES1    0.0000
     27 H3         2.6986    8.8529   -3.2765 H         1 RES1    0.0000
     28 H4         1.3833   11.1338   -2.9525 H         1 RES1    0.0000
     29 H5         4.1613    9.1504   -1.4123 H         1 RES1    0.0000
     30 H6         4.2463   10.4999   -2.4723 H         1 RES1    0.0000
     31 H7         4.0592   11.2146   -0.2160 H         1 RES1    0.0000
     32 H8         2.7043   11.7575   -1.1395 H         1 RES1    0.0000
     33 H9         3.4072    8.8846    1.0116 H         1 RES1    0.0000
     34 H10        0.9978   11.8106    0.5257 H         1 RES1    0.0000
     35 H11        0.9524    9.9346    2.6825 H         1 RES1    0.0000
     36 H12       -0.0397   11.1880    2.5263 H         1 RES1    0.0000
     37 H13        3.6397   11.5530    4.7342 H         1 RES1    0.0000
     38 H14        2.7213   11.9926    6.0244 H         1 RES1    0.0000
     39 H15        0.7200   10.4590    6.3114 H         1 RES1    0.0000
     40 H16       -0.0510    8.2098    6.6893 H         1 RES1    0.0000
     41 H17        3.2939    6.9216    4.7598 H         1 RES1    0.0000
     42 H18        3.9232    9.1504    4.3705 H         1 RES1    0.0000
     43 H19        1.2416    4.1714    5.8084 H         1 RES1    0.0000
     44 H20        1.9502    5.0608    4.5779 H         1 RES1    0.0000
     45 H21        2.6589    4.9586    5.9533 H         1 RES1    0.0000
@<TRIPOS>BOND
     1    1    2 1
     2    2    3 1
     3    3    1 1
     4    4    3 1
     5    5    4 1
     6    6    4 1
     7    7    6 1
     8    8    2 1
     9    9    8 1
    10   10    8 1
    11   11   10 1
    12   12   11 1
    13   13   10 1
    14   14   13 2
    15   15   12 1
    16   16   15 1
    17   17   16 1
    18   18   17 ar
    19   19   18 ar
    20   20   19 ar
    21   21   20 ar
    22   22   17 ar
    23   23   20 1
    24   24   23 1
    25   25    2 1
    26   26    3 1
    27   27    4 1
    28   28    5 1
    29   29    6 1
    30   30    6 1
    31   31    7 1
    32   32    7 1
    33   33    9 1
    34   34   10 1
    35   35   11 1
    36   36   11 1
    37   37   16 1
    38   38   16 1
    39   39   18 1
    40   40   19 1
    41   41   21 1
    42   42   22 1
    43   43   24 1
    44   44   24 1
    45   45   24 1
    46    7    8 1
    47   12   13 1
    48   21   22 ar
@<TRIPOS>SUBSTRUCTURE
     1 RES1 1

@<TRIPOS>CRYSIN
   5.6693   10.2239   28.4168  90.0000  90.0000  90.0000  19 1

