# MOL2 file generated by ConQuest
# Please check atom types

@<TRIPOS>MOLECULE
CAZBZO10
    26    27     1
SMALL
USER_CHARGES
****
Generated from CSD

@<TRIPOS>ATOM
      1 C1         4.7258    3.2438    0.3850 C.ar      1 RES1    0.0000
      2 C2         2.1851    1.2796    3.9512 C.ar      1 RES1    0.0000
      3 C3         3.1244    0.3348    3.6253 C.ar      1 RES1    0.0000
      4 C4         3.6443    0.2697    2.3310 C.ar      1 RES1    0.0000
      5 C5         4.2081    4.5068    0.2152 C.ar      1 RES1    0.0000
      6 C6         4.6756    5.5304    1.0139 C.ar      1 RES1    0.0000
      7 C7         5.6589    5.2787    1.9324 C.ar      1 RES1    0.0000
      8 C8         6.1840    4.0199    2.0809 C.ar      1 RES1    0.0000
      9 C9         5.7195    2.9796    1.2958 C.ar      1 RES1    0.0000
     10 C10        3.1715    1.1966    1.4247 C.ar      1 RES1    0.0000
     11 C11        2.2217    2.1303    1.7263 C.ar      1 RES1    0.0000
     12 C12        1.7280    2.1759    3.0267 C.ar      1 RES1    0.0000
     13 H1         1.8723    1.2726    4.8196 H         1 RES1    0.0000
     14 H2         3.4623   -0.2628    4.2134 H         1 RES1    0.0000
     15 H3         4.4664   -0.4012    2.1067 H         1 RES1    0.0000
     16 H4         3.5250    4.6202   -0.4092 H         1 RES1    0.0000
     17 H5         4.3200    6.4462    0.9397 H         1 RES1    0.0000
     18 H6         5.9831    6.0450    2.5614 H         1 RES1    0.0000
     19 H7         6.9245    3.8871    2.7281 H         1 RES1    0.0000
     20 H8         6.0250    2.0196    1.4398 H         1 RES1    0.0000
     21 H9         1.9351    2.7528    1.1064 H         1 RES1    0.0000
     22 H10        1.0774    2.8773    3.2737 H         1 RES1    0.0000
     23 N1         4.2509    2.1759   -0.4789 N.pl3     1 RES1    1.0000
     24 N2         3.6756    1.1122    0.0530 N.pl3     1 RES1    1.0000
     25 O1         4.5030    2.1939   -1.7202 O.2       1 RES1   -1.0000
     26 O2         3.4466    0.0954   -0.6578 O.2       1 RES1   -1.0000
@<TRIPOS>BOND
     1    1    5 ar
     2    2    3 ar
     3    3    4 ar
     4    4   10 ar
     5    5    6 ar
     6    6    7 ar
     7    7    8 ar
     8    8    9 ar
     9    9    1 ar
    10   10   11 ar
    11   11   12 ar
    12   12    2 ar
    13   13    2 1
    14   14    3 1
    15   15    4 1
    16   16    5 1
    17   17    6 1
    18   18    7 1
    19   19    8 1
    20   20    9 1
    21   21   11 1
    22   22   12 1
    23   23    1 1
    24   24   10 1
    25   25   23 1
    26   26   24 1
    27   23   24 2
@<TRIPOS>SUBSTRUCTURE
     1 RES1 1

@<TRIPOS>CRYSIN
  10.4600   13.8330   15.1560  90.0000  90.0000  90.0000  60 1

