# MOL2 file generated by ConQuest
# Please check atom types

@<TRIPOS>MOLECULE
CAZBZO13
    52    27     2
SMALL
NO_CHARGES
****
Generated from CSD

@<TRIPOS>ATOM
      1 O1         8.5253    6.9666    6.8641 O.2       1 RES1    0.0000
      2 O2         9.5004    9.0873    5.7828 O.2       1 RES1    0.0000
      3 N1         9.2692    9.0621    7.0348 N.pl3     1 RES1    0.0000
      4 N2         8.7269    7.9882    7.5738 N.pl3     1 RES1    0.0000
      5 C1         8.2368    8.0226    8.9339 C.ar      1 RES1    0.0000
      6 C2        10.7262    9.8400    8.8283 C.ar      1 RES1    0.0000
      7 H1        11.0577    8.9767    8.9264 H         1 RES1    0.0000
      8 C3         7.2913    8.9836    9.2326 C.ar      1 RES1    0.0000
      9 H2         6.9925    9.5715    8.5779 H         1 RES1    0.0000
     10 C4         8.6849    7.1139    9.8798 C.ar      1 RES1    0.0000
     11 H3         9.3111    6.4641    9.6550 H         1 RES1    0.0000
     12 C5        11.2071   10.8905    9.6158 C.ar      1 RES1    0.0000
     13 H4        11.8794   10.7363   10.2389 H         1 RES1    0.0000
     14 C6         6.7961    9.0607   10.5225 C.ar      1 RES1    0.0000
     15 H5         6.1617    9.7037   10.7442 H         1 RES1    0.0000
     16 C7         9.2272   11.3861    7.7225 C.ar      1 RES1    0.0000
     17 H6         8.5724   11.5472    7.0814 H         1 RES1    0.0000
     18 C8         9.7531   10.1209    7.9096 C.ar      1 RES1    0.0000
     19 C9         8.1805    7.1924   11.1606 C.ar      1 RES1    0.0000
     20 H7         8.4649    6.5894   11.8078 H         1 RES1    0.0000
     21 C10        9.7112   12.4077    8.5251 C.ar      1 RES1    0.0000
     22 H8         9.3756   13.2696    8.4255 H         1 RES1    0.0000
     23 C11       10.6802   12.1599    9.4650 C.ar      1 RES1    0.0000
     24 H9        10.9851   12.8524   10.0050 H         1 RES1    0.0000
     25 C12        7.2576    8.1644   11.4835 C.ar      1 RES1    0.0000
     26 H10        6.9373    8.2209   12.3539 H         1 RES1    0.0000
     27 C13        8.0730    8.2470    8.9309 Du        2 SUP2    0.0000
     28 H11        8.2153    8.4384    8.0333 Du        2 SUP2    0.0000
     29 O3         8.0424    7.0905    6.7585 Du        2 SUP2    0.0000
     30 C14        7.0805    8.7978   11.0279 Du        2 SUP2    0.0000
     31 H12        6.5955    9.3609   11.5755 Du        2 SUP2    0.0000
     32 C15        8.4721    6.7739   10.7865 Du        2 SUP2    0.0000
     33 H13        8.8005    5.9863   11.1531 Du        2 SUP2    0.0000
     34 N3         9.2497   10.4912    6.1098 Du        2 SUP2    0.0000
     35 C16       10.6720    9.8992    8.2671 Du        2 SUP2    0.0000
     36 H14       11.2040    9.2672    7.8387 Du        2 SUP2    0.0000
     37 C17        8.7279    7.1318    9.4740 Du        2 SUP2    0.0000
     38 C18        7.2033    9.0869    9.6550 Du        2 SUP2    0.0000
     39 H15        6.7388    9.7835    9.2507 Du        2 SUP2    0.0000
     40 N4         8.8200    6.7326    7.7542 Du        2 SUP2    0.0000
     41 O4         9.8330    9.5688    5.7749 Du        2 SUP2    0.0000
     42 C19       10.9278   10.1608    9.2930 Du        2 SUP2    0.0000
     43 H16       11.2511    9.4545    9.8014 Du        2 SUP2    0.0000
     44 C20       10.8255   11.5238   10.0020 Du        2 SUP2    0.0000
     45 H17       11.2634   11.7565   10.7910 Du        2 SUP2    0.0000
     46 C21        9.8330   12.4325    9.1874 Du        2 SUP2    0.0000
     47 H18        9.6242   13.3026    9.4408 Du        2 SUP2    0.0000
     48 C22        7.6945    7.6550   11.5559 Du        2 SUP2    0.0000
     49 H19        7.5788    7.4678   12.4565 Du        2 SUP2    0.0000
     50 C23        9.7409   10.3535    7.6033 Du        2 SUP2    0.0000
     51 C24        9.3111   11.8542    8.0710 Du        2 SUP2    0.0000
     52 H20        8.6900   12.3334    7.5656 Du        2 SUP2    0.0000
@<TRIPOS>BOND
     1    1    4 1
     2    2    3 1
     3    3    4 2
     4    4    5 1
     5    5    8 ar
     6    6    7 1
     7    8    9 1
     8   10    5 ar
     9   11   10 1
    10   12    6 ar
    11   13   12 1
    12   14    8 ar
    13   15   14 1
    14   16   17 1
    15   18    3 1
    16   19   10 ar
    17   20   19 1
    18   21   16 ar
    19   22   21 1
    20   23   12 ar
    21   24   23 1
    22   25   14 ar
    23   26   25 1
    24    6   18 ar
    25   16   18 ar
    26   19   25 ar
    27   21   23 ar
@<TRIPOS>SUBSTRUCTURE
     1 RES1 1
     2 SUP2 27

@<TRIPOS>CRYSIN
  10.2320   13.7680   15.0860  90.0000  90.0000  90.0000  60 1

