# MOL2 file generated by ConQuest
# Please check atom types

@<TRIPOS>MOLECULE
CAZBZO12
    26    27     1
SMALL
NO_CHARGES
****
Generated from CSD

@<TRIPOS>ATOM
      1 O1         9.5081    4.6631    5.7427 O.2       1 RES1    0.0000
      2 O2         8.4904    6.7802    6.8099 O.2       1 RES1    0.0000
      3 N1         8.7025    5.7611    7.5209 N.pl3     1 RES1    0.0000
      4 N2         9.2586    4.6918    6.9844 N.pl3     1 RES1    0.0000
      5 C1         8.2077    5.6856    8.8805 C.ar      1 RES1    0.0000
      6 C2         8.6611    6.6098    9.7930 C.ar      1 RES1    0.0000
      7 H1         9.2834    7.2561    9.5497 H         1 RES1    0.0000
      8 C3         7.2599    4.7377    9.1864 C.ar      1 RES1    0.0000
      9 H2         6.9503    4.1469    8.5381 H         1 RES1    0.0000
     10 C4        11.1921    2.8828    9.5566 C.ar      1 RES1    0.0000
     11 H3        11.8627    3.0460   10.1792 H         1 RES1    0.0000
     12 C5        10.7194    3.9094    8.7689 C.ar      1 RES1    0.0000
     13 H4        11.0588    4.7715    8.8558 H         1 RES1    0.0000
     14 C6         9.7351    3.6320    7.8514 C.ar      1 RES1    0.0000
     15 C7         8.1657    6.5493   11.0814 C.ar      1 RES1    0.0000
     16 H5         8.4590    7.1559   11.7228 H         1 RES1    0.0000
     17 C8         6.7802    4.6843   10.4768 C.ar      1 RES1    0.0000
     18 H6         6.1515    4.0412   10.7142 H         1 RES1    0.0000
     19 C9         9.2075    2.3704    7.6883 C.ar      1 RES1    0.0000
     20 H7         8.5469    2.2073    7.0544 H         1 RES1    0.0000
     21 C10        9.6859    1.3560    8.4912 C.ar      1 RES1    0.0000
     22 H8         9.3437    0.4955    8.4047 H         1 RES1    0.0000
     23 C11       10.6713    1.6148    9.4223 C.ar      1 RES1    0.0000
     24 H9        10.9862    0.9279    9.9634 H         1 RES1    0.0000
     25 C12        7.2358    5.5872   11.4154 C.ar      1 RES1    0.0000
     26 H10        6.9115    5.5457   12.2863 H         1 RES1    0.0000
@<TRIPOS>BOND
     1    1    4 1
     2    2    3 1
     3    3    4 2
     4    4   14 1
     5    5    3 1
     6    6    5 ar
     7    7    6 1
     8    8    5 ar
     9    9    8 1
    10   10   11 1
    11   12   10 ar
    12   13   12 1
    13   14   12 ar
    14   15    6 ar
    15   16   15 1
    16   17    8 ar
    17   18   17 1
    18   19   14 ar
    19   20   19 1
    20   21   19 ar
    21   22   21 1
    22   23   10 ar
    23   24   23 1
    24   25   15 ar
    25   26   25 1
    26   17   25 ar
    27   21   23 ar
@<TRIPOS>SUBSTRUCTURE
     1 RES1 1

@<TRIPOS>CRYSIN
  10.2150   13.7270   14.9870  90.0000  90.0000  90.0000  60 1

