# MOL2 file generated by ConQuest
# Please check atom types

@<TRIPOS>MOLECULE
CDECOX
    31    31     1
SMALL
NO_CHARGES
****
Generated from CSD

@<TRIPOS>ATOM
      1 O1         5.0531    1.1256    1.1194 O.3       1 RES1    0.0000
      2 N1         4.3464   -0.1062    1.0171 N.2       1 RES1    0.0000
      3 C1         3.3642   -0.1665    1.8197 C.2       1 RES1    0.0000
      4 C2         2.9434    0.9452    2.7450 C.3       1 RES1    0.0000
      5 C3         3.6947    1.0261    4.0866 C.3       1 RES1    0.0000
      6 C4         3.8857   -0.3147    4.8142 C.3       1 RES1    0.0000
      7 C5         5.1492   -1.0382    4.3565 C.3       1 RES1    0.0000
      8 C6         5.1659   -2.5526    4.5510 C.3       1 RES1    0.0000
      9 C7         4.1784   -3.3201    3.6656 C.3       1 RES1    0.0000
     10 C8         4.4087   -3.1447    2.1497 C.3       1 RES1    0.0000
     11 C9         3.1935   -2.7148    1.3370 C.3       1 RES1    0.0000
     12 C10        2.5370   -1.4253    1.8090 C.3       1 RES1    0.0000
     13 H1         2.0016    0.8447    2.9039 H         1 RES1    0.0000
     14 H2         3.0765    1.8155    2.2880 H         1 RES1    0.0000
     15 H3         3.1848    1.6579    4.6751 H         1 RES1    0.0000
     16 H4         4.5749    1.4217    3.9434 H         1 RES1    0.0000
     17 H5         3.0795   -0.8897    4.6918 H         1 RES1    0.0000
     18 H6         3.9468   -0.1571    5.7898 H         1 RES1    0.0000
     19 H7         5.9173   -0.6431    4.8457 H         1 RES1    0.0000
     20 H8         5.3092   -0.8275    3.3837 H         1 RES1    0.0000
     21 H9         4.9800   -2.7748    5.5213 H         1 RES1    0.0000
     22 H10        6.0653   -2.8814    4.3576 H         1 RES1    0.0000
     23 H11        3.2714   -3.0588    3.8921 H         1 RES1    0.0000
     24 H12        4.2163   -4.2862    3.8682 H         1 RES1    0.0000
     25 H13        4.7123   -3.9877    1.7760 H         1 RES1    0.0000
     26 H14        5.1355   -2.5028    2.0087 H         1 RES1    0.0000
     27 H15        2.5037   -3.4344    1.3547 H         1 RES1    0.0000
     28 H16        3.4697   -2.6197    0.3903 H         1 RES1    0.0000
     29 H17        2.1971   -1.5439    2.7236 H         1 RES1    0.0000
     30 H18        1.7695   -1.2508    1.2532 H         1 RES1    0.0000
     31 H19        5.6571    1.0295    0.4762 H         1 RES1    0.0000
@<TRIPOS>BOND
     1    1    2 1
     2    2    3 2
     3    3    4 1
     4    4    5 1
     5    5    6 1
     6    6    7 1
     7    7    8 1
     8    8    9 1
     9    9   10 1
    10   10   11 1
    11   11   12 1
    12   12    3 1
    13   13    4 1
    14   14    4 1
    15   15    5 1
    16   16    5 1
    17   17    6 1
    18   18    6 1
    19   19    7 1
    20   20    7 1
    21   21    8 1
    22   22    8 1
    23   23    9 1
    24   24    9 1
    25   25   10 1
    26   26   10 1
    27   27   11 1
    28   28   11 1
    29   29   12 1
    30   30   12 1
    31   31    1 1
@<TRIPOS>SUBSTRUCTURE
     1 RES1 1

@<TRIPOS>CRYSIN
   5.4470    7.6880   12.8020  77.8300  70.1100  74.1900   2 1

