# MOL2 file generated by ConQuest
# Please check atom types

@<TRIPOS>MOLECULE
CEBLUS
    63    66     1
SMALL
NO_CHARGES
****
Generated from CSD

@<TRIPOS>ATOM
      1 O1         4.6970    1.4022    3.9736 O.3       1 RES1    0.0000
      2 O2         6.4663   -1.2443    3.5180 O.3       1 RES1    0.0000
      3 N1         7.0024    1.8290    4.2684 N.2       1 RES1    0.0000
      4 O3         7.7195   -1.0455    1.6572 O.2       1 RES1    0.0000
      5 C1         6.8946   -0.6347    2.4132 C.2       1 RES1    0.0000
      6 O4         4.1731    7.4396    1.1667 O.2       1 RES1    0.0000
      7 C2         2.5631    0.7761    3.0829 C.ar      1 RES1    0.0000
      8 C3         4.0239    0.7996    2.9249 C.2       1 RES1    0.0000
      9 N2         4.7070    0.3652    1.9397 N.2       1 RES1    0.0000
     10 N3         3.8370    6.4574    0.5117 N.pl3     1 RES1    0.0000
     11 C4         6.0428    1.3754    3.6027 C.2       1 RES1    0.0000
     12 O5         2.8948    6.4647   -0.2835 O.2       1 RES1    0.0000
     13 C5         6.1190    0.6906    2.2519 C.3       1 RES1    0.0000
     14 C6         6.7711    2.3738    5.6135 C.3       1 RES1    0.0000
     15 H1         5.8064    2.4445    5.7748 H         1 RES1    0.0000
     16 C7         1.7644    0.6185    1.9456 C.ar      1 RES1    0.0000
     17 H2         2.1542    0.4918    1.1097 H         1 RES1    0.0000
     18 C8         6.0164    2.8554    0.9809 C.ar      1 RES1    0.0000
     19 C9         4.5885    5.2248    0.6730 C.ar      1 RES1    0.0000
     20 C10        6.4026    4.0114    1.6474 C.ar      1 RES1    0.0000
     21 H3         7.1524    3.9922    2.1965 H         1 RES1    0.0000
     22 C11        6.7442    1.5639    1.1602 C.3       1 RES1    0.0000
     23 H4         7.6687    1.7494    1.3899 H         1 RES1    0.0000
     24 H5         6.7392    1.0765    0.3210 H         1 RES1    0.0000
     25 C12        0.3638    0.6538    2.0825 C.ar      1 RES1    0.0000
     26 H6        -0.1807    0.5463    1.3362 H         1 RES1    0.0000
     27 C13        1.9768    0.9704    4.3311 C.ar      1 RES1    0.0000
     28 H7         2.5132    1.0809    5.0839 H         1 RES1    0.0000
     29 C14        4.1708    4.0879   -0.0114 C.ar      1 RES1    0.0000
     30 H8         3.4214    4.1100   -0.5622 H         1 RES1    0.0000
     31 C15       -0.2051    0.8497    3.3355 C.ar      1 RES1    0.0000
     32 H9        -1.1300    0.8806    3.4251 H         1 RES1    0.0000
     33 C16        4.9031    2.9202    0.1515 C.ar      1 RES1    0.0000
     34 H10        4.6403    2.1559   -0.3096 H         1 RES1    0.0000
     35 C17        5.6846    5.2071    1.5040 C.ar      1 RES1    0.0000
     36 H11        5.9427    5.9743    1.9635 H         1 RES1    0.0000
     37 C18        0.6028    0.9984    4.4549 C.ar      1 RES1    0.0000
     38 H12        0.2156    1.1177    5.2925 H         1 RES1    0.0000
     39 C19        7.3823    1.4564    6.6335 C.3       1 RES1    0.0000
     40 H13        8.3142    1.3091    6.4103 H         1 RES1    0.0000
     41 H14        6.9295    0.5993    6.6026 H         1 RES1    0.0000
     42 C20        7.0922   -2.5078    3.9351 C.3       1 RES1    0.0000
     43 H15        7.1434   -3.1278    3.1791 H         1 RES1    0.0000
     44 C21        8.4761   -2.2251    4.4794 C.3       1 RES1    0.0000
     45 H16        9.0156   -1.8260    3.7918 H         1 RES1    0.0000
     46 H17        8.8815   -3.0468    4.7662 H         1 RES1    0.0000
     47 H18        8.4113   -1.6228    5.2241 H         1 RES1    0.0000
     48 C22        6.1877   -3.0630    5.0106 C.3       1 RES1    0.0000
     49 H19        6.1059   -2.4254    5.7227 H         1 RES1    0.0000
     50 H20        6.5620   -3.8788    5.3528 H         1 RES1    0.0000
     51 H21        5.3204   -3.2412    4.6391 H         1 RES1    0.0000
     52 C23        7.4013    3.7640    5.7047 C.3       1 RES1    0.0000
     53 H22        6.9446    4.3692    5.1002 H         1 RES1    0.0000
     54 H23        8.3330    3.7168    5.4375 H         1 RES1    0.0000
     55 C24        7.2929    2.0160    8.0463 C.3       1 RES1    0.0000
     56 H24        6.3637    2.0351    8.3233 H         1 RES1    0.0000
     57 H25        7.7711    1.4269    8.6524 H         1 RES1    0.0000
     58 C25        7.8667    3.4002    8.1489 C.3       1 RES1    0.0000
     59 H26        7.6999    3.7478    9.0386 H         1 RES1    0.0000
     60 H27        8.8277    3.3561    8.0235 H         1 RES1    0.0000
     61 C26        7.3022    4.3103    7.1713 C.3       1 RES1    0.0000
     62 H28        7.7679    5.1600    7.2234 H         1 RES1    0.0000
     63 H29        6.3704    4.4679    7.3863 H         1 RES1    0.0000
@<TRIPOS>BOND
     1    1    8 1
     2    2    5 1
     3    3   11 2
     4    4    5 2
     5    5   13 1
     6    6   10 2
     7    7    8 1
     8    8    9 2
     9    9   13 1
    10   10   12 2
    11   11    1 1
    12   13   11 1
    13   14    3 1
    14   15   14 1
    15   16    7 ar
    16   17   16 1
    17   18   20 ar
    18   19   10 1
    19   20   21 1
    20   22   13 1
    21   23   22 1
    22   24   22 1
    23   25   16 ar
    24   26   25 1
    25   27    7 ar
    26   28   27 1
    27   29   19 ar
    28   30   29 1
    29   31   25 ar
    30   32   31 1
    31   33   18 ar
    32   34   33 1
    33   35   19 ar
    34   36   35 1
    35   37   27 ar
    36   38   37 1
    37   39   14 1
    38   40   39 1
    39   41   39 1
    40   42    2 1
    41   43   42 1
    42   44   42 1
    43   45   44 1
    44   46   44 1
    45   47   44 1
    46   48   42 1
    47   49   48 1
    48   50   48 1
    49   51   48 1
    50   52   14 1
    51   53   52 1
    52   54   52 1
    53   55   39 1
    54   56   55 1
    55   57   55 1
    56   58   55 1
    57   59   58 1
    58   60   58 1
    59   61   52 1
    60   62   61 1
    61   63   61 1
    62   18   22 1
    63   20   35 ar
    64   29   33 ar
    65   31   37 ar
    66   58   61 1
@<TRIPOS>SUBSTRUCTURE
     1 RES1 1

@<TRIPOS>CRYSIN
  10.4400   14.7260   16.9170  90.0000 105.5900  90.0000  14 1

