# MOL2 file generated by ConQuest
# Please check atom types

@<TRIPOS>MOLECULE
CECCIY
    33    36     1
SMALL
NO_CHARGES
****
Generated from CSD

@<TRIPOS>ATOM
      1 O1         2.4332    6.4486    8.1755 O.2       1 RES1    0.0000
      2 O2         3.2634    5.1383    9.6897 O.2       1 RES1    0.0000
      3 N1         3.2633    5.6365    8.5630 N.pl3     1 RES1    0.0000
      4 N2         3.8709    5.3757    3.5814 N.pl3     1 RES1    0.0000
      5 H1         3.7837    5.4029    2.7100 H         1 RES1    0.0000
      6 C1         4.3663    5.2843    7.6590 C.ar      1 RES1    0.0000
      7 C2         5.6249    5.3062    8.2468 C.ar      1 RES1    0.0000
      8 H2         5.7203    5.4206    9.1853 H         1 RES1    0.0000
      9 C3         6.7384    5.1571    7.4336 C.ar      1 RES1    0.0000
     10 H3         7.6084    5.1302    7.8132 H         1 RES1    0.0000
     11 C4         6.5711    5.0480    6.0633 C.ar      1 RES1    0.0000
     12 H4         7.3359    5.0160    5.5011 H         1 RES1    0.0000
     13 C5         5.3073    4.9850    5.4989 C.ar      1 RES1    0.0000
     14 C6         5.1484    4.8164    4.0121 C.3       1 RES1    0.0000
     15 H5         5.8890    5.2769    3.5437 H         1 RES1    0.0000
     16 H6         5.1868    3.8550    3.7796 H         1 RES1    0.0000
     17 C7         2.7552    4.9425    4.2772 C.ar      1 RES1    0.0000
     18 C8         1.5123    4.7093    3.5960 C.ar      1 RES1    0.0000
     19 C9         1.3427    4.9730    2.2121 C.ar      1 RES1    0.0000
     20 H7         2.0471    5.3786    1.7215 H         1 RES1    0.0000
     21 C10        0.1716    4.6482    1.5769 C.ar      1 RES1    0.0000
     22 H8         0.0687    4.8405    0.6518 H         1 RES1    0.0000
     23 C11       -0.8784    4.0319    2.2802 C.ar      1 RES1    0.0000
     24 H9        -1.6757    3.7880    1.8259 H         1 RES1    0.0000
     25 C12       -0.7509    3.7853    3.6165 C.ar      1 RES1    0.0000
     26 H10       -1.4672    3.3708    4.0839 H         1 RES1    0.0000
     27 C13        0.4290    4.1350    4.3215 C.ar      1 RES1    0.0000
     28 C14        0.5802    3.8811    5.7121 C.ar      1 RES1    0.0000
     29 H11       -0.1339    3.4865    6.1997 H         1 RES1    0.0000
     30 C15        1.7401    4.1993    6.3519 C.ar      1 RES1    0.0000
     31 H12        1.8098    4.0474    7.2874 H         1 RES1    0.0000
     32 C16        2.8487    4.7527    5.6549 C.ar      1 RES1    0.0000
     33 C17        4.1471    5.0376    6.2986 C.ar      1 RES1    0.0000
@<TRIPOS>BOND
     1    1    3 2
     2    2    3 2
     3    3    6 1
     4    4    5 1
     5    6    7 ar
     6    7    8 1
     7    9    7 ar
     8   10    9 1
     9   11    9 ar
    10   12   11 1
    11   13   11 ar
    12   14    4 1
    13   15   14 1
    14   16   14 1
    15   17    4 1
    16   18   17 ar
    17   19   18 ar
    18   20   19 1
    19   21   19 ar
    20   22   21 1
    21   23   21 ar
    22   24   23 1
    23   25   23 ar
    24   26   25 1
    25   27   18 ar
    26   28   27 ar
    27   29   28 1
    28   30   28 ar
    29   31   30 1
    30   32   17 ar
    31   33    6 ar
    32   13   14 1
    33   13   33 ar
    34   25   27 ar
    35   30   32 ar
    36   32   33 1
@<TRIPOS>SUBSTRUCTURE
     1 RES1 1

@<TRIPOS>CRYSIN
   9.7183    7.3710   18.1991  90.0000  98.3360  90.0000  14 1

