# MOL2 file generated by ConQuest
# Please check atom types

@<TRIPOS>MOLECULE
CECCOE
    34    34     2
SMALL
NO_CHARGES
****
Generated from CSD

@<TRIPOS>ATOM
      1 O1         3.7268    5.9614   11.5946 O.2       1 RES1    0.0000
      2 O2         1.7704    6.8162   11.2221 O.2       1 RES1    0.0000
      3 N1         2.9572    6.8385   11.0810 N.pl3     1 RES1    0.0000
      4 N2         6.4084    6.7386    7.1039 N.ar      1 RES1    0.0000
      5 C1         3.6105    7.7597   10.1350 C.ar      1 RES1    0.0000
      6 C2         3.4331    9.0752   10.4695 C.ar      1 RES1    0.0000
      7 H1         2.8079    9.3190   11.1411 H         1 RES1    0.0000
      8 C3         4.1829   10.0605    9.8110 C.ar      1 RES1    0.0000
      9 H2         4.0404   10.9794   10.0036 H         1 RES1    0.0000
     10 C4         5.1180    9.6870    8.8917 C.ar      1 RES1    0.0000
     11 H3         5.6742   10.3469    8.4948 H         1 RES1    0.0000
     12 C5         5.2712    8.3333    8.5229 C.ar      1 RES1    0.0000
     13 C6         6.2317    7.9503    7.5414 C.ar      1 RES1    0.0000
     14 H4         6.7846    8.6323    7.1794 H         1 RES1    0.0000
     15 C7         5.5770    5.7484    7.5917 C.ar      1 RES1    0.0000
     16 C8         5.7515    4.4272    7.0391 C.ar      1 RES1    0.0000
     17 C9         6.7583    4.1382    6.0840 C.ar      1 RES1    0.0000
     18 H5         7.3483    4.8252    5.7961 H         1 RES1    0.0000
     19 C10        6.8850    2.8710    5.5732 C.ar      1 RES1    0.0000
     20 H6         7.5579    2.6915    4.9279 H         1 RES1    0.0000
     21 C11        6.0309    1.8328    5.9929 C.ar      1 RES1    0.0000
     22 H7         6.1328    0.9575    5.6379 H         1 RES1    0.0000
     23 C12        5.0566    2.0911    6.9126 C.ar      1 RES1    0.0000
     24 H8         4.4753    1.3918    7.1886 H         1 RES1    0.0000
     25 C13        4.9014    3.3836    7.4590 C.ar      1 RES1    0.0000
     26 C14        3.8674    3.6715    8.3921 C.ar      1 RES1    0.0000
     27 H9         3.2765    2.9764    8.6569 H         1 RES1    0.0000
     28 C15        3.7050    4.9107    8.9120 C.ar      1 RES1    0.0000
     29 H10        2.9926    5.0689    9.5212 H         1 RES1    0.0000
     30 C16        4.5822    5.9881    8.5651 C.ar      1 RES1    0.0000
     31 C17        4.4764    7.3224    9.0998 C.ar      1 RES1    0.0000
     32 N3         2.9073    6.7358   10.9110 Du        2 SUP2    0.0000
     33 O3         1.6248    6.8539   10.8574 Du        2 SUP2    0.0000
     34 O4         3.4872    6.1423   11.7517 Du        2 SUP2    0.0000
@<TRIPOS>BOND
     1    1    3 2
     2    2    3 2
     3    3    5 1
     4    4   13 ar
     5    5    6 ar
     6    6    7 1
     7    8    6 ar
     8    9    8 1
     9   10    8 ar
    10   11   10 1
    11   12   10 ar
    12   13   12 ar
    13   14   13 1
    14   15    4 ar
    15   16   15 ar
    16   17   16 ar
    17   18   17 1
    18   19   17 ar
    19   20   19 1
    20   21   19 ar
    21   22   21 1
    22   23   21 ar
    23   24   23 1
    24   25   16 ar
    25   26   25 ar
    26   27   26 1
    27   28   26 ar
    28   29   28 1
    29   30   15 ar
    30   31    5 ar
    31   12   31 ar
    32   23   25 ar
    33   28   30 ar
    34   30   31 ar
@<TRIPOS>SUBSTRUCTURE
     1 RES1 1
     2 SUP2 32

@<TRIPOS>CRYSIN
   8.7715   10.8310   13.1005  90.0000  93.5810  90.0000 231 1

