# MOL2 file generated by ConQuest
# Please check atom types

@<TRIPOS>MOLECULE
CEDMUV
    22    23     1
SMALL
NO_CHARGES
****
Generated from CSD

@<TRIPOS>ATOM
      1 O1         2.7152   -0.2173    6.7292 O.2       1 RES1    0.0000
      2 O2         1.0761    0.0153    5.3480 O.2       1 RES1    0.0000
      3 N1         4.8923    3.1885    0.6152 N.pl3     1 RES1    0.0000
      4 H1         4.8384    2.3239    0.6031 H         1 RES1    0.0000
      5 N2         4.7326    3.6058   -0.6631 N.2       1 RES1    0.0000
      6 N3         4.7057    4.8937   -0.6555 N.2       1 RES1    0.0000
      7 N4         4.8432    5.3248    0.6225 N.2       1 RES1    0.0000
      8 N5         2.1903    0.3057    5.7549 N.pl3     1 RES1    0.0000
      9 C1         4.9592    4.2566    1.3893 C.2       1 RES1    0.0000
     10 C2         5.1778    4.2670    2.8604 C.3       1 RES1    0.0000
     11 H2         4.9556    5.1480    3.1986 H         1 RES1    0.0000
     12 H3         6.1209    4.1169    3.0323 H         1 RES1    0.0000
     13 C3         4.3762    3.2369    3.6315 C.ar      1 RES1    0.0000
     14 C4         4.9023    2.6656    4.7832 C.ar      1 RES1    0.0000
     15 H4         5.7467    2.9224    5.0783 H         1 RES1    0.0000
     16 C5         4.1900    1.7209    5.5008 C.ar      1 RES1    0.0000
     17 H5         4.5451    1.3407    6.2704 H         1 RES1    0.0000
     18 C6         2.9393    1.3565    5.0439 C.ar      1 RES1    0.0000
     19 C7         2.3807    1.9086    3.9167 C.ar      1 RES1    0.0000
     20 H6         1.5353    1.6478    3.6298 H         1 RES1    0.0000
     21 C8         3.1010    2.8592    3.2183 C.ar      1 RES1    0.0000
     22 H7         2.7290    3.2517    2.4631 H         1 RES1    0.0000
@<TRIPOS>BOND
     1    1    8 2
     2    2    8 2
     3    3    4 1
     4    5    3 1
     5    6    5 2
     6    7    6 1
     7    8   18 1
     8    9    3 1
     9   10    9 1
    10   11   10 1
    11   12   10 1
    12   13   10 1
    13   14   13 ar
    14   15   14 1
    15   16   14 ar
    16   17   16 1
    17   18   16 ar
    18   19   18 ar
    19   20   19 1
    20   21   13 ar
    21   22   21 1
    22    7    9 2
    23   19   21 ar
@<TRIPOS>SUBSTRUCTURE
     1 RES1 1

@<TRIPOS>CRYSIN
   6.3393    4.9381   28.8010  90.0000 101.9050  90.0000  14 1

