# MOL2 file generated by ConQuest
# Please check atom types

@<TRIPOS>MOLECULE
CEDQAF
    32    33     1
SMALL
NO_CHARGES
****
Generated from CSD

@<TRIPOS>ATOM
      1 N1        -3.9894    2.7215   13.6242 N.2       1 RES1    0.0000
      2 N2        -3.0852    3.2521   14.5262 N.am      1 RES1    0.0000
      3 N3         1.5830    6.0985   17.9847 N.pl3     1 RES1    0.0000
      4 O1        -7.1585    1.2434    9.9445 O.3       1 RES1    0.0000
      5 H1        -7.7690    0.7981    9.5693 H         1 RES1    0.0000
      6 O2        -2.1874    4.6726   13.0070 O.2       1 RES1    0.0000
      7 O3         2.3690    6.9342   17.6060 O.2       1 RES1    0.0000
      8 O4         1.5844    5.6358   19.1063 O.2       1 RES1    0.0000
      9 C1        -5.7672    1.1468   13.2969 C.ar      1 RES1    0.0000
     10 C2        -5.9783    1.4910   11.9687 C.ar      1 RES1    0.0000
     11 H2        -5.4638    2.1566   11.5735 H         1 RES1    0.0000
     12 C3        -6.9558    0.8420   11.2330 C.ar      1 RES1    0.0000
     13 C4        -7.7167   -0.1596   11.8104 C.ar      1 RES1    0.0000
     14 H3        -8.3615   -0.6053   11.3099 H         1 RES1    0.0000
     15 C5        -7.5115   -0.4896   13.1263 C.ar      1 RES1    0.0000
     16 H4        -8.0291   -1.1567   13.5169 H         1 RES1    0.0000
     17 C6        -6.5463    0.1533   13.8801 C.ar      1 RES1    0.0000
     18 H5        -6.4190   -0.0771   14.7724 H         1 RES1    0.0000
     19 C7        -4.7626    1.8304   14.1105 C.2       1 RES1    0.0000
     20 H6        -4.6850    1.6087   15.0099 H         1 RES1    0.0000
     21 C8        -2.2132    4.2028   14.1423 C.2       1 RES1    0.0000
     22 C9        -1.2418    4.6708   15.1869 C.ar      1 RES1    0.0000
     23 C10       -0.4280    5.7442   14.8660 C.ar      1 RES1    0.0000
     24 H7        -0.5009    6.1469   14.0310 H         1 RES1    0.0000
     25 C11        0.4942    6.2204   15.7850 C.ar      1 RES1    0.0000
     26 H8         1.0420    6.9423   15.5761 H         1 RES1    0.0000
     27 C12        0.5835    5.6044   17.0099 C.ar      1 RES1    0.0000
     28 C13       -0.2054    4.5440   17.3605 C.ar      1 RES1    0.0000
     29 H9        -0.1259    4.1463   18.1973 H         1 RES1    0.0000
     30 C14       -1.1232    4.0780   16.4381 C.ar      1 RES1    0.0000
     31 H10       -1.6685    3.3581   16.6579 H         1 RES1    0.0000
     32 H11       -3.1915    3.0577   15.4082 H         1 RES1    0.0000
@<TRIPOS>BOND
     1    1    2 1
     2    2   21 1
     3    3    7 2
     4    4    5 1
     5    6   21 2
     6    8    3 2
     7    9   10 ar
     8   10   11 1
     9   12    4 1
    10   13   12 ar
    11   14   13 1
    12   15   13 ar
    13   16   15 1
    14   17    9 ar
    15   18   17 1
    16   19    1 2
    17   20   19 1
    18   21   22 1
    19   22   23 ar
    20   23   24 1
    21   25   23 ar
    22   26   25 1
    23   27    3 1
    24   28   27 ar
    25   29   28 1
    26   30   22 ar
    27   31   30 1
    28   32    2 1
    29    9   19 1
    30   10   12 ar
    31   15   17 ar
    32   25   27 ar
    33   28   30 ar
@<TRIPOS>SUBSTRUCTURE
     1 RES1 1

@<TRIPOS>CRYSIN
   9.9870    8.9670   15.1080  90.0000 106.5600  90.0000 231 1

