# MOL2 file generated by ConQuest
# Please check atom types

@<TRIPOS>MOLECULE
CEDVAK
    40    42     1
SMALL
NO_CHARGES
****
Generated from CSD

@<TRIPOS>ATOM
      1 N1        -2.2307    6.0495   10.5784 N.2       1 RES1    0.0000
      2 O1        -2.1856    5.1456   11.6584 O.3       1 RES1    0.0000
      3 C1        -0.9084    4.7183   11.8081 C.2       1 RES1    0.0000
      4 C2        -0.1178    5.3078   10.8762 C.2       1 RES1    0.0000
      5 C3         1.3477    5.1694   10.5711 C.3       1 RES1    0.0000
      6 H1         1.4861    4.2998   10.1413 H         1 RES1    0.0000
      7 C4         1.7457    6.2743    9.5570 C.3       1 RES1    0.0000
      8 H2         1.7009    7.1250   10.0403 H         1 RES1    0.0000
      9 C5         0.7149    6.3711    8.3939 C.3       1 RES1    0.0000
     10 O2         0.5067    5.0367    7.9376 O.3       1 RES1    0.0000
     11 H3        -0.0316    5.0404    7.3192 H         1 RES1    0.0000
     12 C6        -0.5905    6.9391    8.9662 C.3       1 RES1    0.0000
     13 H4        -0.4579    7.8607    9.2364 H         1 RES1    0.0000
     14 H5        -1.2849    6.9175    8.2879 H         1 RES1    0.0000
     15 C7        -1.0032    6.1226   10.1379 C.2       1 RES1    0.0000
     16 C8        -0.6757    3.7358   12.8836 C.3       1 RES1    0.0000
     17 H6        -1.5013    3.5614   13.3417 H         1 RES1    0.0000
     18 H7        -0.0335    4.0873   13.5049 H         1 RES1    0.0000
     19 H8        -0.3409    2.9199   12.5042 H         1 RES1    0.0000
     20 C9         2.2091    5.2170   11.8269 C.ar      1 RES1    0.0000
     21 C10        2.0617    6.2477   12.7359 C.ar      1 RES1    0.0000
     22 H9         1.4548    6.9307   12.5597 H         1 RES1    0.0000
     23 C11        2.8016    6.2798   13.9063 C.ar      1 RES1    0.0000
     24 H10        2.6833    6.9745   14.5139 H         1 RES1    0.0000
     25 C12        3.7099    5.2857   14.1682 C.ar      1 RES1    0.0000
     26 H11        4.2000    5.2995   14.9579 H         1 RES1    0.0000
     27 C13        3.8929    4.2727   13.2650 C.ar      1 RES1    0.0000
     28 H12        4.5225    3.6090   13.4325 H         1 RES1    0.0000
     29 C14        3.1370    4.2351   12.0975 C.ar      1 RES1    0.0000
     30 H13        3.2597    3.5393   11.4934 H         1 RES1    0.0000
     31 C15        3.1781    6.1287    9.0696 C.2       1 RES1    0.0000
     32 O3         3.9241    7.0736    9.1801 O.2       1 RES1    0.0000
     33 C16        3.6322    4.8628    8.4373 C.3       1 RES1    0.0000
     34 H14        4.5564    4.9419    8.1904 H         1 RES1    0.0000
     35 H15        3.1055    4.6895    7.6539 H         1 RES1    0.0000
     36 H16        3.5272    4.1387    9.0599 H         1 RES1    0.0000
     37 C17        1.1977    7.2590    7.2578 C.3       1 RES1    0.0000
     38 H17        0.5316    7.2861    6.5674 H         1 RES1    0.0000
     39 H18        2.0152    6.9047    6.9004 H         1 RES1    0.0000
     40 H19        1.3510    8.1469    7.5883 H         1 RES1    0.0000
@<TRIPOS>BOND
     1    1    2 1
     2    2    3 1
     3    3    4 2
     4    4    5 1
     5    5    6 1
     6    7    5 1
     7    8    7 1
     8    9    7 1
     9   10    9 1
    10   11   10 1
    11   12    9 1
    12   13   12 1
    13   14   12 1
    14   15    1 2
    15   16    3 1
    16   17   16 1
    17   18   16 1
    18   19   16 1
    19   20    5 1
    20   21   20 ar
    21   22   21 1
    22   23   21 ar
    23   24   23 1
    24   25   23 ar
    25   26   25 1
    26   27   25 ar
    27   28   27 1
    28   29   20 ar
    29   30   29 1
    30   31    7 1
    31   32   31 2
    32   33   31 1
    33   34   33 1
    34   35   33 1
    35   36   33 1
    36   37    9 1
    37   38   37 1
    38   39   37 1
    39   40   37 1
    40    4   15 1
    41   12   15 1
    42   27   29 ar
@<TRIPOS>SUBSTRUCTURE
     1 RES1 1

@<TRIPOS>CRYSIN
  16.1518    5.5353   17.2956  90.0000 103.4960  90.0000  14 1

