# MOL2 file generated by ConQuest
# Please check atom types

@<TRIPOS>MOLECULE
CEDVEO
    25    26     1
SMALL
NO_CHARGES
****
Generated from CSD

@<TRIPOS>ATOM
      1 O1        -6.9213    2.0015   14.9628 O.3       1 RES1    0.0000
      2 O2       -10.1880    2.5648   15.9361 O.2       1 RES1    0.0000
      3 O3        -8.4994    1.7018   17.0189 O.2       1 RES1    0.0000
      4 O4        -2.0906    0.2863   14.0745 O.2       1 RES1    0.0000
      5 N1        -9.0068    2.2296   16.0308 N.pl3     1 RES1    0.0000
      6 C1        -8.1817    2.4715   14.8883 C.2       1 RES1    0.0000
      7 C2        -8.4839    3.0268   13.6857 C.2       1 RES1    0.0000
      8 H1        -9.2881    3.4130   13.4244 H         1 RES1    0.0000
      9 C3        -7.2980    2.8857   12.9166 C.2       1 RES1    0.0000
     10 H2        -7.1679    3.1648   12.0394 H         1 RES1    0.0000
     11 C4        -6.3831    2.2585   13.7207 C.2       1 RES1    0.0000
     12 C5        -5.0586    1.8362   13.5015 C.1       1 RES1    0.0000
     13 C6        -3.9252    1.4609   13.3048 C.1       1 RES1    0.0000
     14 C7        -2.5504    1.0062   13.1924 C.2       1 RES1    0.0000
     15 C8        -1.7579    1.4558   12.0300 C.ar      1 RES1    0.0000
     16 C9        -2.3419    2.1733   10.9807 C.ar      1 RES1    0.0000
     17 H3        -3.2514    2.3654   10.9925 H         1 RES1    0.0000
     18 C10       -1.5493    2.5973    9.9184 C.ar      1 RES1    0.0000
     19 H4        -1.9291    3.0765    9.2182 H         1 RES1    0.0000
     20 C11       -0.1878    2.3052    9.9040 C.ar      1 RES1    0.0000
     21 H5         0.3392    2.5983    9.1968 H         1 RES1    0.0000
     22 C12        0.3911    1.5761   10.9432 C.ar      1 RES1    0.0000
     23 H6         1.2998    1.3769   10.9226 H         1 RES1    0.0000
     24 C13       -0.3914    1.1482   12.0068 C.ar      1 RES1    0.0000
     25 H7        -0.0100    0.6600   12.6998 H         1 RES1    0.0000
@<TRIPOS>BOND
     1    1    6 1
     2    2    5 2
     3    3    5 2
     4    4   14 2
     5    5    6 1
     6    6    7 2
     7    7    8 1
     8    9    7 1
     9   10    9 1
    10   11    1 1
    11   12   11 1
    12   13   12 3
    13   14   13 1
    14   15   14 1
    15   16   15 ar
    16   17   16 1
    17   18   16 ar
    18   19   18 1
    19   20   18 ar
    20   21   20 1
    21   22   20 ar
    22   23   22 1
    23   24   15 ar
    24   25   24 1
    25    9   11 2
    26   22   24 ar
@<TRIPOS>SUBSTRUCTURE
     1 RES1 1

@<TRIPOS>CRYSIN
  10.4685    7.3006   15.2642  90.0000 110.8670  90.0000  14 1

