# MOL2 file generated by ConQuest
# Please check atom types

@<TRIPOS>MOLECULE
CEDWIT
    65    69     1
SMALL
NO_CHARGES
****
Generated from CSD

@<TRIPOS>ATOM
      1 O1         3.5520   15.7044   10.4678 O.3       1 RES1    0.0000
      2 N1         3.4522   14.4093    9.8934 N.2       1 RES1    0.0000
      3 O2         1.9096   16.5134    8.0891 O.2       1 RES1    0.0000
      4 C1         2.2123   16.3317   10.4606 C.3       1 RES1    0.0000
      5 C2         1.2765   15.1104   10.4195 C.3       1 RES1    0.0000
      6 H1         0.5368   15.2817    9.8001 H         1 RES1    0.0000
      7 C3         2.7603   18.4588    9.1346 C.ar      1 RES1    0.0000
      8 C4         1.7963   12.8162    9.2243 C.ar      1 RES1    0.0000
      9 C5         2.5674   19.2593   10.2582 C.ar      1 RES1    0.0000
     10 C6         2.2141   14.0840    9.8253 C.2       1 RES1    0.0000
     11 C7         2.2312   17.0764    9.1174 C.2       1 RES1    0.0000
     12 C8         0.7304   14.6590   11.7565 C.ar      1 RES1    0.0000
     13 C9         1.5622   14.1681   12.7487 C.ar      1 RES1    0.0000
     14 H2         2.4640   14.0397   12.5600 H         1 RES1    0.0000
     15 C10        1.7844   18.7268   11.4280 C.3       1 RES1    0.0000
     16 H3         2.1093   19.2236   12.2072 H         1 RES1    0.0000
     17 C11        2.1911   17.2681   11.6734 C.3       1 RES1    0.0000
     18 H4         3.0771   17.2676   12.0684 H         1 RES1    0.0000
     19 H5         1.5831   16.8932   12.3305 H         1 RES1    0.0000
     20 C12        0.9788   10.4825    7.8801 C.ar      1 RES1    0.0000
     21 O3        -0.8238   13.8049   15.5242 O.3       1 RES1    0.0000
     22 C13        2.7218   11.9113    8.7227 C.ar      1 RES1    0.0000
     23 H6         3.6309   12.0786    8.8310 H         1 RES1    0.0000
     24 C14       -1.0959   14.4728   13.3132 C.ar      1 RES1    0.0000
     25 H7        -2.0040   14.5603   13.4937 H         1 RES1    0.0000
     26 C15       -0.6158   14.7856   12.0586 C.ar      1 RES1    0.0000
     27 H8        -1.2054   15.0859   11.4053 H         1 RES1    0.0000
     28 C16        3.1240   20.5386   10.2519 C.ar      1 RES1    0.0000
     29 H9         3.0121   21.0905   10.9930 H         1 RES1    0.0000
     30 C17        1.0883   13.8616   14.0131 C.ar      1 RES1    0.0000
     31 H10        1.6683   13.5413   14.6654 H         1 RES1    0.0000
     32 C18        3.4637   18.9403    8.0353 C.ar      1 RES1    0.0000
     33 H11        3.5709   18.4030    7.2824 H         1 RES1    0.0000
     34 C19        2.3138   10.7691    8.0677 C.ar      1 RES1    0.0000
     35 H12        2.9546   10.1771    7.7443 H         1 RES1    0.0000
     36 C20       -0.4299   18.3205   10.1809 C.3       1 RES1    0.0000
     37 H13       -0.3195   17.3692   10.2577 H         1 RES1    0.0000
     38 H14       -0.0302   18.6237    9.3623 H         1 RES1    0.0000
     39 H15       -1.3659   18.5344   10.1783 H         1 RES1    0.0000
     40 C21        0.2472   19.0097   11.3639 C.3       1 RES1    0.0000
     41 C22       -0.2447   14.0344   14.2970 C.ar      1 RES1    0.0000
     42 C23        0.4534   12.5135    9.0575 C.ar      1 RES1    0.0000
     43 H16       -0.1925   13.0926    9.3934 H         1 RES1    0.0000
     44 C24        0.0616   11.3651    8.3987 C.ar      1 RES1    0.0000
     45 H17       -0.8457   11.1836    8.3039 H         1 RES1    0.0000
     46 C25        4.0015   20.2047    8.0562 C.ar      1 RES1    0.0000
     47 H18        4.4757   20.5227    7.3221 H         1 RES1    0.0000
     48 C26        0.0315   20.5220   11.2354 C.3       1 RES1    0.0000
     49 H19       -0.9067   20.7161   11.2877 H         1 RES1    0.0000
     50 H20        0.3750   20.8227   10.3909 H         1 RES1    0.0000
     51 H21        0.4918   20.9715   11.9479 H         1 RES1    0.0000
     52 C27        3.8353   20.9968    9.1663 C.ar      1 RES1    0.0000
     53 H22        4.2064   21.8491    9.1852 H         1 RES1    0.0000
     54 C28       -0.4053   18.5481   12.6621 C.3       1 RES1    0.0000
     55 H23       -1.3360   18.7823   12.6535 H         1 RES1    0.0000
     56 H24        0.0263   18.9732   13.4058 H         1 RES1    0.0000
     57 H25       -0.3168   17.5948   12.7442 H         1 RES1    0.0000
     58 C29        0.0145   13.3832   16.5841 C.3       1 RES1    0.0000
     59 H26        0.4121   12.5373   16.3613 H         1 RES1    0.0000
     60 H27       -0.5050   13.2909   17.3856 H         1 RES1    0.0000
     61 H28        0.7058   14.0347   16.7240 H         1 RES1    0.0000
     62 C30        0.5413    9.2737    7.0959 C.3       1 RES1    0.0000
     63 H29        0.9008    9.3218    6.2070 H         1 RES1    0.0000
     64 H30       -0.4172    9.2499    7.0529 H         1 RES1    0.0000
     65 H31        0.8621    8.4788    7.5289 H         1 RES1    0.0000
@<TRIPOS>BOND
     1    1    2 1
     2    2   10 2
     3    3   11 2
     4    4    1 1
     5    5    4 1
     6    6    5 1
     7    7    9 ar
     8    8   10 1
     9    9   15 1
    10   10    5 1
    11   11    4 1
    12   12    5 1
    13   13   12 ar
    14   14   13 1
    15   15   16 1
    16   17    4 1
    17   18   17 1
    18   19   17 1
    19   20   34 ar
    20   21   41 1
    21   22    8 ar
    22   23   22 1
    23   24   25 1
    24   26   12 ar
    25   27   26 1
    26   28    9 ar
    27   29   28 1
    28   30   13 ar
    29   31   30 1
    30   32    7 ar
    31   33   32 1
    32   34   22 ar
    33   35   34 1
    34   36   37 1
    35   38   36 1
    36   39   36 1
    37   40   15 1
    38   41   24 ar
    39   42    8 ar
    40   43   42 1
    41   44   20 ar
    42   45   44 1
    43   46   32 ar
    44   47   46 1
    45   48   40 1
    46   49   48 1
    47   50   48 1
    48   51   48 1
    49   52   28 ar
    50   53   52 1
    51   54   40 1
    52   55   54 1
    53   56   54 1
    54   57   54 1
    55   58   21 1
    56   59   58 1
    57   60   58 1
    58   61   58 1
    59   62   20 1
    60   63   62 1
    61   64   62 1
    62   65   62 1
    63    7   11 1
    64   15   17 1
    65   24   26 ar
    66   30   41 ar
    67   36   40 1
    68   42   44 ar
    69   46   52 ar
@<TRIPOS>SUBSTRUCTURE
     1 RES1 1

@<TRIPOS>CRYSIN
   6.9248   24.7919   14.2111  90.0000  94.4600  90.0000  14 1

