# MOL2 file generated by ConQuest
# Please check atom types

@<TRIPOS>MOLECULE
CEFGID
    41    42     1
SMALL
NO_CHARGES
****
Generated from CSD

@<TRIPOS>ATOM
      1 C1         2.8396    0.1791   12.9100 C.ar      1 RES1    0.0000
      2 C2         2.4690   -1.0138   12.3464 C.ar      1 RES1    0.0000
      3 C3         2.0188   -1.0435   11.0567 C.ar      1 RES1    0.0000
      4 C4         1.9389    0.1213   10.3223 C.ar      1 RES1    0.0000
      5 C5         2.2936    1.3270   10.9171 C.ar      1 RES1    0.0000
      6 C6         2.7493    1.3485   12.2055 C.ar      1 RES1    0.0000
      7 C7         1.3271    0.9751    8.0761 C.2       1 RES1    0.0000
      8 C8         0.8743    0.4827    6.7145 C.3       1 RES1    0.0000
      9 C9         2.1003    0.1950    5.8474 C.3       1 RES1    0.0000
     10 C10        1.7106   -0.3309    4.4966 C.ar      1 RES1    0.0000
     11 C11        1.4205   -1.6823    4.3327 C.ar      1 RES1    0.0000
     12 C12        1.0064   -2.1778    3.1703 C.ar      1 RES1    0.0000
     13 C13        0.8270   -1.3717    2.1027 C.ar      1 RES1    0.0000
     14 C14        1.1043    0.0111    2.2043 C.ar      1 RES1    0.0000
     15 C15        1.5649    0.5251    3.4304 C.ar      1 RES1    0.0000
     16 C16       -1.1305    1.1883    5.5100 C.2       1 RES1    0.0000
     17 C17       -1.7964    2.3390    4.7784 C.3       1 RES1    0.0000
     18 N1         3.3920    0.1981   14.2608 N.pl3     1 RES1    0.0000
     19 N2         1.4769    0.0022    9.0028 N.am      1 RES1    0.0000
     20 N3         0.0263    1.4833    6.1021 N.am      1 RES1    0.0000
     21 O1         3.6772    1.2447   14.7634 O.2       1 RES1    0.0000
     22 O2         3.5938   -0.8418   14.8163 O.2       1 RES1    0.0000
     23 O3         1.5655    2.1589    8.2861 O.2       1 RES1    0.0000
     24 O4        -1.6533    0.0897    5.5575 O.2       1 RES1    0.0000
     25 H1         2.4731   -1.7021   12.8708 H         1 RES1    0.0000
     26 H2         1.8109   -1.9170   10.6082 H         1 RES1    0.0000
     27 H3         2.2230    2.1531   10.4185 H         1 RES1    0.0000
     28 H4         3.0367    2.1759   12.7082 H         1 RES1    0.0000
     29 H5         0.3722   -0.2642    6.7876 H         1 RES1    0.0000
     30 H6         2.6090    1.0824    5.8257 H         1 RES1    0.0000
     31 H7         2.5515   -0.3829    6.3405 H         1 RES1    0.0000
     32 H8         1.5822   -2.2961    5.1483 H         1 RES1    0.0000
     33 H9         0.8135   -3.1220    3.0619 H         1 RES1    0.0000
     34 H10        0.5854   -1.7252    1.3006 H         1 RES1    0.0000
     35 H11        1.1323    0.6266    1.5716 H         1 RES1    0.0000
     36 H12        1.8762    1.3671    3.4819 H         1 RES1    0.0000
     37 H13       -2.7295    2.3226    4.9315 H         1 RES1    0.0000
     38 H14       -1.4470    3.1571    5.0535 H         1 RES1    0.0000
     39 H15       -1.7395    2.2442    3.9154 H         1 RES1    0.0000
     40 H16        1.2940   -0.8061    8.6979 H         1 RES1    0.0000
     41 H17        0.3392    2.2674    6.0696 H         1 RES1    0.0000
@<TRIPOS>BOND
     1    1    2 ar
     2    2    3 ar
     3    3    4 ar
     4    4    5 ar
     5    5    6 ar
     6    6    1 ar
     7    7    8 1
     8    8    9 1
     9    9   10 1
    10   10   11 ar
    11   11   12 ar
    12   12   13 ar
    13   13   14 ar
    14   14   15 ar
    15   15   10 ar
    16   16   17 1
    17   17   37 1
    18   18    1 1
    19   19    4 1
    20   20    8 1
    21   21   18 2
    22   22   18 2
    23   23    7 2
    24   24   16 2
    25   25    2 1
    26   26    3 1
    27   27    5 1
    28   28    6 1
    29   29    8 1
    30   30    9 1
    31   31    9 1
    32   32   11 1
    33   33   12 1
    34   34   13 1
    35   35   14 1
    36   36   15 1
    37   38   17 1
    38   39   17 1
    39   40   19 1
    40   41   20 1
    41    7   19 1
    42   16   20 1
@<TRIPOS>SUBSTRUCTURE
     1 RES1 1

@<TRIPOS>CRYSIN
   7.2190    9.1220   13.8050  99.0700  92.5500 111.4100   2 1

