# MOL2 file generated by ConQuest
# Please check atom types

@<TRIPOS>MOLECULE
CEFNEI
    44    46     1
SMALL
NO_CHARGES
****
Generated from CSD

@<TRIPOS>ATOM
      1 C1         1.4496    3.1360    3.3754 C.3       1 RES1    0.0000
      2 H1         0.7206    3.6356    3.7975 H         1 RES1    0.0000
      3 C2         0.9014    1.7668    3.0507 C.2       1 RES1    0.0000
      4 C3        -0.2559    1.7632    2.0888 C.3       1 RES1    0.0000
      5 H2        -1.0217    2.1926    2.5016 H         1 RES1    0.0000
      6 H3        -0.5002    0.8480    1.8804 H         1 RES1    0.0000
      7 C4         0.1078    2.4949    0.8066 C.3       1 RES1    0.0000
      8 H4         0.8013    2.0031    0.3412 H         1 RES1    0.0000
      9 H5        -0.6702    2.5369    0.2280 H         1 RES1    0.0000
     10 C5         0.5882    3.8815    1.0926 C.3       1 RES1    0.0000
     11 H6        -0.1342    4.3985    1.4826 H         1 RES1    0.0000
     12 H7         0.8498    4.3085    0.2632 H         1 RES1    0.0000
     13 C6         1.7731    3.8659    2.0501 C.3       1 RES1    0.0000
     14 H8         2.0357    4.7787    2.2461 H         1 RES1    0.0000
     15 H9         2.5233    3.4257    1.6203 H         1 RES1    0.0000
     16 C7         2.6448    3.1949    4.3499 C.3       1 RES1    0.0000
     17 H10        2.9658    4.1214    4.3453 H         1 RES1    0.0000
     18 C8         2.2545    2.8700    5.8042 C.ar      1 RES1    0.0000
     19 C9         1.8391    3.8084    6.7490 C.ar      1 RES1    0.0000
     20 C10        1.5189    3.4821    8.0696 C.ar      1 RES1    0.0000
     21 H11        1.2585    4.1442    8.6692 H         1 RES1    0.0000
     22 C11        1.5927    2.1770    8.4694 C.ar      1 RES1    0.0000
     23 H12        1.3597    1.9347    9.3363 H         1 RES1    0.0000
     24 C12        2.0179    1.2259    7.5706 C.ar      1 RES1    0.0000
     25 H13        2.0758    0.3371    7.8384 H         1 RES1    0.0000
     26 C13        2.3586    1.5709    6.2785 C.ar      1 RES1    0.0000
     27 H14        2.6696    0.9080    5.7055 H         1 RES1    0.0000
     28 C14        5.0011    2.4307    4.4083 C.ar      1 RES1    0.0000
     29 C15        5.5670    3.6272    4.8334 C.ar      1 RES1    0.0000
     30 H15        5.0889    4.4212    4.7599 H         1 RES1    0.0000
     31 C16        6.8483    3.6332    5.3666 C.ar      1 RES1    0.0000
     32 H16        7.2239    4.4356    5.6504 H         1 RES1    0.0000
     33 C17        7.5710    2.4661    5.4817 C.ar      1 RES1    0.0000
     34 H17        8.4210    2.4745    5.8600 H         1 RES1    0.0000
     35 C18        7.0246    1.2918    5.0311 C.ar      1 RES1    0.0000
     36 H18        7.5191    0.5062    5.0797 H         1 RES1    0.0000
     37 C19        5.7559    1.2642    4.5086 C.ar      1 RES1    0.0000
     38 H19        5.3954    0.4570    4.2183 H         1 RES1    0.0000
     39 N1         3.7261    2.3801    3.8366 N.pl3     1 RES1    0.0000
     40 N2         1.7277    5.2224    6.4060 N.pl3     1 RES1    0.0000
     41 O1         1.3442    0.7477    3.5091 O.2       1 RES1    0.0000
     42 O2         1.2085    5.5238    5.3516 O.2       1 RES1    0.0000
     43 O3         2.1246    6.0511    7.2069 O.2       1 RES1    0.0000
     44 H20        3.4982    1.5953    3.6155 H         1 RES1    0.0000
@<TRIPOS>BOND
     1    1    2 1
     2    3    1 1
     3    4    3 1
     4    5    4 1
     5    6    4 1
     6    7    4 1
     7    8    7 1
     8    9    7 1
     9   10    7 1
    10   11   10 1
    11   12   10 1
    12   13    1 1
    13   14   13 1
    14   15   13 1
    15   16    1 1
    16   17   16 1
    17   18   16 1
    18   19   18 ar
    19   20   19 ar
    20   21   20 1
    21   22   20 ar
    22   23   22 1
    23   24   22 ar
    24   25   24 1
    25   26   18 ar
    26   27   26 1
    27   28   29 ar
    28   29   30 1
    29   31   29 ar
    30   32   31 1
    31   33   31 ar
    32   34   33 1
    33   35   33 ar
    34   36   35 1
    35   37   28 ar
    36   38   37 1
    37   39   16 1
    38   40   19 1
    39   41    3 2
    40   42   40 2
    41   43   40 2
    42   44   39 1
    43   10   13 1
    44   24   26 ar
    45   28   39 1
    46   35   37 ar
@<TRIPOS>SUBSTRUCTURE
     1 RES1 1

@<TRIPOS>CRYSIN
   9.0535   11.9947   17.2267  90.0000 117.3550  90.0000  14 1

