# MOL2 file generated by ConQuest
# Please check atom types

@<TRIPOS>MOLECULE
CEFVUG
    30    28     2
SMALL
NO_CHARGES
****
Generated from CSD

@<TRIPOS>ATOM
      1 O1        12.2625    1.8597    8.9773 O.2       1 RES1    0.0000
      2 O2         9.6833    0.7537   10.1269 Du        2 SUP2    0.0000
      3 H1        10.3150    0.8753   10.6669 Du        2 SUP2    0.0000
      4 O3        11.1667    0.9313   11.0230 O.3       1 RES1    0.0000
      5 H2        11.8000    1.1931   10.5364 H         1 RES1    0.0000
      6 O4        12.0810    1.5680   10.2953 Du        2 SUP2    0.0000
      7 N1        10.0969    0.5897   10.2361 N.2       1 RES1    0.0000
      8 N2        12.3375    1.8710    9.2670 Du        2 SUP2    0.0000
      9 C1        11.2755    1.5195    8.3206 C.2       1 RES1    0.0000
     10 C2        11.2566    1.7366    6.8732 C.ar      1 RES1    0.0000
     11 C3        12.3844    2.3217    6.2761 C.ar      1 RES1    0.0000
     12 H3        13.1280    2.5721    6.8130 H         1 RES1    0.0000
     13 C4        12.4139    2.5327    4.9247 C.ar      1 RES1    0.0000
     14 H4        13.1821    2.9149    4.5182 H         1 RES1    0.0000
     15 C5        11.3151    2.1843    4.1527 C.ar      1 RES1    0.0000
     16 H5        11.3341    2.3358    3.2154 H         1 RES1    0.0000
     17 C6        10.1852    1.6169    4.7316 C.ar      1 RES1    0.0000
     18 H6         9.4355    1.4018    4.1891 H         1 RES1    0.0000
     19 C7        10.1421    1.3605    6.1036 C.ar      1 RES1    0.0000
     20 C8         8.9655    0.7306    6.7456 C.ar      1 RES1    0.0000
     21 C9         7.8667    0.3110    5.9940 C.ar      1 RES1    0.0000
     22 H7         7.8719    0.4314    5.0506 H         1 RES1    0.0000
     23 C10        6.7675   -0.2791    6.5976 C.ar      1 RES1    0.0000
     24 H8         6.0344   -0.5674    6.0668 H         1 RES1    0.0000
     25 C11        6.7328   -0.4507    7.9732 C.ar      1 RES1    0.0000
     26 H9         5.9698   -0.8332    8.3888 H         1 RES1    0.0000
     27 C12        7.8133   -0.0621    8.7301 C.ar      1 RES1    0.0000
     28 H10        7.7934   -0.1894    9.6719 H         1 RES1    0.0000
     29 C13        8.9450    0.5196    8.1384 C.ar      1 RES1    0.0000
     30 C14       10.1026    0.8935    8.9574 C.2       1 RES1    0.0000
@<TRIPOS>BOND
     1    1    9 2
     2    4    5 1
     3    7    4 1
     4    9   10 1
     5   10   11 ar
     6   11   12 1
     7   13   11 ar
     8   14   13 1
     9   15   13 ar
    10   16   15 1
    11   17   15 ar
    12   18   17 1
    13   19   10 ar
    14   20   19 1
    15   21   20 ar
    16   22   21 1
    17   23   21 ar
    18   24   23 1
    19   25   23 ar
    20   26   25 1
    21   27   25 ar
    22   28   27 1
    23   29   20 ar
    24   30    7 2
    25    9   30 1
    26   17   19 ar
    27   27   29 ar
    28   29   30 1
@<TRIPOS>SUBSTRUCTURE
     1 RES1 1
     2 SUP2 2

@<TRIPOS>CRYSIN
  17.4505    3.7875   15.1669  90.0000  90.0000  90.0000  29 1

