# MOL2 file generated by ConQuest
# Please check atom types

@<TRIPOS>MOLECULE
CEFVAN
    46    44     2
SMALL
NO_CHARGES
****
Generated from CSD

@<TRIPOS>ATOM
      1 O1         0.9305    4.8050    7.5993 O.3       1 RES1    0.0000
      2 O2         3.2593    2.4759   10.0963 O.2       1 RES1    0.0000
      3 O3         1.4915    2.4666   11.3578 O.2       1 RES1    0.0000
      4 N1        -0.2375    5.0075    8.5181 N.3       1 RES1    0.0000
      5 N2         2.0913    2.8038   10.3262 N.pl3     1 RES1    0.0000
      6 C1        -2.4831    3.3713    9.7218 C.3       1 RES1    0.0000
      7 H1        -2.6893    4.0516    9.0471 H         1 RES1    0.0000
      8 H2        -2.5502    3.7672   10.6159 H         1 RES1    0.0000
      9 H3        -3.1200    2.6305    9.6441 H         1 RES1    0.0000
     10 C2        -1.0637    2.8485    9.5013 C.3       1 RES1    0.0000
     11 H4        -0.8670    2.2194   10.2533 H         1 RES1    0.0000
     12 C3        -0.0404    4.0132    9.6100 C.3       1 RES1    0.0000
     13 H5        -0.1361    4.4640   10.4974 H         1 RES1    0.0000
     14 C4         1.3852    3.5985    9.4053 C.2       1 RES1    0.0000
     15 C5         1.8374    4.0435    8.2174 C.2       1 RES1    0.0000
     16 C6         3.1002    3.8384    7.4503 C.3       1 RES1    0.0000
     17 H6         3.7089    3.2726    7.9691 H         1 RES1    0.0000
     18 H7         2.8961    3.4026    6.5966 H         1 RES1    0.0000
     19 H8         3.5237    4.7057    7.2814 H         1 RES1    0.0000
     20 C7        -0.1705    6.4500    8.9315 C.3       1 RES1    0.0000
     21 C8         1.0832    6.8241    9.7370 C.3       1 RES1    0.0000
     22 H9         1.1151    6.2899   10.5577 H         1 RES1    0.0000
     23 H10        1.0502    7.7762    9.9679 H         1 RES1    0.0000
     24 H11        1.8821    6.6458    9.1989 H         1 RES1    0.0000
     25 C9        -0.2368    7.2820    7.6476 C.3       1 RES1    0.0000
     26 H12        0.6098    7.1981    7.1604 H         1 RES1    0.0000
     27 H13       -0.3908    8.2222    7.8753 H         1 RES1    0.0000
     28 H14       -0.9705    6.9569    7.0854 H         1 RES1    0.0000
     29 C10       -1.4377    6.6995    9.7514 C.3       1 RES1    0.0000
     30 H15       -2.2231    6.4387    9.2268 H         1 RES1    0.0000
     31 H16       -1.4979    7.6514    9.9780 H         1 RES1    0.0000
     32 H17       -1.4038    6.1696   10.5749 H         1 RES1    0.0000
     33 C11       -0.9178    2.0554    8.2162 C.ar      1 RES1    0.0000
     34 C12       -1.6909    2.3140    7.0827 C.ar      1 RES1    0.0000
     35 H18       -2.3177    3.0281    7.0933 H         1 RES1    0.0000
     36 C13       -1.5528    1.5383    5.9413 C.ar      1 RES1    0.0000
     37 H19       -2.0860    1.7240    5.1775 H         1 RES1    0.0000
     38 C14       -0.6420    0.4948    5.9062 C.ar      1 RES1    0.0000
     39 H20       -0.5615   -0.0424    5.1264 H         1 RES1    0.0000
     40 C15        0.1502    0.2370    7.0110 C.ar      1 RES1    0.0000
     41 H21        0.7884   -0.4654    6.9872 H         1 RES1    0.0000
     42 C16        0.0062    1.0112    8.1558 C.ar      1 RES1    0.0000
     43 H22        0.5485    0.8262    8.9134 H         1 RES1    0.0000
     44 H23        3.0436    4.3147    6.5957 Du        2 SUP2    0.0000
     45 H24        3.8564    4.1847    7.9681 Du        2 SUP2    0.0000
     46 H25        3.2288    2.8815    7.2833 Du        2 SUP2    0.0000
@<TRIPOS>BOND
     1    1    4 1
     2    2    5 2
     3    3    5 2
     4    4   12 1
     5    5   14 1
     6    6    7 1
     7    8    6 1
     8    9    6 1
     9   10    6 1
    10   11   10 1
    11   12   10 1
    12   13   12 1
    13   14   12 1
    14   15    1 1
    15   16   15 1
    16   17   16 1
    17   18   16 1
    18   19   16 1
    19   20    4 1
    20   21   20 1
    21   22   21 1
    22   23   21 1
    23   24   21 1
    24   25   20 1
    25   26   25 1
    26   27   25 1
    27   28   25 1
    28   29   20 1
    29   30   29 1
    30   31   29 1
    31   32   29 1
    32   33   10 1
    33   34   33 ar
    34   35   34 1
    35   36   34 ar
    36   37   36 1
    37   38   36 ar
    38   39   38 1
    39   40   38 ar
    40   41   40 1
    41   42   33 ar
    42   43   42 1
    43   14   15 2
    44   40   42 ar
@<TRIPOS>SUBSTRUCTURE
     1 RES1 1
     2 SUP2 44

@<TRIPOS>CRYSIN
   8.8857    8.8857   17.2031  90.0000  90.0000 120.0000 144 1

