# MOL2 file generated by ConQuest
# Please check atom types

@<TRIPOS>MOLECULE
CEGCOI
    45    47     1
SMALL
NO_CHARGES
****
Generated from CSD

@<TRIPOS>ATOM
      1 O1         2.9020    0.3457   -1.5766 O.2       1 RES1    0.0000
      2 O2         3.8379    2.6805    6.7524 O.3       1 RES1    0.0000
      3 O3         2.5793    4.5069    6.3893 O.2       1 RES1    0.0000
      4 O4         2.2568    3.0934    8.1005 O.3       1 RES1    0.0000
      5 O5        -2.4447    5.6495   11.2466 O.2       1 RES1    0.0000
      6 O6        -0.9476    6.9549   11.7728 O.2       1 RES1    0.0000
      7 N1         7.2817    3.0686    2.4984 N.pl3     1 RES1    0.0000
      8 H1         7.9454    3.5780    2.2493 H         1 RES1    0.0000
      9 C1         6.7777    2.0695    1.7173 C.2       1 RES1    0.0000
     10 H2         7.1262    1.8208    0.8916 H         1 RES1    0.0000
     11 C2         5.6994    1.4863    2.3029 C.2       1 RES1    0.0000
     12 C3         4.5963    2.0366    4.5931 C.ar      1 RES1    0.0000
     13 H3         3.9407    1.3771    4.5744 H         1 RES1    0.0000
     14 C4         4.6983    2.8968    5.6393 C.ar      1 RES1    0.0000
     15 C5         5.6713    3.8853    5.7285 C.ar      1 RES1    0.0000
     16 H4         5.6965    4.4488    6.4683 H         1 RES1    0.0000
     17 C6         6.5989    4.0293    4.7189 C.ar      1 RES1    0.0000
     18 H5         7.2608    4.6817    4.7638 H         1 RES1    0.0000
     19 C7         6.5126    3.1672    3.6336 C.ar      1 RES1    0.0000
     20 C8         5.5099    2.1771    3.5453 C.ar      1 RES1    0.0000
     21 C9         4.8206    0.4190    1.7339 C.3       1 RES1    0.0000
     22 H6         5.3248   -0.0915    1.0810 H         1 RES1    0.0000
     23 H7         4.5569   -0.1865    2.4445 H         1 RES1    0.0000
     24 C10        3.6018    0.9658    1.0853 C.3       1 RES1    0.0000
     25 H8         3.1336    1.5277    1.7220 H         1 RES1    0.0000
     26 H9         3.8676    1.5252    0.3380 H         1 RES1    0.0000
     27 N2         2.6914   -0.0515    0.6037 N.am      1 RES1    0.0000
     28 H10        2.3454   -0.4649    1.1509 H         1 RES1    0.0000
     29 C11        2.4051   -0.2936   -0.6690 C.2       1 RES1    0.0000
     30 C12        1.4310   -1.3994   -0.9233 C.3       1 RES1    0.0000
     31 H11        1.1546   -1.7819   -0.0874 H         1 RES1    0.0000
     32 H12        1.8475   -2.0756   -1.4626 H         1 RES1    0.0000
     33 H13        0.6647   -1.0507   -1.3840 H         1 RES1    0.0000
     34 C13        2.8914    3.5512    6.9991 C.2       1 RES1    0.0000
     35 C14        1.3456    3.9318    8.7485 C.ar      1 RES1    0.0000
     36 C15       -0.4034    5.3180   10.2592 C.ar      1 RES1    0.0000
     37 C16        1.8061    4.9536    9.5203 C.ar      1 RES1    0.0000
     38 H14        2.7118    5.1669    9.5218 H         1 RES1    0.0000
     39 C17        0.9251    5.6687   10.2971 C.ar      1 RES1    0.0000
     40 H15        1.2198    6.3697   10.8329 H         1 RES1    0.0000
     41 C18       -0.8754    4.3068    9.4696 C.ar      1 RES1    0.0000
     42 H16       -1.7816    4.0996    9.4577 H         1 RES1    0.0000
     43 C19        0.0133    3.6028    8.6960 C.ar      1 RES1    0.0000
     44 H17       -0.2822    2.9145    8.1465 H         1 RES1    0.0000
     45 N3        -1.3312    6.0250   11.1441 N.pl3     1 RES1    0.0000
@<TRIPOS>BOND
     1    1   29 2
     2    2   14 1
     3    3   34 2
     4    4   34 1
     5    5   45 2
     6    6   45 2
     7    7    8 1
     8    9    7 1
     9   10    9 1
    10   11    9 2
    11   12   13 1
    12   14   12 ar
    13   15   14 ar
    14   16   15 1
    15   17   15 ar
    16   18   17 1
    17   19    7 1
    18   20   11 1
    19   21   11 1
    20   22   21 1
    21   23   21 1
    22   24   21 1
    23   25   24 1
    24   26   24 1
    25   27   24 1
    26   28   27 1
    27   29   27 1
    28   30   29 1
    29   31   30 1
    30   32   30 1
    31   33   30 1
    32   34    2 1
    33   35    4 1
    34   36   39 ar
    35   37   35 ar
    36   38   37 1
    37   39   37 ar
    38   40   39 1
    39   41   36 ar
    40   42   41 1
    41   43   35 ar
    42   44   43 1
    43   45   36 1
    44   12   20 ar
    45   17   19 ar
    46   19   20 ar
    47   41   43 ar
@<TRIPOS>SUBSTRUCTURE
     1 RES1 1

@<TRIPOS>CRYSIN
  12.3678    5.0537   29.1554  90.0000  92.0710  90.0000  14 1

