# MOL2 file generated by ConQuest
# Please check atom types

@<TRIPOS>MOLECULE
CEGROX
    55    51     2
SMALL
NO_CHARGES
****
Generated from CSD

@<TRIPOS>ATOM
      1 N1         1.7099   18.7064    5.7223 N.2       1 RES1    0.0000
      2 N2         2.4809   19.6906    5.3554 N.2       1 RES1    0.0000
      3 N3         1.2920   21.2625    7.1659 N.am      1 RES1    0.0000
      4 H1         1.9785   21.1325    6.6644 H         1 RES1    0.0000
      5 N4        -2.1266   19.0110    9.7064 N.3       1 RES1    0.0000
      6 N5         3.9657   21.6585    4.2139 N.pl3     1 RES1    0.0000
      7 N6         6.3475   18.4503    1.4195 N.pl3     1 RES1    0.0000
      8 N7         2.3036   15.8486    4.5187 N.1       1 RES1    0.0000
      9 O1         0.1941   22.9234    8.3022 O.2       1 RES1    0.0000
     10 O2         2.9358   22.2657    3.8102 O.2       1 RES1    0.0000
     11 O3         4.7937   22.2411    4.8780 O.2       1 RES1    0.0000
     12 O4         7.1161   19.3494    1.1071 O.2       1 RES1    0.0000
     13 O5         6.3610   17.3405    0.9180 O.2       1 RES1    0.0000
     14 C1         0.7941   18.9386    6.7266 C.ar      1 RES1    0.0000
     15 C2         0.5412   20.1392    7.4541 C.ar      1 RES1    0.0000
     16 C3        -0.4481   20.1426    8.4279 C.ar      1 RES1    0.0000
     17 H2        -0.6234   20.9293    8.8913 H         1 RES1    0.0000
     18 C4        -1.1954   18.9845    8.7339 C.ar      1 RES1    0.0000
     19 C5        -0.9507   17.7996    7.9734 C.ar      1 RES1    0.0000
     20 H3        -1.4518   17.0311    8.1270 H         1 RES1    0.0000
     21 C6         0.0138   17.8061    7.0313 C.ar      1 RES1    0.0000
     22 H4         0.1723   17.0218    6.5577 H         1 RES1    0.0000
     23 C7         1.0913   22.5530    7.5709 C.2       1 RES1    0.0000
     24 C8         2.0553   23.5380    6.9627 C.3       1 RES1    0.0000
     25 H5         1.9321   23.5620    6.0118 H         1 RES1    0.0000
     26 H6         2.9551   23.2695    7.1633 H         1 RES1    0.0000
     27 H7         1.8928   24.4119    7.3271 H         1 RES1    0.0000
     28 C9        -2.8689   17.7953   10.0962 C.3       1 RES1    0.0000
     29 H8        -3.0765   17.2897    9.2951 H         1 RES1    0.0000
     30 H9        -3.7095   18.0626   10.4999 H         1 RES1    0.0000
     31 C10       -2.1512   16.9094   11.0408 C.3       1 RES1    0.0000
     32 H10       -1.3099   16.6492   10.6587 H         1 RES1    0.0000
     33 H11       -2.6810   16.1288   11.2122 H         1 RES1    0.0000
     34 H12       -1.9971   17.3790   11.8648 H         1 RES1    0.0000
     35 C11       -2.3062   20.1943   10.5507 C.3       1 RES1    0.0000
     36 H13       -3.1794   20.1503   10.9697 H         1 RES1    0.0000
     37 H14       -2.2880   20.9847    9.9895 H         1 RES1    0.0000
     38 C12       -1.2550   20.3347   11.6261 C.3       1 RES1    0.0000
     39 H15       -1.2930   19.5745   12.2114 H         1 RES1    0.0000
     40 H16       -1.4180   21.1356   12.1302 H         1 RES1    0.0000
     41 H17       -0.3867   20.3843   11.2198 H         1 RES1    0.0000
     42 C13        3.3774   19.2669    4.3574 C.ar      1 RES1    0.0000
     43 C14        4.1898   20.2735    3.8089 C.ar      1 RES1    0.0000
     44 C15        5.1469   20.0265    2.8694 C.ar      1 RES1    0.0000
     45 H18        5.6806   20.7169    2.5469 H         1 RES1    0.0000
     46 C16        5.3113   18.7514    2.4085 C.ar      1 RES1    0.0000
     47 C17        4.5445   17.7189    2.8884 C.ar      1 RES1    0.0000
     48 H19        4.6734   16.8525    2.5723 H         1 RES1    0.0000
     49 C18        3.5655   17.9758    3.8597 C.ar      1 RES1    0.0000
     50 C19        2.8271   16.7924    4.3092 C.1       1 RES1    0.0000
     51 C20        3.9657   21.6585    4.2139 Du        2 SUP2    0.0000
     52 N8         2.8271   16.7924    4.3092 Du        2 SUP2    0.0000
     53 N9         4.1000   22.5490    4.6596 Du        2 SUP2    0.0000
     54 O6         1.8630   16.3536    3.6528 Du        2 SUP2    0.0000
     55 O7         3.2295   16.0580    5.2081 Du        2 SUP2    0.0000
@<TRIPOS>BOND
     1    1    2 2
     2    2   42 1
     3    3    4 1
     4    5   18 1
     5    6   10 2
     6    7   12 2
     7    8   50 3
     8    9   23 2
     9   11    6 2
    10   13    7 2
    11   14    1 1
    12   15    3 1
    13   16   15 ar
    14   17   16 1
    15   18   16 ar
    16   19   18 ar
    17   20   19 1
    18   21   14 ar
    19   22   21 1
    20   23    3 1
    21   24   23 1
    22   25   24 1
    23   26   24 1
    24   27   24 1
    25   28    5 1
    26   29   28 1
    27   30   28 1
    28   31   28 1
    29   32   31 1
    30   33   31 1
    31   34   31 1
    32   35    5 1
    33   36   35 1
    34   37   35 1
    35   38   35 1
    36   39   38 1
    37   40   38 1
    38   41   38 1
    39   42   43 ar
    40   43    6 1
    41   44   43 ar
    42   45   44 1
    43   46    7 1
    44   47   46 ar
    45   48   47 1
    46   49   42 ar
    47   50   49 1
    48   14   15 ar
    49   19   21 ar
    50   44   46 ar
    51   47   49 ar
@<TRIPOS>SUBSTRUCTURE
     1 RES1 1
     2 SUP2 51

@<TRIPOS>CRYSIN
   5.0995   30.7920   12.7211  90.0000  93.5690  90.0000  14 1

