# MOL2 file generated by ConQuest
# Please check atom types

@<TRIPOS>MOLECULE
CEGVOB
    36    37     1
SMALL
NO_CHARGES
****
Generated from CSD

@<TRIPOS>ATOM
      1 O1        -1.4622    3.0335    8.5943 O.3       1 RES1    0.0000
      2 O2         0.1988    0.4280    3.0725 O.2       1 RES1    0.0000
      3 O3         3.3914    2.1186   -2.2872 O.3       1 RES1    0.0000
      4 O4         3.1306    4.0442    3.1903 O.2       1 RES1    0.0000
      5 O5         4.0379    5.0015    1.5194 O.2       1 RES1    0.0000
      6 N1         0.9998    2.5172    2.7372 N.am      1 RES1    0.0000
      7 N2         3.3242    4.1449    1.9951 N.pl3     1 RES1    0.0000
      8 C1         0.5896    2.9951    5.5584 C.ar      1 RES1    0.0000
      9 H1         1.3249    3.4281    5.1885 H         1 RES1    0.0000
     10 C2         0.1666    3.3538    6.8222 C.ar      1 RES1    0.0000
     11 H2         0.6249    4.0073    7.3010 H         1 RES1    0.0000
     12 C3        -0.9366    2.7412    7.3733 C.ar      1 RES1    0.0000
     13 C4        -1.5990    1.7594    6.6581 C.ar      1 RES1    0.0000
     14 H3        -2.3531    1.3509    7.0209 H         1 RES1    0.0000
     15 C5        -1.1493    1.3878    5.4189 C.ar      1 RES1    0.0000
     16 H4        -1.5875    0.7059    4.9626 H         1 RES1    0.0000
     17 C6        -0.0534    2.0034    4.8225 C.ar      1 RES1    0.0000
     18 C7         0.3898    1.5749    3.4821 C.2       1 RES1    0.0000
     19 C8         1.6199    2.3680    1.4851 C.ar      1 RES1    0.0000
     20 C9         2.6960    3.1707    1.0806 C.ar      1 RES1    0.0000
     21 C10        3.2484    3.0829   -0.1755 C.ar      1 RES1    0.0000
     22 H5         3.9459    3.6481   -0.4174 H         1 RES1    0.0000
     23 C11        2.7661    2.1535   -1.0811 C.ar      1 RES1    0.0000
     24 C12        1.7166    1.3419   -0.7092 C.ar      1 RES1    0.0000
     25 H6         1.3892    0.7064   -1.3035 H         1 RES1    0.0000
     26 C13        1.1480    1.4681    0.5429 C.ar      1 RES1    0.0000
     27 H7         0.4218    0.9299    0.7604 H         1 RES1    0.0000
     28 C14        2.9887    1.0995   -3.2020 C.3       1 RES1    0.0000
     29 H8         3.5304    1.1479   -3.9935 H         1 RES1    0.0000
     30 H9         2.0669    1.2262   -3.4361 H         1 RES1    0.0000
     31 H10        3.0988    0.2389   -2.7900 H         1 RES1    0.0000
     32 C15       -0.8196    4.0277    9.3824 C.3       1 RES1    0.0000
     33 H11       -1.2757    4.1135   10.2225 H         1 RES1    0.0000
     34 H12       -0.8429    4.8678    8.9190 H         1 RES1    0.0000
     35 H13        0.0926    3.7728    9.5365 H         1 RES1    0.0000
     36 H14        1.0364    3.2325    3.0959 H         1 RES1    0.0000
@<TRIPOS>BOND
     1    1   12 1
     2    2   18 2
     3    3   23 1
     4    4    7 2
     5    5    7 2
     6    6   18 1
     7    7   20 1
     8    8    9 1
     9   10    8 ar
    10   11   10 1
    11   12   10 ar
    12   13   12 ar
    13   14   13 1
    14   15   13 ar
    15   16   15 1
    16   17    8 ar
    17   18   17 1
    18   19    6 1
    19   20   19 ar
    20   21   20 ar
    21   22   21 1
    22   23   21 ar
    23   24   23 ar
    24   25   24 1
    25   26   19 ar
    26   27   26 1
    27   28    3 1
    28   29   28 1
    29   30   28 1
    30   31   28 1
    31   32    1 1
    32   33   32 1
    33   34   32 1
    34   35   32 1
    35   36    6 1
    36   15   17 ar
    37   24   26 ar
@<TRIPOS>SUBSTRUCTURE
     1 RES1 1

@<TRIPOS>CRYSIN
   9.7206    4.9885   28.7250  90.0000  95.6280  90.0000 231 1

