# MOL2 file generated by ConQuest
# Please check atom types

@<TRIPOS>MOLECULE
CEGWES
    41    43     1
SMALL
NO_CHARGES
****
Generated from CSD

@<TRIPOS>ATOM
      1 O1         0.0270    9.7672   -2.0344 O.2       1 RES1    0.0000
      2 O2         1.0212    7.8573   -1.9334 O.2       1 RES1    0.0000
      3 N1         4.4532   11.0137    2.2970 N.2       1 RES1    0.0000
      4 N2         0.9066    9.0270   -1.5989 N.pl3     1 RES1    0.0000
      5 C1         4.6629   12.2667    2.4814 C.2       1 RES1    0.0000
      6 C2         5.5174   12.7372    3.5358 C.2       1 RES1    0.0000
      7 C3         5.6487   14.0390    3.9143 C.2       1 RES1    0.0000
      8 C4         6.6828   14.4449    4.8884 C.ar      1 RES1    0.0000
      9 C5         7.8565   13.7047    5.0534 C.ar      1 RES1    0.0000
     10 C6         8.8062   14.0657    5.9836 C.ar      1 RES1    0.0000
     11 C7         8.6259   15.1682    6.7691 C.ar      1 RES1    0.0000
     12 C8         7.4908   15.9332    6.6197 C.ar      1 RES1    0.0000
     13 C9         6.5364   15.5773    5.6833 C.ar      1 RES1    0.0000
     14 C10        4.7237   15.0700    3.3657 C.ar      1 RES1    0.0000
     15 C11        5.2206   16.2531    2.8075 C.ar      1 RES1    0.0000
     16 C12        4.3659   17.1686    2.2233 C.ar      1 RES1    0.0000
     17 C13        3.0093   16.9502    2.2179 C.ar      1 RES1    0.0000
     18 C14        2.4888   15.8093    2.8037 C.ar      1 RES1    0.0000
     19 C15        3.3450   14.8776    3.3678 C.ar      1 RES1    0.0000
     20 C16        3.5783   10.6048    1.2729 C.ar      1 RES1    0.0000
     21 C17        2.5514   11.3790    0.7514 C.ar      1 RES1    0.0000
     22 C18        1.6984   10.8715   -0.2035 C.ar      1 RES1    0.0000
     23 C19        1.8526    9.5729   -0.6223 C.ar      1 RES1    0.0000
     24 C20        2.8456    8.7704   -0.1206 C.ar      1 RES1    0.0000
     25 C21        3.7065    9.2897    0.8191 C.ar      1 RES1    0.0000
     26 H1         7.9984   12.9539    4.5248 H         1 RES1    0.0000
     27 H2         9.5781   13.5535    6.0772 H         1 RES1    0.0000
     28 H3         9.2655   15.4011    7.4021 H         1 RES1    0.0000
     29 H4         7.3661   16.6884    7.1475 H         1 RES1    0.0000
     30 H5         5.7791   16.1073    5.5827 H         1 RES1    0.0000
     31 H6         6.1337   16.4245    2.8301 H         1 RES1    0.0000
     32 H7         4.7106   17.9386    1.8318 H         1 RES1    0.0000
     33 H8         2.4400   17.5705    1.8209 H         1 RES1    0.0000
     34 H9         1.5698   15.6674    2.8177 H         1 RES1    0.0000
     35 H10        2.9918   14.1092    3.7556 H         1 RES1    0.0000
     36 H11        2.4378   12.2524    1.0509 H         1 RES1    0.0000
     37 H12        1.0250   11.4027   -0.5618 H         1 RES1    0.0000
     38 H13        2.9353    7.8904   -0.4102 H         1 RES1    0.0000
     39 H14        4.3870    8.7540    1.1585 H         1 RES1    0.0000
     40 H15        4.2969   12.9377    1.8728 H         1 RES1    0.0000
     41 H16        6.0501   12.0440    4.0087 H         1 RES1    0.0000
@<TRIPOS>BOND
     1    1    4 2
     2    2    4 2
     3    3    5 2
     4    4   23 1
     5    5    6 1
     6    6    7 2
     7    7    8 1
     8    8    9 ar
     9    9   10 ar
    10   10   11 ar
    11   11   12 ar
    12   12   13 ar
    13   13    8 ar
    14   14    7 1
    15   15   14 ar
    16   16   15 ar
    17   17   16 ar
    18   18   17 ar
    19   19   14 ar
    20   20    3 1
    21   21   20 ar
    22   22   21 ar
    23   23   22 ar
    24   24   23 ar
    25   25   20 ar
    26   26    9 1
    27   27   10 1
    28   28   11 1
    29   29   12 1
    30   30   13 1
    31   31   15 1
    32   32   16 1
    33   33   17 1
    34   34   18 1
    35   35   19 1
    36   36   21 1
    37   37   22 1
    38   38   24 1
    39   39   25 1
    40   40    5 1
    41   41    6 1
    42   18   19 ar
    43   24   25 ar
@<TRIPOS>SUBSTRUCTURE
     1 RES1 1

@<TRIPOS>CRYSIN
   9.4399   23.1526    8.1388  90.0000 108.0390  90.0000  14 1

