# MOL2 file generated by ConQuest
# Please check atom types

@<TRIPOS>MOLECULE
CEHGED
    38    39     1
SMALL
NO_CHARGES
****
Generated from CSD

@<TRIPOS>ATOM
      1 O1        -0.2339   11.0154   13.2150 O.3       1 RES1    0.0000
      2 O2         6.0284   11.8982    5.6147 O.2       1 RES1    0.0000
      3 O3         7.0807    6.3413    2.6603 O.2       1 RES1    0.0000
      4 O4         7.6312    6.1079    4.7520 O.2       1 RES1    0.0000
      5 N1         3.6944   11.8087    8.2186 N.2       1 RES1    0.0000
      6 N2         4.6406   12.3238    7.3477 N.am      1 RES1    0.0000
      7 N3         5.1294    9.2945    5.3143 N.pl3     1 RES1    0.0000
      8 N4         5.4489    8.4605    3.2701 N.2       1 RES1    0.0000
      9 N5         7.0095    6.6665    3.8347 N.pl3     1 RES1    0.0000
     10 C1        -0.5571    9.6302   13.4182 C.3       1 RES1    0.0000
     11 H1        -1.1853    9.5478   14.1663 H         1 RES1    0.0000
     12 H2         0.2610    9.1307   13.6218 H         1 RES1    0.0000
     13 H3        -0.9668    9.2678   12.6051 H         1 RES1    0.0000
     14 C2         0.6064   11.3238   12.1912 C.ar      1 RES1    0.0000
     15 C3         1.0827   10.4061   11.2535 C.ar      1 RES1    0.0000
     16 H4         0.8185    9.4942   11.3018 H         1 RES1    0.0000
     17 C4         1.9410   10.8282   10.2527 C.ar      1 RES1    0.0000
     18 H5         2.2587   10.1985    9.6156 H         1 RES1    0.0000
     19 C5         2.3491   12.1625   10.1603 C.ar      1 RES1    0.0000
     20 C6         1.8616   13.0666   11.1104 C.ar      1 RES1    0.0000
     21 H6         2.1305   13.9769   11.0676 H         1 RES1    0.0000
     22 C7         0.9972   12.6641   12.1084 C.ar      1 RES1    0.0000
     23 H7         0.6690   13.2959   12.7380 H         1 RES1    0.0000
     24 C8         3.3053   12.6017    9.1486 C.2       1 RES1    0.0000
     25 H8         3.6447   13.4882    9.1790 H         1 RES1    0.0000
     26 C9         5.1622   11.5227    6.4095 C.2       1 RES1    0.0000
     27 C10        4.5836   10.1083    6.3916 C.3       1 RES1    0.0000
     28 H9         4.7748    9.6686    7.2574 H         1 RES1    0.0000
     29 H10        3.5999   10.1625    6.2894 H         1 RES1    0.0000
     30 C11        5.9954    8.2473    5.4708 C.2       1 RES1    0.0000
     31 H11        6.3863    7.9261    6.2750 H         1 RES1    0.0000
     32 C12        6.1673    7.7709    4.2039 C.2       1 RES1    0.0000
     33 C13        4.8290    9.3898    3.9747 C.2       1 RES1    0.0000
     34 C14        3.9531   10.4534    3.4201 C.3       1 RES1    0.0000
     35 H12        3.7512   10.2536    2.4818 H         1 RES1    0.0000
     36 H13        4.4115   11.3177    3.4788 H         1 RES1    0.0000
     37 H14        3.1194   10.4907    3.9338 H         1 RES1    0.0000
     38 H15        4.9599   13.1405    7.4442 H         1 RES1    0.0000
@<TRIPOS>BOND
     1    1   10 1
     2    2   26 2
     3    3    9 2
     4    4    9 2
     5    5    6 1
     6    6   26 1
     7    7   27 1
     8    8   32 1
     9    9   32 1
    10   10   11 1
    11   12   10 1
    12   13   10 1
    13   14    1 1
    14   15   14 ar
    15   16   15 1
    16   17   15 ar
    17   18   17 1
    18   19   17 ar
    19   20   19 ar
    20   21   20 1
    21   22   14 ar
    22   23   22 1
    23   24    5 2
    24   25   24 1
    25   26   27 1
    26   27   28 1
    27   29   27 1
    28   30    7 1
    29   31   30 1
    30   32   30 2
    31   33    7 1
    32   34   33 1
    33   35   34 1
    34   36   34 1
    35   37   34 1
    36   38    6 1
    37    8   33 2
    38   19   24 1
    39   20   22 ar
@<TRIPOS>SUBSTRUCTURE
     1 RES1 1

@<TRIPOS>CRYSIN
   4.3366   12.9773   13.2138  84.9190  87.3530  84.6110   2 1

