# MOL2 file generated by ConQuest
# Please check atom types

@<TRIPOS>MOLECULE
CEJHUV
    64    66     1
SMALL
NO_CHARGES
****
Generated from CSD

@<TRIPOS>ATOM
      1 O1         3.7702   10.9161    8.2782 O.2       1 RES1    0.0000
      2 O2         0.4510    3.7486    3.7963 O.2       1 RES1    0.0000
      3 O3         1.8538    7.0380    5.0757 O.3       1 RES1    0.0000
      4 O4         4.4349    6.5350    2.7991 O.2       1 RES1    0.0000
      5 N1         3.2134   10.1104    7.4460 N.3       1 RES1    0.0000
      6 N2         1.4395    4.5605    3.8513 N.3       1 RES1    0.0000
      7 C1         3.6450   10.2356    6.0403 C.3       1 RES1    0.0000
      8 C2         5.1816   10.0478    6.0108 C.3       1 RES1    0.0000
      9 C3         3.3041   11.6382    5.5381 C.3       1 RES1    0.0000
     10 C4         1.9919    9.3841    7.8779 C.3       1 RES1    0.0000
     11 C5         1.9639    9.3006    9.3935 C.3       1 RES1    0.0000
     12 C6         0.7510   10.1605    7.3859 C.3       1 RES1    0.0000
     13 C7         2.0524    8.0044    7.2270 C.3       1 RES1    0.0000
     14 C8         3.0213    7.0464    7.9166 C.3       1 RES1    0.0000
     15 C9         2.3718    8.1359    5.7663 C.2       1 RES1    0.0000
     16 C10        3.0084    9.1378    5.2050 C.2       1 RES1    0.0000
     17 C11        3.1854    9.2150    3.7036 C.3       1 RES1    0.0000
     18 C12        2.2595    8.2319    3.0028 C.3       1 RES1    0.0000
     19 C13        2.2444    6.8773    3.7057 C.3       1 RES1    0.0000
     20 C14        1.2431    5.8546    3.1281 C.3       1 RES1    0.0000
     21 C15        1.4373    5.6501    1.6053 C.3       1 RES1    0.0000
     22 C16       -0.1985    6.3159    3.3858 C.3       1 RES1    0.0000
     23 C17        2.7645    3.9385    4.1691 C.3       1 RES1    0.0000
     24 C18        2.5422    2.9993    5.3426 C.3       1 RES1    0.0000
     25 C19        3.2350    3.1099    2.9387 C.3       1 RES1    0.0000
     26 C20        3.7831    5.0406    4.5552 C.3       1 RES1    0.0000
     27 C21        5.2550    4.5668    4.6122 C.3       1 RES1    0.0000
     28 C22        3.6062    6.2032    3.6354 C.2       1 RES1    0.0000
     29 H1         5.3305    8.9750    6.2746 H         1 RES1    0.0000
     30 H2         5.4600   10.8326    6.4987 H         1 RES1    0.0000
     31 H3         5.6111   10.0603    5.1134 H         1 RES1    0.0000
     32 H4         2.4171   11.7718    5.2662 H         1 RES1    0.0000
     33 H5         3.6904   12.2310    6.2033 H         1 RES1    0.0000
     34 H6         3.7983   11.8136    4.6244 H         1 RES1    0.0000
     35 H7         2.8703    8.8706    9.7174 H         1 RES1    0.0000
     36 H8         1.8344   10.1020    9.8397 H         1 RES1    0.0000
     37 H9         1.1654    8.8080    9.6563 H         1 RES1    0.0000
     38 H10        0.8417   11.1874    7.6802 H         1 RES1    0.0000
     39 H11        0.7338   10.2690    6.2949 H         1 RES1    0.0000
     40 H12       -0.0216    9.7681    7.7719 H         1 RES1    0.0000
     41 H13        1.1006    7.5557    7.2830 H         1 RES1    0.0000
     42 H14        3.9493    7.3678    7.8840 H         1 RES1    0.0000
     43 H15        3.0861    6.0320    7.3645 H         1 RES1    0.0000
     44 H16        2.8055    6.8460    8.9026 H         1 RES1    0.0000
     45 H17        4.2083    9.0167    3.4836 H         1 RES1    0.0000
     46 H18        3.0213   10.1855    3.4123 H         1 RES1    0.0000
     47 H19        1.2949    8.5784    3.0354 H         1 RES1    0.0000
     48 H20        2.5466    8.1192    2.0270 H         1 RES1    0.0000
     49 H21        2.4171    5.5937    1.3853 H         1 RES1    0.0000
     50 H22        0.7769    4.9467    1.4159 H         1 RES1    0.0000
     51 H23        1.1006    6.3868    1.1510 H         1 RES1    0.0000
     52 H24       -0.3669    7.1591    3.0151 H         1 RES1    0.0000
     53 H25       -0.4316    6.3660    4.2883 H         1 RES1    0.0000
     54 H26       -0.8632    5.5520    3.1373 H         1 RES1    0.0000
     55 H27        2.1797    3.5065    6.2033 H         1 RES1    0.0000
     56 H28        3.3451    2.5673    5.6023 H         1 RES1    0.0000
     57 H29        1.8775    2.2333    5.1643 H         1 RES1    0.0000
     58 H30        2.4171    2.6299    2.5771 H         1 RES1    0.0000
     59 H31        4.0141    2.4838    3.2595 H         1 RES1    0.0000
     60 H32        3.5177    3.8196    2.1900 H         1 RES1    0.0000
     61 H33        3.4530    5.4267    5.4190 H         1 RES1    0.0000
     62 H34        5.2226    3.8822    5.3375 H         1 RES1    0.0000
     63 H35        5.8700    5.2597    5.0319 H         1 RES1    0.0000
     64 H36        5.3952    4.2788    3.6262 H         1 RES1    0.0000
@<TRIPOS>BOND
     1    1    5 1
     2    2    6 1
     3    3   15 1
     4    4   28 2
     5    5    7 1
     6    6   20 1
     7    7    8 1
     8    8   29 1
     9    9    7 1
    10   10    5 1
    11   11   10 1
    12   12   10 1
    13   13   10 1
    14   14   13 1
    15   15   13 1
    16   16    7 1
    17   17   16 1
    18   18   17 1
    19   19    3 1
    20   20   19 1
    21   21   20 1
    22   22   20 1
    23   23    6 1
    24   24   23 1
    25   25   23 1
    26   26   23 1
    27   27   26 1
    28   28   19 1
    29   30    8 1
    30   31    8 1
    31   32    9 1
    32   33    9 1
    33   34    9 1
    34   35   11 1
    35   36   11 1
    36   37   11 1
    37   38   12 1
    38   39   12 1
    39   40   12 1
    40   41   13 1
    41   42   14 1
    42   43   14 1
    43   44   14 1
    44   45   17 1
    45   46   17 1
    46   47   18 1
    47   48   18 1
    48   49   21 1
    49   50   21 1
    50   51   21 1
    51   52   22 1
    52   53   22 1
    53   54   22 1
    54   55   24 1
    55   56   24 1
    56   57   24 1
    57   58   25 1
    58   59   25 1
    59   60   25 1
    60   61   26 1
    61   62   27 1
    62   63   27 1
    63   64   27 1
    64   15   16 2
    65   18   19 1
    66   26   28 1
@<TRIPOS>SUBSTRUCTURE
     1 RES1 1

@<TRIPOS>CRYSIN
  21.5810   20.8720   10.1860  90.0000  90.0000  90.0000  61 3

