# MOL2 file generated by ConQuest
# Please check atom types

@<TRIPOS>MOLECULE
CEJJAC
    66    68     1
SMALL
NO_CHARGES
****
Generated from CSD

@<TRIPOS>ATOM
      1 O1         5.7359   13.8726    9.0248 O.2       1 RES1    0.0000
      2 O2         5.3941    6.7032    2.2222 O.2       1 RES1    0.0000
      3 O3         6.0408   10.4817    4.8250 O.3       1 RES1    0.0000
      4 O4         7.3576    8.2843    5.8664 O.3       1 RES1    0.0000
      5 N1         5.6887   13.1260    7.9788 N.3       1 RES1    0.0000
      6 N2         5.1511    7.2070    3.3996 N.3       1 RES1    0.0000
      7 C1         4.6812   12.0215    8.0017 C.3       1 RES1    0.0000
      8 C2         5.0553   11.1340    9.2054 C.3       1 RES1    0.0000
      9 C3         3.2907   12.6403    8.2052 C.3       1 RES1    0.0000
     10 C4         6.2971   13.6220    6.7191 C.3       1 RES1    0.0000
     11 C5         7.4033   14.6128    7.0598 C.3       1 RES1    0.0000
     12 C6         5.2174   14.3596    5.9213 C.3       1 RES1    0.0000
     13 C7         6.8229   12.3935    5.9556 C.3       1 RES1    0.0000
     14 C8         8.1295   11.8058    6.4677 C.3       1 RES1    0.0000
     15 C9         5.7801   11.3226    5.8984 C.2       1 RES1    0.0000
     16 C10        4.7637   11.1960    6.7351 C.2       1 RES1    0.0000
     17 C11        3.6869   10.1548    6.5020 C.3       1 RES1    0.0000
     18 C12        3.8710    9.5115    5.1222 C.3       1 RES1    0.0000
     19 C13        5.3529    9.2028    4.8456 C.3       1 RES1    0.0000
     20 C14        5.6003    8.6344    3.4122 C.3       1 RES1    0.0000
     21 C15        7.0748    8.7016    2.9949 C.3       1 RES1    0.0000
     22 C16        4.7784    9.3733    2.3594 C.3       1 RES1    0.0000
     23 C17        5.4442    6.2110    4.4821 C.3       1 RES1    0.0000
     24 C18        4.3910    5.1129    4.3426 C.3       1 RES1    0.0000
     25 C19        6.8377    5.6077    4.2386 C.3       1 RES1    0.0000
     26 C20        5.2969    6.9008    5.8607 C.3       1 RES1    0.0000
     27 C21        5.8080    6.0314    7.0129 C.3       1 RES1    0.0000
     28 C22        5.9244    8.3024    5.9475 C.3       1 RES1    0.0000
     29 H1         5.0377   11.6520   10.0136 H         1 RES1    0.0000
     30 H2         4.3306   10.4119    9.2362 H         1 RES1    0.0000
     31 H3         6.0098   10.7736    9.0534 H         1 RES1    0.0000
     32 H4         3.2995   13.2539    8.8933 H         1 RES1    0.0000
     33 H5         2.6367   11.9362    8.2760 H         1 RES1    0.0000
     34 H6         3.0197   13.2151    7.3044 H         1 RES1    0.0000
     35 H7         7.6007    8.0996    6.6871 H         1 RES1    0.0000
     36 H8         6.9820   15.4758    7.4987 H         1 RES1    0.0000
     37 H9         7.8511   14.8686    6.2642 H         1 RES1    0.0000
     38 H10        8.0720   14.2744    7.7959 H         1 RES1    0.0000
     39 H11        5.6269   14.7911    5.1440 H         1 RES1    0.0000
     40 H12        4.6547   15.0624    6.5843 H         1 RES1    0.0000
     41 H13        4.4927   13.7706    5.6355 H         1 RES1    0.0000
     42 H14        7.0557   12.6984    5.0296 H         1 RES1    0.0000
     43 H15        8.3372   10.9415    5.8984 H         1 RES1    0.0000
     44 H16        7.9984   11.5745    7.4187 H         1 RES1    0.0000
     45 H17        8.8675   12.4659    6.2756 H         1 RES1    0.0000
     46 H18        3.7856    9.4818    7.2587 H         1 RES1    0.0000
     47 H19        2.7103   10.5540    6.6071 H         1 RES1    0.0000
     48 H20        3.5794   10.1148    4.4124 H         1 RES1    0.0000
     49 H21        3.3290    8.6421    5.0754 H         1 RES1    0.0000
     50 H22        7.7038    8.3579    3.7151 H         1 RES1    0.0000
     51 H23        7.1441    8.2029    2.1833 H         1 RES1    0.0000
     52 H24        7.4092    9.6627    2.9492 H         1 RES1    0.0000
     53 H25        3.7562    9.2751    2.4805 H         1 RES1    0.0000
     54 H26        5.0082   10.4119    2.3434 H         1 RES1    0.0000
     55 H27        5.0082    9.0684    1.4517 H         1 RES1    0.0000
     56 H28        4.5958    4.4825    5.0411 H         1 RES1    0.0000
     57 H29        4.4485    4.7280    3.2921 H         1 RES1    0.0000
     58 H30        3.5647    5.5160    4.3552 H         1 RES1    0.0000
     59 H31        6.8642    5.3351    3.2807 H         1 RES1    0.0000
     60 H32        6.9968    4.7797    4.8010 H         1 RES1    0.0000
     61 H33        7.6154    6.2136    4.5152 H         1 RES1    0.0000
     62 H34        4.2128    7.0661    6.0584 H         1 RES1    0.0000
     63 H35        6.7758    5.8648    6.9500 H         1 RES1    0.0000
     64 H36        5.4059    5.0122    6.8815 H         1 RES1    0.0000
     65 H37        5.4059    6.4332    7.9103 H         1 RES1    0.0000
     66 H38        5.5974    8.7584    6.9043 H         1 RES1    0.0000
@<TRIPOS>BOND
     1    1    5 1
     2    2    6 1
     3    3   15 1
     4    4   28 1
     5    5    7 1
     6    6   20 1
     7    7    8 1
     8    8   29 1
     9    9    7 1
    10   10    5 1
    11   11   10 1
    12   12   10 1
    13   13   10 1
    14   14   13 1
    15   15   13 1
    16   16    7 1
    17   17   16 1
    18   18   17 1
    19   19    3 1
    20   20   19 1
    21   21   20 1
    22   22   20 1
    23   23    6 1
    24   24   23 1
    25   25   23 1
    26   26   23 1
    27   27   26 1
    28   28   19 1
    29   30    8 1
    30   31    8 1
    31   32    9 1
    32   33    9 1
    33   34    9 1
    34   35    4 1
    35   36   11 1
    36   37   11 1
    37   38   11 1
    38   39   12 1
    39   40   12 1
    40   41   12 1
    41   42   13 1
    42   43   14 1
    43   44   14 1
    44   45   14 1
    45   46   17 1
    46   47   17 1
    47   48   18 1
    48   49   18 1
    49   50   21 1
    50   51   21 1
    51   52   21 1
    52   53   22 1
    53   54   22 1
    54   55   22 1
    55   56   24 1
    56   57   24 1
    57   58   24 1
    58   59   25 1
    59   60   25 1
    60   61   25 1
    61   62   26 1
    62   63   27 1
    63   64   27 1
    64   65   27 1
    65   66   28 1
    66   15   16 2
    67   18   19 1
    68   26   28 1
@<TRIPOS>SUBSTRUCTURE
     1 RES1 1

@<TRIPOS>CRYSIN
  14.7300   12.9180   11.4310  90.0000  90.0000  90.0000  19 1

