# MOL2 file generated by ConQuest
# Please check atom types

@<TRIPOS>MOLECULE
CEJMAF
    16    16     1
SMALL
NO_CHARGES
****
Generated from CSD

@<TRIPOS>ATOM
      1 O1         2.1436    5.4279    4.4254 O.3       1 RES1    0.0000
      2 N1         0.7431    1.5641    3.9868 N.ar      1 RES1    0.0000
      3 N2         1.6479    4.1503    4.4080 N.2       1 RES1    0.0000
      4 N3         1.5679    5.3531    1.2024 N.1       1 RES1    0.0000
      5 C1         1.2750    3.7929    3.2361 C.2       1 RES1    0.0000
      6 C2         1.4294    4.6781    2.1058 C.1       1 RES1    0.0000
      7 C3         0.6910    2.4549    2.9917 C.ar      1 RES1    0.0000
      8 C4         0.1058    2.1659    1.7676 C.ar      1 RES1    0.0000
      9 C5        -0.4432    0.9186    1.5712 C.ar      1 RES1    0.0000
     10 C6        -0.3877    0.0024    2.5771 C.ar      1 RES1    0.0000
     11 C7         0.2157    0.3582    3.7664 C.ar      1 RES1    0.0000
     12 H1         0.0841    2.8242    1.0693 H         1 RES1    0.0000
     13 H2        -0.8600    0.6973    0.7354 H         1 RES1    0.0000
     14 H3        -0.7610   -0.8740    2.4615 H         1 RES1    0.0000
     15 H4         0.2582   -0.2937    4.4691 H         1 RES1    0.0000
     16 H5         2.3805    5.6293    5.2175 H         1 RES1    0.0000
@<TRIPOS>BOND
     1    1    3 1
     2    2    7 ar
     3    3    5 2
     4    4    6 3
     5    5    6 1
     6    7    5 1
     7    8    7 ar
     8    9    8 ar
     9   10    9 ar
    10   11    2 ar
    11   12    8 1
    12   13    9 1
    13   14   10 1
    14   15   11 1
    15   16    1 1
    16   10   11 ar
@<TRIPOS>SUBSTRUCTURE
     1 RES1 1

@<TRIPOS>CRYSIN
   3.9160    7.9600   21.8220  90.0000  90.3400  90.0000  14 1

