# MOL2 file generated by ConQuest
# Please check atom types

@<TRIPOS>MOLECULE
CEJVUI
    35    36     1
SMALL
NO_CHARGES
****
Generated from CSD

@<TRIPOS>ATOM
      1 C1         5.1196    9.1361   -0.2420 C.3       1 RES1    0.0000
      2 O1         4.7316    9.4353    1.1242 O.3       1 RES1    0.0000
      3 C2         5.4902   10.2636    1.8058 C.2       1 RES1    0.0000
      4 O2         6.4786   10.7470    1.3691 O.2       1 RES1    0.0000
      5 C3         4.9231   10.4187    3.1523 C.2       1 RES1    0.0000
      6 N1         5.6454   10.6556    4.2017 N.pl3     1 RES1    0.0000
      7 O3         6.9150   10.7608    4.2263 O.2       1 RES1    0.0000
      8 C4         4.9533   10.7137    5.5443 C.3       1 RES1    0.0000
      9 C5         5.3116   11.9894    6.2760 C.ar      1 RES1    0.0000
     10 C6         5.1776   12.0421    7.6510 C.ar      1 RES1    0.0000
     11 C7         5.3358   13.2360    8.3385 C.ar      1 RES1    0.0000
     12 C8         5.6522   14.3801    7.6569 C.ar      1 RES1    0.0000
     13 C9         5.8154   14.3358    6.2947 C.ar      1 RES1    0.0000
     14 C10        5.6424   13.1543    5.6052 C.ar      1 RES1    0.0000
     15 C11        5.2143    9.4090    6.2524 C.ar      1 RES1    0.0000
     16 C12        4.2430    8.4256    6.2219 C.ar      1 RES1    0.0000
     17 C13        4.4780    7.1928    6.7953 C.ar      1 RES1    0.0000
     18 C14        5.6806    6.9241    7.4032 C.ar      1 RES1    0.0000
     19 C15        6.6478    7.9034    7.4514 C.ar      1 RES1    0.0000
     20 C16        6.4202    9.1403    6.8819 C.ar      1 RES1    0.0000
     21 H1         6.0814    9.1140   -0.3246 H         1 RES1    0.0000
     22 H2         4.8859   10.0420   -0.6786 H         1 RES1    0.0000
     23 H3         4.5100    8.5045   -0.5016 H         1 RES1    0.0000
     24 H4         3.9870   10.2913    3.2850 H         1 RES1    0.0000
     25 H5         4.0284   10.7484    5.3013 H         1 RES1    0.0000
     26 H6         4.9473   11.2609    8.1536 H         1 RES1    0.0000
     27 H7         5.1932   13.2416    9.2945 H         1 RES1    0.0000
     28 H8         5.7335   15.1807    8.1241 H         1 RES1    0.0000
     29 H9         6.0431   15.1114    5.7833 H         1 RES1    0.0000
     30 H10        5.7466   13.1169    4.6423 H         1 RES1    0.0000
     31 H11        3.3995    8.6153    5.7636 H         1 RES1    0.0000
     32 H12        3.7710    6.5238    6.7668 H         1 RES1    0.0000
     33 H13        5.8226    6.0806    7.7897 H         1 RES1    0.0000
     34 H14        7.4941    7.7289    7.8585 H         1 RES1    0.0000
     35 H15        7.0969    9.8065    6.9438 H         1 RES1    0.0000
@<TRIPOS>BOND
     1    1    2 1
     2    2    3 1
     3    3    4 2
     4    5    3 1
     5    6    5 2
     6    7    6 1
     7    8    6 1
     8    9    8 1
     9   10    9 ar
    10   11   10 ar
    11   12   11 ar
    12   13   12 ar
    13   14    9 ar
    14   15    8 1
    15   16   15 ar
    16   17   16 ar
    17   18   17 ar
    18   19   18 ar
    19   20   15 ar
    20   21    1 1
    21   22    1 1
    22   23    1 1
    23   24    5 1
    24   25    8 1
    25   26   10 1
    26   27   11 1
    27   28   12 1
    28   29   13 1
    29   30   14 1
    30   31   16 1
    31   32   17 1
    32   33   18 1
    33   34   19 1
    34   35   20 1
    35   13   14 ar
    36   19   20 ar
@<TRIPOS>SUBSTRUCTURE
     1 RES1 1

@<TRIPOS>CRYSIN
  10.1420   13.8510    9.9860  90.0000  99.9610  90.0000  14 2

