# MOL2 file generated by ConQuest
# Please check atom types

@<TRIPOS>MOLECULE
CEJWUM
    30    31     1
SMALL
NO_CHARGES
****
Generated from CSD

@<TRIPOS>ATOM
      1 N1         0.7823    2.0296    3.0120 N.am      1 RES1    0.0000
      2 O1        -0.8162    3.6194    3.0354 O.2       1 RES1    0.0000
      3 O2         2.0657    3.5776    4.6445 O.2       1 RES1    0.0000
      4 O3         1.6749    3.0060    2.5105 O.3       1 RES1    0.0000
      5 C1        -0.5112    2.4477    3.1048 C.2       1 RES1    0.0000
      6 C2        -1.5047    1.3535    3.4128 C.3       1 RES1    0.0000
      7 H1        -2.3400    1.5697    2.9699 H         1 RES1    0.0000
      8 H2        -1.6739    1.3588    4.3679 H         1 RES1    0.0000
      9 C3        -1.1055   -0.0552    3.0100 C.3       1 RES1    0.0000
     10 H3        -1.6720   -0.6879    3.4988 H         1 RES1    0.0000
     11 C4        -1.2522   -0.3339    1.5172 C.3       1 RES1    0.0000
     12 H4        -2.1662   -0.1506    1.2494 H         1 RES1    0.0000
     13 H5        -1.0771   -1.2738    1.3520 H         1 RES1    0.0000
     14 C5        -0.3050    0.5053    0.6657 C.3       1 RES1    0.0000
     15 H6        -0.3309    0.1856   -0.2503 H         1 RES1    0.0000
     16 H7        -0.6052    1.4273    0.6687 H         1 RES1    0.0000
     17 C6         1.0996    0.4435    1.1682 C.2       1 RES1    0.0000
     18 C7         1.2089    0.6768    2.6542 C.3       1 RES1    0.0000
     19 H8         2.1414    0.5523    2.9298 H         1 RES1    0.0000
     20 C8         0.3326   -0.2862    3.4245 C.3       1 RES1    0.0000
     21 H9         0.4315   -0.1357    4.3777 H         1 RES1    0.0000
     22 H10        0.5917   -1.2000    3.2309 H         1 RES1    0.0000
     23 C9         2.1322    0.1737    0.4174 C.2       1 RES1    0.0000
     24 H11        2.0158    0.0052   -0.4898 H         1 RES1    0.0000
     25 H12        2.9840    0.1498    0.7899 H         1 RES1    0.0000
     26 C10        2.2886    3.7237    3.4978 C.2       1 RES1    0.0000
     27 C11        3.2441    4.6815    2.8810 C.3       1 RES1    0.0000
     28 H13        3.2742    5.4850    3.4050 H         1 RES1    0.0000
     29 H14        2.9559    4.8909    1.9904 H         1 RES1    0.0000
     30 H15        4.1179    4.2865    2.8507 H         1 RES1    0.0000
@<TRIPOS>BOND
     1    1    4 1
     2    2    5 2
     3    3   26 2
     4    4   26 1
     5    5    1 1
     6    6    5 1
     7    7    6 1
     8    8    6 1
     9    9    6 1
    10   10    9 1
    11   11    9 1
    12   12   11 1
    13   13   11 1
    14   14   11 1
    15   15   14 1
    16   16   14 1
    17   17   14 1
    18   18    1 1
    19   19   18 1
    20   20    9 1
    21   21   20 1
    22   22   20 1
    23   23   17 2
    24   24   23 1
    25   25   23 1
    26   26   27 1
    27   27   28 1
    28   29   27 1
    29   30   27 1
    30   17   18 1
    31   18   20 1
@<TRIPOS>SUBSTRUCTURE
     1 RES1 1

@<TRIPOS>CRYSIN
   7.4542    7.4534    9.9750  90.0000 101.4660  90.0000   4 1

