# MOL2 file generated by ConQuest
# Please check atom types

@<TRIPOS>MOLECULE
CEJXEX
    37    38     1
SMALL
NO_CHARGES
****
Generated from CSD

@<TRIPOS>ATOM
      1 N1         3.1963    5.6702    6.5551 N.am      1 RES1    0.0000
      2 O1         1.7207    4.6573    7.9317 O.2       1 RES1    0.0000
      3 O2         1.3533    8.5208    6.4356 O.3       1 RES1    0.0000
      4 O3         4.1972    5.2611    7.4726 O.3       1 RES1    0.0000
      5 O4         4.2279    3.2772    6.4183 O.2       1 RES1    0.0000
      6 C1         1.9272    5.4346    7.0259 C.2       1 RES1    0.0000
      7 C2         0.8215    6.1320    6.2793 C.3       1 RES1    0.0000
      8 H1         0.1176    6.3515    6.9095 H         1 RES1    0.0000
      9 H2         0.4507    5.5116    5.6325 H         1 RES1    0.0000
     10 C3         1.2249    7.4034    5.5490 C.3       1 RES1    0.0000
     11 H3         0.5253    7.6126    4.8958 H         1 RES1    0.0000
     12 C4         2.5140    7.1636    4.7943 C.3       1 RES1    0.0000
     13 H4         2.7442    7.9434    4.2657 H         1 RES1    0.0000
     14 H5         2.4185    6.4050    4.1979 H         1 RES1    0.0000
     15 C5         3.5968    6.8885    5.8281 C.3       1 RES1    0.0000
     16 H6         4.4530    6.7363    5.3763 H         1 RES1    0.0000
     17 C6         3.7087    8.0879    6.7323 C.2       1 RES1    0.0000
     18 C7         2.4090    8.4335    7.4104 C.3       1 RES1    0.0000
     19 H7         2.1882    7.7071    8.0300 H         1 RES1    0.0000
     20 C8         2.3866    9.7298    8.1858 C.3       1 RES1    0.0000
     21 H8         2.5051   10.4677    7.5675 H         1 RES1    0.0000
     22 H9         3.1341    9.7394    8.8036 H         1 RES1    0.0000
     23 C9         1.1075    9.9419    8.9614 C.3       1 RES1    0.0000
     24 H10        0.3614    9.9475    8.3411 H         1 RES1    0.0000
     25 H11        0.9809    9.1957    9.5673 H         1 RES1    0.0000
     26 C10        1.0903   11.2226    9.7557 C.3       1 RES1    0.0000
     27 H12        1.1743   11.9702    9.1595 H         1 RES1    0.0000
     28 H13        1.8235   11.2246   10.3757 H         1 RES1    0.0000
     29 H14        0.2630   11.2898   10.2382 H         1 RES1    0.0000
     30 C11        4.8199    8.7829    6.8328 C.2       1 RES1    0.0000
     31 H15        5.5673    8.5391    6.3373 H         1 RES1    0.0000
     32 H16        4.8579    9.5190    7.4000 H         1 RES1    0.0000
     33 C12        4.5811    3.9571    7.3192 C.2       1 RES1    0.0000
     34 C13        5.4701    3.5706    8.4388 C.3       1 RES1    0.0000
     35 H17        5.7330    2.6526    8.3371 H         1 RES1    0.0000
     36 H18        5.0029    3.6792    9.2712 H         1 RES1    0.0000
     37 H19        6.2506    4.1296    8.4358 H         1 RES1    0.0000
@<TRIPOS>BOND
     1    1    4 1
     2    2    6 2
     3    3   10 1
     4    4   33 1
     5    5   33 2
     6    6    1 1
     7    7    6 1
     8    8    7 1
     9    9    7 1
    10   10    7 1
    11   11   10 1
    12   12   10 1
    13   13   12 1
    14   14   12 1
    15   15    1 1
    16   16   15 1
    17   17   15 1
    18   18    3 1
    19   19   18 1
    20   20   18 1
    21   21   20 1
    22   22   20 1
    23   23   20 1
    24   24   23 1
    25   25   23 1
    26   26   23 1
    27   27   26 1
    28   28   26 1
    29   29   26 1
    30   30   17 2
    31   31   30 1
    32   32   30 1
    33   33   34 1
    34   34   35 1
    35   36   34 1
    36   37   34 1
    37   12   15 1
    38   17   18 1
@<TRIPOS>SUBSTRUCTURE
     1 RES1 1

@<TRIPOS>CRYSIN
   7.0275    9.5628   10.4938  91.4070 108.0350  93.0040   2 1

