# MOL2 file generated by ConQuest
# Please check atom types

@<TRIPOS>MOLECULE
CEKDAZ
    44    45     1
SMALL
NO_CHARGES
****
Generated from CSD

@<TRIPOS>ATOM
      1 O1        -2.0133   -1.4008    6.5664 O.2       1 RES1    0.0000
      2 O2         3.0807   12.1551    1.8211 O.3       1 RES1    0.0000
      3 H1         3.4609   12.3872    1.1327 H         1 RES1    0.0000
      4 O3        -1.7019   -0.0789    8.2432 O.2       1 RES1    0.0000
      5 O4         1.0197    3.7969    3.4276 O.2       1 RES1    0.0000
      6 O5         1.8522    6.3024    0.5807 O.2       1 RES1    0.0000
      7 O6         3.3444    4.6473    0.6147 O.3       1 RES1    0.0000
      8 N1        -1.4323   -0.4756    7.1174 N.pl3     1 RES1    0.0000
      9 N2         3.1676    4.4196    3.2788 N.am      1 RES1    0.0000
     10 H2         3.9884    4.2023    3.4174 H         1 RES1    0.0000
     11 C1        -0.3640    0.2106    6.3798 C.ar      1 RES1    0.0000
     12 C2         0.2603    1.2947    6.9687 C.ar      1 RES1    0.0000
     13 H3         0.0167    1.5784    7.8190 H         1 RES1    0.0000
     14 C3         1.2481    1.9443    6.2692 C.ar      1 RES1    0.0000
     15 H4         1.6789    2.6726    6.6561 H         1 RES1    0.0000
     16 C4         1.6155    1.5283    4.9878 C.ar      1 RES1    0.0000
     17 C5         2.6946    2.2579    4.2312 C.3       1 RES1    0.0000
     18 H5         3.0247    1.6863    3.5219 H         1 RES1    0.0000
     19 H6         3.4333    2.4415    4.8333 H         1 RES1    0.0000
     20 C6         2.2069    3.5679    3.6280 C.2       1 RES1    0.0000
     21 C7         2.8714    5.7021    2.6734 C.3       1 RES1    0.0000
     22 H7         2.0669    6.0658    3.0985 H         1 RES1    0.0000
     23 C8         4.0409    6.6660    2.9440 C.3       1 RES1    0.0000
     24 H8         4.2792    6.6052    3.8820 H         1 RES1    0.0000
     25 H9         4.8082    6.3715    2.4276 H         1 RES1    0.0000
     26 C9         3.7688    8.1190    2.6113 C.ar      1 RES1    0.0000
     27 C10        2.8660    8.8589    3.3486 C.ar      1 RES1    0.0000
     28 H10        2.4019    8.4495    4.0415 H         1 RES1    0.0000
     29 C11        2.6352   10.2005    3.0781 C.ar      1 RES1    0.0000
     30 H11        2.0197   10.6790    3.5851 H         1 RES1    0.0000
     31 C12        3.3243   10.8245    2.0507 C.ar      1 RES1    0.0000
     32 C13        2.6150    5.5894    1.1844 C.2       1 RES1    0.0000
     33 C14        3.2162    4.5131   -0.8212 C.3       1 RES1    0.0000
     34 H12        2.3046    4.3114   -1.0447 H         1 RES1    0.0000
     35 H13        3.7850    3.8028   -1.1272 H         1 RES1    0.0000
     36 H14        3.4746    5.3350   -1.2427 H         1 RES1    0.0000
     37 C15        4.4462    8.7604    1.5913 C.ar      1 RES1    0.0000
     38 H15        5.0562    8.2799    1.0805 H         1 RES1    0.0000
     39 C16        4.2394   10.1015    1.3103 C.ar      1 RES1    0.0000
     40 H16        4.7153   10.5134    0.6268 H         1 RES1    0.0000
     41 C17        0.9671    0.4439    4.4310 C.ar      1 RES1    0.0000
     42 H17        1.2019    0.1644    3.5768 H         1 RES1    0.0000
     43 C18       -0.0255   -0.2364    5.1178 C.ar      1 RES1    0.0000
     44 H18       -0.4514   -0.9722    4.7398 H         1 RES1    0.0000
@<TRIPOS>BOND
     1    1    8 2
     2    2    3 1
     3    4    8 2
     4    5   20 2
     5    6   32 2
     6    7   32 1
     7    8   11 1
     8    9   10 1
     9   11   12 ar
    10   12   13 1
    11   14   12 ar
    12   15   14 1
    13   16   14 ar
    14   17   16 1
    15   18   17 1
    16   19   17 1
    17   20    9 1
    18   21    9 1
    19   22   21 1
    20   23   21 1
    21   24   23 1
    22   25   23 1
    23   26   23 1
    24   27   26 ar
    25   28   27 1
    26   29   27 ar
    27   30   29 1
    28   31    2 1
    29   32   21 1
    30   33    7 1
    31   34   33 1
    32   35   33 1
    33   36   33 1
    34   37   26 ar
    35   38   37 1
    36   39   31 ar
    37   40   39 1
    38   41   16 ar
    39   42   41 1
    40   43   11 ar
    41   44   43 1
    42   17   20 1
    43   29   31 ar
    44   37   39 ar
    45   41   43 ar
@<TRIPOS>SUBSTRUCTURE
     1 RES1 1

@<TRIPOS>CRYSIN
   4.9118   12.8431   27.4930  90.0000  90.0000  90.0000  19 1

