# MOL2 file generated by ConQuest
# Please check atom types

@<TRIPOS>MOLECULE
CEKKIM
    30    30     1
SMALL
NO_CHARGES
****
Generated from CSD

@<TRIPOS>ATOM
      1 O1         2.1866    6.6335    8.0283 O.3       1 RES1    0.0000
      2 O2         3.1450    5.7913    7.2586 O.3       1 RES1    0.0000
      3 O3         1.2789    4.8930    6.3822 O.2       1 RES1    0.0000
      4 O4         7.0600    2.3242    2.8874 O.2       1 RES1    0.0000
      5 O5         5.3828    1.3370    2.1444 O.2       1 RES1    0.0000
      6 N1         5.8967    2.1325    2.9164 N.pl3     1 RES1    0.0000
      7 C1         1.8690    4.9098    9.7245 C.3       1 RES1    0.0000
      8 C2         3.8453    6.5424    9.9270 C.3       1 RES1    0.0000
      9 C3         1.4440    7.3355   10.1027 C.3       1 RES1    0.0000
     10 C4         2.4079    6.3500    9.4632 C.3       1 RES1    0.0000
     11 C5         2.4376    5.0050    6.4589 C.2       1 RES1    0.0000
     12 C6         3.3543    4.2712    5.4790 C.ar      1 RES1    0.0000
     13 C7         4.7375    4.4877    5.5958 C.ar      1 RES1    0.0000
     14 C8         5.6319    3.7893    4.6704 C.ar      1 RES1    0.0000
     15 C9         5.0110    2.9082    3.7906 C.ar      1 RES1    0.0000
     16 C10        3.7065    2.6866    3.7728 C.ar      1 RES1    0.0000
     17 C11        2.8581    3.3870    4.6281 C.ar      1 RES1    0.0000
     18 H1         2.0658    4.6342   10.7512 H         1 RES1    0.0000
     19 H2         2.3511    4.2057    9.0627 H         1 RES1    0.0000
     20 H3         0.8047    4.8975    9.5455 H         1 RES1    0.0000
     21 H4         3.9225    6.2836   10.9736 H         1 RES1    0.0000
     22 H5         4.0921    7.5856    9.7968 H         1 RES1    0.0000
     23 H6         4.5299    5.9374    9.3542 H         1 RES1    0.0000
     24 H7         1.4710    7.2972   11.1827 H         1 RES1    0.0000
     25 H8         0.4662    7.0331    9.7557 H         1 RES1    0.0000
     26 H9         1.6486    8.3432    9.7735 H         1 RES1    0.0000
     27 H10        5.1285    5.1673    6.3399 H         1 RES1    0.0000
     28 H11        6.6992    3.9553    4.6682 H         1 RES1    0.0000
     29 H12        3.3112    1.9179    3.1210 H         1 RES1    0.0000
     30 H13        1.7889    3.2501    4.5636 H         1 RES1    0.0000
@<TRIPOS>BOND
     1    1    2 1
     2    2   11 1
     3    3   11 2
     4    4    6 2
     5    5    6 2
     6    6   15 1
     7    7   10 1
     8    8   10 1
     9    9   10 1
    10   10    1 1
    11   11   12 1
    12   12   13 ar
    13   13   14 ar
    14   14   15 ar
    15   15   16 ar
    16   16   17 ar
    17   17   12 ar
    18   18    7 1
    19   19    7 1
    20   20    7 1
    21   21    8 1
    22   22    8 1
    23   23    8 1
    24   24    9 1
    25   25    9 1
    26   26    9 1
    27   27   13 1
    28   28   14 1
    29   29   16 1
    30   30   17 1
@<TRIPOS>SUBSTRUCTURE
     1 RES1 1

@<TRIPOS>CRYSIN
   6.8920    8.0770   11.9700 106.9400 102.1100  93.3700   2 1

