# MOL2 file generated by ConQuest
# Please check atom types

@<TRIPOS>MOLECULE
CEKVIX
    19    19     1
SMALL
NO_CHARGES
****
Generated from CSD

@<TRIPOS>ATOM
      1 C1         2.9653    0.6733    1.7551 C.2       1 RES1    0.0000
      2 C2         2.3762    1.0827    3.0289 C.2       1 RES1    0.0000
      3 C3         1.8101    2.2143    3.4246 C.2       1 RES1    0.0000
      4 C4         1.5974    3.4497    2.7050 C.2       1 RES1    0.0000
      5 C5         1.9994    3.6445    1.3395 C.2       1 RES1    0.0000
      6 C6         2.5751    2.7892    0.5063 C.2       1 RES1    0.0000
      7 C7         0.1846    6.4898    3.5701 C.3       1 RES1    0.0000
      8 N1         2.9912    1.4859    0.6648 N.am      1 RES1    0.0000
      9 N2         1.0055    4.3525    3.4365 N.2       1 RES1    0.0000
     10 O1         3.4519   -0.4554    1.6585 O.2       1 RES1    0.0000
     11 O2         0.8135    5.5339    2.7179 O.3       1 RES1    0.0000
     12 H1         2.4413    0.3620    3.6678 H         1 RES1    0.0000
     13 H2         1.4619    2.2527    4.3355 H         1 RES1    0.0000
     14 H3         1.8048    4.5165    1.0166 H         1 RES1    0.0000
     15 H4         2.7507    3.0906   -0.3488 H         1 RES1    0.0000
     16 H5         3.4358    1.0985   -0.1495 H         1 RES1    0.0000
     17 H6         0.7838    6.6601    4.3355 H         1 RES1    0.0000
     18 H7         0.0377    7.2553    2.9801 H         1 RES1    0.0000
     19 H8        -0.7176    6.1393    3.8671 H         1 RES1    0.0000
@<TRIPOS>BOND
     1    1    2 1
     2    2    3 2
     3    3    4 1
     4    4    5 1
     5    5    6 2
     6    6    8 1
     7    7   11 1
     8    8    1 1
     9    9    4 2
    10   10    1 2
    11   11    9 1
    12   12    2 1
    13   13    3 1
    14   14    5 1
    15   15    6 1
    16   16    8 1
    17   17    7 1
    18   18    7 1
    19   19    7 1
@<TRIPOS>SUBSTRUCTURE
     1 RES1 1

@<TRIPOS>CRYSIN
   3.8770    9.5220   10.6740 107.9900  97.6600  98.5000   2 1

