# MOL2 file generated by ConQuest
# Please check atom types

@<TRIPOS>MOLECULE
CELBAW01
    11    11     1
SMALL
NO_CHARGES
****
Generated from CSD

@<TRIPOS>ATOM
      1 O1        -2.9844    4.5202    1.3507 O.2       1 RES1    0.0000
      2 O2        -2.9591    6.6977    1.3292 O.2       1 RES1    0.0000
      3 N1        -0.2643    4.4851    1.5976 N.2       1 RES1    0.0000
      4 N2        -2.4071    5.6010    1.3874 N.pl3     1 RES1    0.0000
      5 N3        -0.2547    6.7202    1.5510 N.3       1 RES1    0.0000
      6 C1        -0.9837    5.5885    1.5148 C.2       1 RES1    0.0000
      7 C2         1.0259    4.9337    1.6888 C.2       1 RES1    0.0000
      8 C3         1.0461    6.3167    1.6616 C.2       1 RES1    0.0000
      9 H1        -0.5828    7.6283    1.5067 H         1 RES1    0.0000
     10 H2         1.8957    4.3046    1.7693 H         1 RES1    0.0000
     11 H3         1.9150    6.9495    1.7172 H         1 RES1    0.0000
@<TRIPOS>BOND
     1    1    4 2
     2    2    4 2
     3    3    6 2
     4    4    6 1
     5    5    6 1
     6    7    3 1
     7    8    5 1
     8    9    5 1
     9   10    7 1
    10   11    8 1
    11    7    8 2
@<TRIPOS>SUBSTRUCTURE
     1 RES1 1

@<TRIPOS>CRYSIN
   7.3215    9.8106    6.7539  90.0000 115.7100  90.0000  14 1

