# MOL2 file generated by ConQuest
# Please check atom types

@<TRIPOS>MOLECULE
CELJUB
    40    43     1
SMALL
NO_CHARGES
****
Generated from CSD

@<TRIPOS>ATOM
      1 O1         5.6587   -0.0130    3.5823 O.2       1 RES1    0.0000
      2 O2         0.1762    1.8369    1.1855 O.2       1 RES1    0.0000
      3 O3         2.0263    3.7126    1.1759 O.3       1 RES1    0.0000
      4 O4         1.5682    2.8978    4.2363 O.2       1 RES1    0.0000
      5 O5         3.5800    3.8428    4.5940 O.3       1 RES1    0.0000
      6 N1         2.3358    2.3998    1.6010 N.am      1 RES1    0.0000
      7 N2         3.7503    1.1028    2.9585 N.am      1 RES1    0.0000
      8 C1         5.0938    0.9990    3.2048 C.2       1 RES1    0.0000
      9 C2         5.7317    2.3448    2.9291 C.3       1 RES1    0.0000
     10 H1         6.5438    2.2445    2.3722 H         1 RES1    0.0000
     11 H2         5.9742    2.8020    3.7736 H         1 RES1    0.0000
     12 C3         4.6462    3.1196    2.1799 C.3       1 RES1    0.0000
     13 H3         4.7557    3.0286    1.2006 H         1 RES1    0.0000
     14 H4         4.6659    4.0800    2.4188 H         1 RES1    0.0000
     15 C4         3.3427    2.4599    2.6526 C.3       1 RES1    0.0000
     16 C5         1.2183    1.5919    1.7569 C.2       1 RES1    0.0000
     17 C6         1.3946    0.3341    2.5750 C.3       1 RES1    0.0000
     18 H5         0.6921    0.3359    3.2867 H         1 RES1    0.0000
     19 C7         1.1843   -0.9544    1.7057 C.3       1 RES1    0.0000
     20 H6         0.2515   -1.1221    1.3878 H         1 RES1    0.0000
     21 C8         2.2556   -0.9297    0.6370 C.2       1 RES1    0.0000
     22 H7         2.1181   -0.7769   -0.2909 H         1 RES1    0.0000
     23 C9         3.4267   -1.1609    1.2307 C.2       1 RES1    0.0000
     24 H8         4.2747   -1.2022    0.8040 H         1 RES1    0.0000
     25 C10        3.1596   -1.3461    2.7121 C.3       1 RES1    0.0000
     26 H9         3.8605   -1.8396    3.2266 H         1 RES1    0.0000
     27 C11        2.7653    0.0659    3.2670 C.3       1 RES1    0.0000
     28 H10        2.6354    0.0120    4.2566 H         1 RES1    0.0000
     29 C12        1.7656   -1.9984    2.6715 C.3       1 RES1    0.0000
     30 H11        1.7784   -2.9112    2.2898 H         1 RES1    0.0000
     31 H12        1.3158   -2.0003    3.5535 H         1 RES1    0.0000
     32 C13        2.7127    3.1016    3.9155 C.2       1 RES1    0.0000
     33 C14        3.1032    4.3336    5.8754 C.3       1 RES1    0.0000
     34 H13        2.3378    4.9284    5.7327 H         1 RES1    0.0000
     35 H14        3.8216    4.8265    6.3243 H         1 RES1    0.0000
     36 H15        2.8292    3.5760    6.4338 H         1 RES1    0.0000
     37 C15        2.1472    3.7940   -0.2554 C.3       1 RES1    0.0000
     38 H16        1.5261    3.1612   -0.6721 H         1 RES1    0.0000
     39 H17        3.0644    3.5725   -0.5189 H         1 RES1    0.0000
     40 H18        1.9336    4.7041   -0.5499 H         1 RES1    0.0000
@<TRIPOS>BOND
     1    1    8 2
     2    2   16 2
     3    3    6 1
     4    4   32 2
     5    5   32 1
     6    6   15 1
     7    7    8 1
     8    8    9 1
     9    9   10 1
    10   11    9 1
    11   12    9 1
    12   13   12 1
    13   14   12 1
    14   15    7 1
    15   16    6 1
    16   17   16 1
    17   18   17 1
    18   19   17 1
    19   20   19 1
    20   21   19 1
    21   22   21 1
    22   23   21 2
    23   24   23 1
    24   25   23 1
    25   26   25 1
    26   27    7 1
    27   28   27 1
    28   29   19 1
    29   30   29 1
    30   31   29 1
    31   32   15 1
    32   33    5 1
    33   34   33 1
    34   35   33 1
    35   36   33 1
    36   37    3 1
    37   38   37 1
    38   39   37 1
    39   40   37 1
    40   12   15 1
    41   17   27 1
    42   25   27 1
    43   25   29 1
@<TRIPOS>SUBSTRUCTURE
     1 RES1 1

@<TRIPOS>CRYSIN
   8.3315    8.7788    9.8739  81.7780  82.0750  83.1410   2 1

