# MOL2 file generated by ConQuest
# Please check atom types

@<TRIPOS>MOLECULE
CELKEM
    37    40     1
SMALL
NO_CHARGES
****
Generated from CSD

@<TRIPOS>ATOM
      1 O1         4.3672    1.8943    2.5956 O.2       1 RES1    0.0000
      2 O2         4.2510    7.5228    5.2925 O.2       1 RES1    0.0000
      3 O3         5.0036    1.8347    5.1714 O.3       1 RES1    0.0000
      4 N1         4.6364    3.0378    4.5347 N.am      1 RES1    0.0000
      5 N2         4.6749    5.3775    4.6227 N.am      1 RES1    0.0000
      6 C1         4.5382    2.9542    3.1716 C.2       1 RES1    0.0000
      7 C2         4.5806    4.2563    2.4086 C.3       1 RES1    0.0000
      8 H1         5.3757    4.2272    1.8023 H         1 RES1    0.0000
      9 C3         3.3100    4.4204    1.5167 C.3       1 RES1    0.0000
     10 H2         3.2458    3.8099    0.7273 H         1 RES1    0.0000
     11 C4         2.1302    4.4128    2.4583 C.2       1 RES1    0.0000
     12 H3         1.4826    3.7227    2.5415 H         1 RES1    0.0000
     13 C5         2.1617    5.5452    3.1478 C.2       1 RES1    0.0000
     14 H4         1.5423    5.8092    3.8176 H         1 RES1    0.0000
     15 C6         3.3557    6.3401    2.6802 C.3       1 RES1    0.0000
     16 H5         3.3222    7.3249    2.8532 H         1 RES1    0.0000
     17 C7         4.6316    5.5996    3.1896 C.3       1 RES1    0.0000
     18 H6         5.4437    6.1121    2.9105 H         1 RES1    0.0000
     19 C8         3.4014    5.9168    1.2039 C.3       1 RES1    0.0000
     20 H7         2.6275    6.2496    0.6833 H         1 RES1    0.0000
     21 H8         4.2493    6.1663    0.7579 H         1 RES1    0.0000
     22 C9         4.5528    6.3702    5.5389 C.2       1 RES1    0.0000
     23 C10        4.8688    5.7887    6.9016 C.3       1 RES1    0.0000
     24 H9         4.1531    6.0028    7.5514 H         1 RES1    0.0000
     25 H10        5.7296    6.1392    7.2437 H         1 RES1    0.0000
     26 C11        4.9514    4.2816    6.6590 C.3       1 RES1    0.0000
     27 H11        4.0860    3.8410    6.8534 H         1 RES1    0.0000
     28 H12        5.6574    3.8691    7.2170 H         1 RES1    0.0000
     29 C12        5.2976    4.1819    5.1714 C.3       1 RES1    0.0000
     30 C13        6.7992    4.1397    4.9311 C.3       1 RES1    0.0000
     31 H13        7.1662    3.3094    5.3015 H         1 RES1    0.0000
     32 H14        7.2216    4.9074    5.3695 H         1 RES1    0.0000
     33 H15        6.9765    4.1741    3.9682 H         1 RES1    0.0000
     34 C14        3.8367    1.0808    5.5275 C.3       1 RES1    0.0000
     35 H16        3.2830    0.9409    4.7314 H         1 RES1    0.0000
     36 H17        3.3227    1.5729    6.2007 H         1 RES1    0.0000
     37 H18        4.1072    0.2127    5.8943 H         1 RES1    0.0000
@<TRIPOS>BOND
     1    1    6 2
     2    2   22 2
     3    3    4 1
     4    4    6 1
     5    5   17 1
     6    6    7 1
     7    7    8 1
     8    9    7 1
     9   10    9 1
    10   11    9 1
    11   12   11 1
    12   13   11 2
    13   14   13 1
    14   15   13 1
    15   16   15 1
    16   17    7 1
    17   18   17 1
    18   19    9 1
    19   20   19 1
    20   21   19 1
    21   22    5 1
    22   23   22 1
    23   24   23 1
    24   25   23 1
    25   26   23 1
    26   27   26 1
    27   28   26 1
    28   29    4 1
    29   30   29 1
    30   31   30 1
    31   32   30 1
    32   33   30 1
    33   34    3 1
    34   35   34 1
    35   36   34 1
    36   37   34 1
    37    5   29 1
    38   15   17 1
    39   15   19 1
    40   26   29 1
@<TRIPOS>SUBSTRUCTURE
     1 RES1 1

@<TRIPOS>CRYSIN
   9.4473   10.0314   13.7952  90.0000 105.0750  90.0000 231 1

