# MOL2 file generated by ConQuest
# Please check atom types

@<TRIPOS>MOLECULE
CEMVEV
    30    31     1
SMALL
NO_CHARGES
****
Generated from CSD

@<TRIPOS>ATOM
      1 C1         3.5371    6.3990    2.5280 C.ar      1 RES1    0.0000
      2 C2         4.3212    5.4582    1.9047 C.ar      1 RES1    0.0000
      3 C3         5.1012    4.5833    2.6523 C.ar      1 RES1    0.0000
      4 C4         5.0914    4.6523    4.0138 C.ar      1 RES1    0.0000
      5 C5         4.3002    5.5687    4.6430 C.ar      1 RES1    0.0000
      6 C6         3.5208    6.4494    3.9136 C.ar      1 RES1    0.0000
      7 C7         2.7298    7.3910    1.7152 C.3       1 RES1    0.0000
      8 C8         3.1630    8.8575    1.8306 C.3       1 RES1    0.0000
      9 C9         1.8335    9.6197    1.8154 C.3       1 RES1    0.0000
     10 C10        0.5248    6.3456    1.7045 C.3       1 RES1    0.0000
     11 C11       -0.9156    6.5310    2.1150 C.3       1 RES1    0.0000
     12 C12       -1.0801    6.6837    3.5529 C.1       1 RES1    0.0000
     13 C13        1.5079   10.2195    3.1227 C.1       1 RES1    0.0000
     14 N1         1.3453    7.4614    2.1958 N.3       1 RES1    0.0000
     15 N2        -1.2113    6.8201    4.6649 N.1       1 RES1    0.0000
     16 N3         1.2362   10.6969    4.1111 N.1       1 RES1    0.0000
     17 O1         0.8441    8.6357    1.4761 O.3       1 RES1    0.0000
     18 H1         4.3154    5.4122    0.9662 H         1 RES1    0.0000
     19 H2         5.6544    3.9517    2.1919 H         1 RES1    0.0000
     20 H3         5.6478    4.0406    4.5461 H         1 RES1    0.0000
     21 H4         4.2600    5.6495    5.5873 H         1 RES1    0.0000
     22 H5         2.9211    7.1026    4.3771 H         1 RES1    0.0000
     23 H6         2.7410    7.1152    0.7586 H         1 RES1    0.0000
     24 H7         3.7139    9.1118    1.0943 H         1 RES1    0.0000
     25 H8         3.6055    9.0822    2.7031 H         1 RES1    0.0000
     26 H9         1.8334   10.3203    1.1926 H         1 RES1    0.0000
     27 H10        0.6122    6.2426    0.7211 H         1 RES1    0.0000
     28 H11        0.8838    5.5286    2.0980 H         1 RES1    0.0000
     29 H12       -1.4438    5.7533    1.8540 H         1 RES1    0.0000
     30 H13       -1.3023    7.3621    1.7016 H         1 RES1    0.0000
@<TRIPOS>BOND
     1    1    2 ar
     2    2    3 ar
     3    3    4 ar
     4    4    5 ar
     5    5    6 ar
     6    6    1 ar
     7    7    1 1
     8    8    7 1
     9    9    8 1
    10   10   11 1
    11   11   12 1
    12   12   15 3
    13   13    9 1
    14   14    7 1
    15   16   13 3
    16   17    9 1
    17   18    2 1
    18   19    3 1
    19   20    4 1
    20   21    5 1
    21   22    6 1
    22   23    7 1
    23   24    8 1
    24   25    8 1
    25   26    9 1
    26   27   10 1
    27   28   10 1
    28   29   11 1
    29   30   11 1
    30   10   14 1
    31   14   17 1
@<TRIPOS>SUBSTRUCTURE
     1 RES1 1

@<TRIPOS>CRYSIN
  15.0900    7.4140   12.7210  90.0000 119.7700  90.0000  14 1

