# MOL2 file generated by ConQuest
# Please check atom types

@<TRIPOS>MOLECULE
CENCEE
    38    39     1
SMALL
NO_CHARGES
****
Generated from CSD

@<TRIPOS>ATOM
      1 O1         2.9312    2.2771    3.9712 O.3       1 RES1    0.0000
      2 O2         2.9063    3.4148    2.0558 O.2       1 RES1    0.0000
      3 O3         5.8746    4.5400    2.4456 O.2       1 RES1    0.0000
      4 N1         5.6280    3.3916    1.9154 N.pl3     1 RES1    0.0000
      5 C1         1.0481    1.9327    5.4275 C.3       1 RES1    0.0000
      6 H1         1.3112    0.9584    5.4430 H         1 RES1    0.0000
      7 C2         1.6851    2.6263    6.6269 C.3       1 RES1    0.0000
      8 H2         1.3419    3.5902    6.5372 H         1 RES1    0.0000
      9 H3         2.6771    2.5306    6.4985 H         1 RES1    0.0000
     10 C3         1.1685    2.0594    7.9428 C.3       1 RES1    0.0000
     11 H4         1.6110    2.5809    8.7538 H         1 RES1    0.0000
     12 H5         1.5037    1.0046    8.0958 H         1 RES1    0.0000
     13 C4        -0.3507    2.1176    8.0244 C.3       1 RES1    0.0000
     14 H6        -0.5776    3.1844    7.8531 H         1 RES1    0.0000
     15 H7        -0.6168    1.7445    8.8136 H         1 RES1    0.0000
     16 C5        -0.9852    1.4320    6.8299 C.3       1 RES1    0.0000
     17 H8        -1.9683    1.4957    6.9101 H         1 RES1    0.0000
     18 H9        -0.8486    0.3460    6.7729 H         1 RES1    0.0000
     19 C6        -0.4755    2.0100    5.5235 C.3       1 RES1    0.0000
     20 H10       -0.7480    2.9596    5.4394 H         1 RES1    0.0000
     21 H11       -0.9070    1.5826    4.7674 H         1 RES1    0.0000
     22 C7         1.4944    2.5163    4.1116 C.3       1 RES1    0.0000
     23 H12        1.3131    3.5105    3.9758 H         1 RES1    0.0000
     24 H13        1.0450    2.0857    3.3108 H         1 RES1    0.0000
     25 C8         3.4937    2.7698    2.8724 C.2       1 RES1    0.0000
     26 C9         4.9548    2.3377    2.7454 C.3       1 RES1    0.0000
     27 C10        5.0443    1.1035    1.8394 C.3       1 RES1    0.0000
     28 H14        4.2862    0.6091    1.8401 H         1 RES1    0.0000
     29 H15        5.7813    0.5828    2.1392 H         1 RES1    0.0000
     30 C11        5.3426    1.6416    0.4451 C.3       1 RES1    0.0000
     31 H16        4.4528    1.7070   -0.0880 H         1 RES1    0.0000
     32 H17        6.0217    1.0772   -0.1126 H         1 RES1    0.0000
     33 C12        5.8465    3.0002    0.7111 C.2       1 RES1    0.0000
     34 H18        6.3263    3.6038    0.0915 H         1 RES1    0.0000
     35 C13        5.6645    2.1910    4.0694 C.3       1 RES1    0.0000
     36 H19        5.7047    3.0704    4.5352 H         1 RES1    0.0000
     37 H20        6.6452    1.8952    3.7928 H         1 RES1    0.0000
     38 H21        5.2727    1.5292    4.6197 H         1 RES1    0.0000
@<TRIPOS>BOND
     1    1   22 1
     2    2   25 2
     3    3    4 1
     4    4   26 1
     5    5    6 1
     6    7    5 1
     7    8    7 1
     8    9    7 1
     9   10    7 1
    10   11   10 1
    11   12   10 1
    12   13   10 1
    13   14   13 1
    14   15   13 1
    15   16   13 1
    16   17   16 1
    17   18   16 1
    18   19    5 1
    19   20   19 1
    20   21   19 1
    21   22    5 1
    22   23   22 1
    23   24   22 1
    24   25    1 1
    25   26   25 1
    26   27   26 1
    27   28   27 1
    28   29   27 1
    29   30   27 1
    30   31   30 1
    31   32   30 1
    32   33    4 2
    33   34   33 1
    34   35   26 1
    35   36   35 1
    36   37   35 1
    37   38   35 1
    38   16   19 1
    39   30   33 1
@<TRIPOS>SUBSTRUCTURE
     1 RES1 1

@<TRIPOS>CRYSIN
   9.5780    7.9730   35.1840  90.0000  90.0000  90.0000  61 1

