# MOL2 file generated by ConQuest
# Please check atom types

@<TRIPOS>MOLECULE
CENMUD
    47    48     1
SMALL
NO_CHARGES
****
Generated from CSD

@<TRIPOS>ATOM
      1 C1         0.8418    4.7031    2.1392 C.ar      1 RES1    0.0000
      2 C2         2.0668    4.8934    2.7001 C.ar      1 RES1    0.0000
      3 C3         3.2322    4.2325    2.3018 C.ar      1 RES1    0.0000
      4 C4         3.1411    3.3368    1.2887 C.ar      1 RES1    0.0000
      5 C5         1.8175    2.1649   -0.4564 C.ar      1 RES1    0.0000
      6 C6         0.6317    2.0265   -1.1239 C.ar      1 RES1    0.0000
      7 C7        -0.5271    2.7547   -0.7958 C.ar      1 RES1    0.0000
      8 C8        -0.4628    3.6178    0.2819 C.ar      1 RES1    0.0000
      9 C9         0.7348    3.8168    1.0244 C.ar      1 RES1    0.0000
     10 C10        1.9008    3.0948    0.6135 C.ar      1 RES1    0.0000
     11 C11        2.9414    1.2607   -0.9157 C.2       1 RES1    0.0000
     12 C12        3.8208    1.7486   -2.0242 C.3       1 RES1    0.0000
     13 C13        4.9047    0.7652   -2.4189 C.3       1 RES1    0.0000
     14 C14       -1.7955    2.5681   -1.5909 C.3       1 RES1    0.0000
     15 C15       -1.0376    4.6686    3.5365 C.3       1 RES1    0.0000
     16 C16        5.4979    2.9055    1.3167 C.3       1 RES1    0.0000
     17 C17        0.0858   -0.1472   -1.9281 C.3       1 RES1    0.0000
     18 C18       -1.7988    5.5562    0.0715 C.3       1 RES1    0.0000
     19 N1         2.1966    5.8444    3.8205 N.pl3     1 RES1    0.0000
     20 O1         2.0057    6.9882    3.6536 O.2       1 RES1    0.0000
     21 O2         2.6951    5.4505    4.8477 O.2       1 RES1    0.0000
     22 O3         4.1861    2.6258    0.8217 O.3       1 RES1    0.0000
     23 O4         3.0178    0.1476   -0.4473 O.2       1 RES1    0.0000
     24 O5         0.6028    1.1669   -2.2121 O.3       1 RES1    0.0000
     25 O6        -1.6285    4.2618    0.6366 O.3       1 RES1    0.0000
     26 O7        -0.2268    5.4042    2.6201 O.3       1 RES1    0.0000
     27 H1         4.1642    4.4803    2.8045 H         1 RES1    0.0000
     28 H2         4.1733    2.6223   -1.8230 H         1 RES1    0.0000
     29 H3         3.2070    2.1268   -2.7485 H         1 RES1    0.0000
     30 H4         5.3693    1.1072   -3.1481 H         1 RES1    0.0000
     31 H5         5.5644    0.4596   -1.6827 H         1 RES1    0.0000
     32 H6         4.3526   -0.0987   -2.9448 H         1 RES1    0.0000
     33 H7        -1.6643    2.2917   -2.4470 H         1 RES1    0.0000
     34 H8        -2.5881    1.9414   -0.9676 H         1 RES1    0.0000
     35 H9        -2.0577    3.2328   -1.6968 H         1 RES1    0.0000
     36 H10       -1.3699    3.8200    3.1201 H         1 RES1    0.0000
     37 H11       -1.8085    4.9112    3.7300 H         1 RES1    0.0000
     38 H12       -0.6641    4.4271    4.2980 H         1 RES1    0.0000
     39 H13        5.5529    3.5923    0.9465 H         1 RES1    0.0000
     40 H14        6.2013    2.3473    0.7502 H         1 RES1    0.0000
     41 H15        5.4407    2.7496    2.3628 H         1 RES1    0.0000
     42 H16       -0.8744   -0.0564   -1.6827 H         1 RES1    0.0000
     43 H17        0.1256   -0.5340   -2.8466 H         1 RES1    0.0000
     44 H18        0.7598   -0.6132   -1.3602 H         1 RES1    0.0000
     45 H19       -1.6883    5.6489   -0.8203 H         1 RES1    0.0000
     46 H20       -1.0732    6.2044    0.3576 H         1 RES1    0.0000
     47 H21       -2.4869    5.9726    0.3716 H         1 RES1    0.0000
@<TRIPOS>BOND
     1    1    2 ar
     2    2    3 ar
     3    3    4 ar
     4    4   10 ar
     5    5    6 ar
     6    6    7 ar
     7    7    8 ar
     8    8    9 ar
     9    9    1 ar
    10   10    5 ar
    11   11    5 1
    12   12   11 1
    13   13   12 1
    14   14    7 1
    15   15   26 1
    16   16   22 1
    17   17   24 1
    18   18   25 1
    19   19    2 1
    20   20   19 2
    21   21   19 2
    22   22    4 1
    23   23   11 2
    24   24    6 1
    25   25    8 1
    26   26    1 1
    27   27    3 1
    28   28   12 1
    29   29   12 1
    30   30   13 1
    31   31   13 1
    32   32   13 1
    33   33   14 1
    34   34   14 1
    35   35   14 1
    36   36   15 1
    37   37   15 1
    38   38   15 1
    39   39   16 1
    40   40   16 1
    41   41   16 1
    42   42   17 1
    43   43   17 1
    44   44   17 1
    45   45   18 1
    46   46   18 1
    47   47   18 1
    48    9   10 ar
@<TRIPOS>SUBSTRUCTURE
     1 RES1 1

@<TRIPOS>CRYSIN
  10.0560   12.9010    7.3590  88.2700 107.5800  89.6700   2 1

