# MOL2 file generated by ConQuest
# Please check atom types

@<TRIPOS>MOLECULE
CEPQEU
    47    50     1
SMALL
NO_CHARGES
****
Generated from CSD

@<TRIPOS>ATOM
      1 O1         2.9806    3.3725    4.5128 O.3       1 RES1    0.0000
      2 C1         2.9775    2.9930    5.9281 C.3       1 RES1    0.0000
      3 H1         3.1050    2.0217    5.9625 H         1 RES1    0.0000
      4 C2         4.1775    3.6289    6.6568 C.3       1 RES1    0.0000
      5 N1         5.3481    3.0697    5.9524 N.pl3     1 RES1    0.0000
      6 H2         6.0882    3.2087    6.3208 H         1 RES1    0.0000
      7 C3         5.3780    3.1629    4.5737 C.ar      1 RES1    0.0000
      8 C4         6.5595    3.0588    3.8403 C.ar      1 RES1    0.0000
      9 H3         7.3708    2.9243    4.2744 H         1 RES1    0.0000
     10 C5         6.5142    3.1569    2.4599 C.ar      1 RES1    0.0000
     11 C6         5.3434    3.3575    1.7632 C.ar      1 RES1    0.0000
     12 H4         5.3442    3.4411    0.8364 H         1 RES1    0.0000
     13 C7         4.1661    3.4298    2.4847 C.ar      1 RES1    0.0000
     14 H5         3.3605    3.5600    2.0388 H         1 RES1    0.0000
     15 C8         4.1744    3.3111    3.8624 C.ar      1 RES1    0.0000
     16 N2         1.6792    3.2615    6.4650 N.3       1 RES1    0.0000
     17 C9         1.0003    4.4936    6.0243 C.3       1 RES1    0.0000
     18 H6         0.7501    4.4165    5.0909 H         1 RES1    0.0000
     19 H7         1.5996    5.2514    6.1174 H         1 RES1    0.0000
     20 C10       -0.2271    4.7052    6.8673 C.3       1 RES1    0.0000
     21 H8         0.0342    4.8125    7.7960 H         1 RES1    0.0000
     22 H9        -0.6747    5.5192    6.5869 H         1 RES1    0.0000
     23 O2        -1.1243    3.6104    6.7528 O.3       1 RES1    0.0000
     24 C11       -0.4830    2.4051    7.1306 C.3       1 RES1    0.0000
     25 H10       -1.1007    1.6650    7.0194 H         1 RES1    0.0000
     26 H11       -0.2391    2.4522    8.0688 H         1 RES1    0.0000
     27 C12        0.7487    2.1518    6.3094 C.3       1 RES1    0.0000
     28 H12        1.1713    1.3276    6.5984 H         1 RES1    0.0000
     29 H13        0.5057    2.0571    5.3751 H         1 RES1    0.0000
     30 C13        4.1851    5.1578    6.6478 C.3       1 RES1    0.0000
     31 H14        4.1762    5.4722    5.7306 H         1 RES1    0.0000
     32 H15        3.3826    5.4844    7.0831 H         1 RES1    0.0000
     33 C14        5.4103    5.7222    7.3616 C.3       1 RES1    0.0000
     34 H16        6.2136    5.4527    6.8892 H         1 RES1    0.0000
     35 H17        5.3701    6.6907    7.3588 H         1 RES1    0.0000
     36 C15        5.4703    5.2234    8.7835 C.3       1 RES1    0.0000
     37 H18        4.7331    5.6069    9.2835 H         1 RES1    0.0000
     38 H19        6.2959    5.5294    9.1904 H         1 RES1    0.0000
     39 C16        5.4017    3.7084    8.8824 C.3       1 RES1    0.0000
     40 H20        5.3232    3.4525    9.8148 H         1 RES1    0.0000
     41 H21        6.2234    3.3274    8.5364 H         1 RES1    0.0000
     42 C17        4.2112    3.1366    8.1000 C.3       1 RES1    0.0000
     43 H22        4.2634    2.1686    8.1049 H         1 RES1    0.0000
     44 H23        3.3877    3.3934    8.5431 H         1 RES1    0.0000
     45 N3         7.7730    3.0568    1.7204 N.pl3     1 RES1    0.0000
     46 O3         8.7992    2.7839    2.3335 O.2       1 RES1    0.0000
     47 O4         7.7529    3.2392    0.5133 O.2       1 RES1    0.0000
@<TRIPOS>BOND
     1    1    2 1
     2    2    3 1
     3    4    2 1
     4    5    4 1
     5    6    5 1
     6    7    5 1
     7    8    7 ar
     8    9    8 1
     9   10    8 ar
    10   11   10 ar
    11   12   11 1
    12   13   11 ar
    13   14   13 1
    14   15    1 1
    15   16    2 1
    16   17   16 1
    17   18   17 1
    18   19   17 1
    19   20   17 1
    20   21   20 1
    21   22   20 1
    22   23   20 1
    23   24   23 1
    24   25   24 1
    25   26   24 1
    26   27   16 1
    27   28   27 1
    28   29   27 1
    29   30    4 1
    30   31   30 1
    31   32   30 1
    32   33   30 1
    33   34   33 1
    34   35   33 1
    35   36   33 1
    36   37   36 1
    37   38   36 1
    38   39   36 1
    39   40   39 1
    40   41   39 1
    41   42    4 1
    42   43   42 1
    43   44   42 1
    44   45   10 1
    45   46   45 2
    46   47   45 2
    47    7   15 ar
    48   13   15 ar
    49   24   27 1
    50   39   42 1
@<TRIPOS>SUBSTRUCTURE
     1 RES1 1

@<TRIPOS>CRYSIN
   9.3730    9.8020   10.3910  71.7900  70.1800  72.2900   2 1

