# MOL2 file generated by ConQuest
# Please check atom types

@<TRIPOS>MOLECULE
CEQCEG
    70    73     1
SMALL
NO_CHARGES
****
Generated from CSD

@<TRIPOS>ATOM
      1 O1         0.4214   -7.0085    0.3480 O.2       1 RES1    0.0000
      2 O2         1.6841   -5.9762    1.7648 O.2       1 RES1    0.0000
      3 N1         0.8547   -6.0062    0.8804 N.pl3     1 RES1    0.0000
      4 N2         5.5103    4.4306    5.0142 N.3       1 RES1    0.0000
      5 C1        -0.6816   -2.3115   -0.4896 C.ar      1 RES1    0.0000
      6 C2        -1.1944   -3.5239   -0.9632 C.ar      1 RES1    0.0000
      7 C3        -0.7090   -4.7079   -0.5195 C.ar      1 RES1    0.0000
      8 C4         0.2982   -4.7179    0.4018 C.ar      1 RES1    0.0000
      9 C5         0.8421   -3.5604    0.9103 C.ar      1 RES1    0.0000
     10 C6         0.3403   -2.3368    0.4726 C.ar      1 RES1    0.0000
     11 C7         0.8454   -1.1309    1.0040 C.1       1 RES1    0.0000
     12 C8         1.2591   -0.0781    1.4378 C.1       1 RES1    0.0000
     13 C9         1.7383    1.1231    1.9163 C.1       1 RES1    0.0000
     14 C10        2.1887    2.1466    2.3381 C.1       1 RES1    0.0000
     15 C11        2.7338    3.3646    2.8247 C.ar      1 RES1    0.0000
     16 C12        3.8130    3.3290    3.6931 C.ar      1 RES1    0.0000
     17 C13        4.4308    4.4874    4.1787 C.ar      1 RES1    0.0000
     18 C14        3.8958    5.7101    3.7559 C.ar      1 RES1    0.0000
     19 C15        2.8392    5.7598    2.8895 C.ar      1 RES1    0.0000
     20 C16        2.2340    4.6114    2.3889 C.ar      1 RES1    0.0000
     21 C17        1.1797    4.6614    1.4338 C.1       1 RES1    0.0000
     22 C18        0.2974    4.6767    0.6291 C.1       1 RES1    0.0000
     23 C19       -0.6830    4.6807   -0.3360 C.1       1 RES1    0.0000
     24 C20       -1.5022    4.6795   -1.2234 C.1       1 RES1    0.0000
     25 C21       -2.4820    4.6720   -2.2394 C.ar      1 RES1    0.0000
     26 C22       -3.0047    5.8666   -2.7579 C.ar      1 RES1    0.0000
     27 C23       -3.9527    5.8616   -3.7340 C.ar      1 RES1    0.0000
     28 C24       -4.3878    4.6836   -4.2624 C.ar      1 RES1    0.0000
     29 C25       -3.9153    3.4814   -3.7968 C.ar      1 RES1    0.0000
     30 C26       -2.9474    3.4674   -2.7808 C.ar      1 RES1    0.0000
     31 C27       -2.4364    2.2231   -2.2922 C.1       1 RES1    0.0000
     32 C28       -2.0411    1.1793   -1.8804 C.1       1 RES1    0.0000
     33 C29       -1.5681   -0.0219   -1.4009 C.1       1 RES1    0.0000
     34 C30       -1.1706   -1.0538   -0.9811 C.1       1 RES1    0.0000
     35 C31        5.9590    3.1744    5.5835 C.3       1 RES1    0.0000
     36 C32        6.9883    2.4639    4.6792 C.3       1 RES1    0.0000
     37 C33        7.6624    1.3448    5.3033 C.3       1 RES1    0.0000
     38 C34        8.7231    0.6809    4.4848 C.3       1 RES1    0.0000
     39 C35        6.3779    5.5840    5.2645 C.3       1 RES1    0.0000
     40 C36        6.1157    6.2636    6.5756 C.3       1 RES1    0.0000
     41 C37        7.1201    7.3317    6.9056 C.3       1 RES1    0.0000
     42 C38        6.9030    7.9357    8.2616 C.3       1 RES1    0.0000
     43 H1        -1.8950   -3.5167   -1.6043 H         1 RES1    0.0000
     44 H2        -1.0647   -5.5249   -0.8485 H         1 RES1    0.0000
     45 H3         1.5474   -3.5948    1.5474 H         1 RES1    0.0000
     46 H4         4.1473    2.4829    3.9703 H         1 RES1    0.0000
     47 H5         4.2747    6.5212    4.0770 H         1 RES1    0.0000
     48 H6         2.5076    6.6087    2.6193 H         1 RES1    0.0000
     49 H7        -2.6897    6.6961   -2.4189 H         1 RES1    0.0000
     50 H8        -4.3104    6.6836   -4.0500 H         1 RES1    0.0000
     51 H9        -5.0284    4.6942   -4.9624 H         1 RES1    0.0000
     52 H10       -4.2405    2.6672   -4.1587 H         1 RES1    0.0000
     53 H11        6.3612    3.3481    6.4270 H         1 RES1    0.0000
     54 H12        5.2089    2.6047    5.7002 H         1 RES1    0.0000
     55 H13        6.5348    2.1456    3.9075 H         1 RES1    0.0000
     56 H14        7.6449    3.1013    4.4200 H         1 RES1    0.0000
     57 H15        8.0680    1.6584    6.1030 H         1 RES1    0.0000
     58 H16        7.0070    0.6902    5.5147 H         1 RES1    0.0000
     59 H17        9.1008   -0.0375    4.9803 H         1 RES1    0.0000
     60 H18        8.3409    0.3467    3.6831 H         1 RES1    0.0000
     61 H19        9.4024    1.3117    4.2744 H         1 RES1    0.0000
     62 H20        7.2814    5.2876    5.2555 H         1 RES1    0.0000
     63 H21        6.2467    6.2152    4.5665 H         1 RES1    0.0000
     64 H22        5.2537    6.6618    6.5407 H         1 RES1    0.0000
     65 H23        6.1356    5.6093    7.2626 H         1 RES1    0.0000
     66 H24        7.9903    6.9491    6.8797 H         1 RES1    0.0000
     67 H25        7.0580    8.0204    6.2535 H         1 RES1    0.0000
     68 H26        6.9660    7.2583    8.9247 H         1 RES1    0.0000
     69 H27        7.5662    8.5982    8.4241 H         1 RES1    0.0000
     70 H28        6.0421    8.3358    8.2975 H         1 RES1    0.0000
@<TRIPOS>BOND
     1    1    3 2
     2    2    3 2
     3    3    8 1
     4    4   17 1
     5    5    6 ar
     6    6    7 ar
     7    7    8 ar
     8    8    9 ar
     9    9   10 ar
    10   10    5 ar
    11   11   10 1
    12   12   11 3
    13   13   12 1
    14   14   13 3
    15   15   14 1
    16   16   15 ar
    17   17   16 ar
    18   18   17 ar
    19   19   18 ar
    20   20   15 ar
    21   21   20 1
    22   22   21 3
    23   23   22 1
    24   24   23 3
    25   25   24 1
    26   26   25 ar
    27   27   26 ar
    28   28   27 ar
    29   29   28 ar
    30   30   25 ar
    31   31   30 1
    32   32   31 3
    33   33   32 1
    34   34    5 1
    35   35    4 1
    36   36   35 1
    37   37   36 1
    38   38   37 1
    39   39    4 1
    40   40   39 1
    41   41   40 1
    42   42   41 1
    43   43    6 1
    44   44    7 1
    45   45    9 1
    46   46   16 1
    47   47   18 1
    48   48   19 1
    49   49   26 1
    50   50   27 1
    51   51   28 1
    52   52   29 1
    53   53   35 1
    54   54   35 1
    55   55   36 1
    56   56   36 1
    57   57   37 1
    58   58   37 1
    59   59   38 1
    60   60   38 1
    61   61   38 1
    62   62   39 1
    63   63   39 1
    64   64   40 1
    65   65   40 1
    66   66   41 1
    67   67   41 1
    68   68   42 1
    69   69   42 1
    70   70   42 1
    71   19   20 ar
    72   29   30 ar
    73   33   34 3
@<TRIPOS>SUBSTRUCTURE
     1 RES1 1

