# MOL2 file generated by ConQuest
# Please check atom types

@<TRIPOS>MOLECULE
CEQGUB
    24    24     1
SMALL
NO_CHARGES
****
Generated from CSD

@<TRIPOS>ATOM
      1 C1         1.7069   10.3289    9.6119 C.ar      1 RES1    0.0000
      2 H1         1.3422    9.7452   10.3297 H         1 RES1    0.0000
      3 C2         2.9603   10.0680    9.0599 C.ar      1 RES1    0.0000
      4 C3         3.4727   10.9510    8.0937 C.ar      1 RES1    0.0000
      5 C4         2.7254   12.0319    7.6680 C.ar      1 RES1    0.0000
      6 H2         3.1219   12.6267    7.0117 H         1 RES1    0.0000
      7 C5         1.4775   12.2644    8.1887 C.ar      1 RES1    0.0000
      8 C6         0.9464   11.4185    9.2008 C.ar      1 RES1    0.0000
      9 O1         3.7084    9.0122    9.4240 O.3       1 RES1    0.0000
     10 C7         3.2135    8.1585   10.4769 C.3       1 RES1    0.0000
     11 H3         2.3974    7.7417   10.2254 H         1 RES1    0.0000
     12 H4         3.9228    7.4202   10.5593 H         1 RES1    0.0000
     13 H5         3.0830    8.6569   11.3419 H         1 RES1    0.0000
     14 N1         4.8016   10.8038    7.5073 N.pl3     1 RES1    0.0000
     15 O2         5.3455    9.7056    7.5365 O.2       1 RES1    0.0000
     16 O3         5.3050   11.8062    7.0039 O.2       1 RES1    0.0000
     17 N2         0.7238   13.3799    7.6325 N.pl3     1 RES1    0.0000
     18 O4         0.9693   13.6774    6.4504 O.2       1 RES1    0.0000
     19 O5        -0.0891   13.9714    8.3264 O.2       1 RES1    0.0000
     20 O6        -0.2670   11.6930    9.6949 O.3       1 RES1    0.0000
     21 C8        -0.8340   10.7568   10.6480 C.3       1 RES1    0.0000
     22 H6        -0.8517    9.9060   10.2045 H         1 RES1    0.0000
     23 H7        -0.2981   10.7098   11.4671 H         1 RES1    0.0000
     24 H8        -1.6802   11.1056   10.8410 H         1 RES1    0.0000
@<TRIPOS>BOND
     1    1    2 1
     2    3    1 ar
     3    4    3 ar
     4    5    4 ar
     5    6    5 1
     6    7    5 ar
     7    8    1 ar
     8    9    3 1
     9   10    9 1
    10   11   10 1
    11   12   10 1
    12   13   10 1
    13   14    4 1
    14   15   14 2
    15   16   14 2
    16   17    7 1
    17   18   17 2
    18   19   17 2
    19   20    8 1
    20   21   20 1
    21   22   21 1
    22   23   21 1
    23   24   21 1
    24    7    8 ar
@<TRIPOS>SUBSTRUCTURE
     1 RES1 1

@<TRIPOS>CRYSIN
   7.1020   12.3670   10.5920  90.0000  99.9060  90.0000 231 1

