# MOL2 file generated by ConQuest
# Please check atom types

@<TRIPOS>MOLECULE
CERWUU
    44    46     1
SMALL
NO_CHARGES
****
Generated from CSD

@<TRIPOS>ATOM
      1 O1         6.7165    1.8509    7.1734 O.3       1 RES1    0.0000
      2 O2         8.8735    1.5320   14.5237 O.3       1 RES1    0.0000
      3 O3         1.8833    3.6757   11.8112 O.3       1 RES1    0.0000
      4 O4         0.1966    1.6889   11.2838 O.3       1 RES1    0.0000
      5 O5         0.9852   -0.4747    9.8553 O.3       1 RES1    0.0000
      6 N1         7.4974    1.8840    8.3427 N.2       1 RES1    0.0000
      7 C1         6.6531    1.7826    9.3481 C.2       1 RES1    0.0000
      8 C2         5.2985    1.6704    8.8800 C.2       1 RES1    0.0000
      9 C3         5.4244    1.7176    7.5369 C.2       1 RES1    0.0000
     10 H1         4.6981    1.6640    6.9275 H         1 RES1    0.0000
     11 C4         7.1907    1.7311   10.7192 C.ar      1 RES1    0.0000
     12 C5         8.4560    2.2689   11.0085 C.ar      1 RES1    0.0000
     13 H2         8.9491    2.6996   10.3212 H         1 RES1    0.0000
     14 C6         8.9922    2.1811   12.2752 C.ar      1 RES1    0.0000
     15 H3         9.8486    2.5496   12.4547 H         1 RES1    0.0000
     16 C7         8.2771    1.5512   13.2917 C.ar      1 RES1    0.0000
     17 C8         7.0302    0.9956   13.0218 C.ar      1 RES1    0.0000
     18 H4         6.5457    0.5521   13.7079 H         1 RES1    0.0000
     19 C9         6.5009    1.0934   11.7450 C.ar      1 RES1    0.0000
     20 H5         5.6477    0.7170   11.5656 H         1 RES1    0.0000
     21 C10        8.0912    1.0113   15.6031 C.3       1 RES1    0.0000
     22 H6         8.6078    1.0598   16.4348 H         1 RES1    0.0000
     23 H7         7.8574    0.0778   15.4179 H         1 RES1    0.0000
     24 H8         7.2718    1.5405   15.6979 H         1 RES1    0.0000
     25 C11        4.0144    1.6126    9.6213 C.ar      1 RES1    0.0000
     26 C12        3.6326    2.6767   10.4407 C.ar      1 RES1    0.0000
     27 H9         4.2305    3.3980   10.5995 H         1 RES1    0.0000
     28 C13        2.3709    2.6710   11.0232 C.ar      1 RES1    0.0000
     29 C14        1.4820    1.6090   10.7981 C.ar      1 RES1    0.0000
     30 C15        1.8948    0.5371   10.0070 C.ar      1 RES1    0.0000
     31 C16        3.1545    0.5378    9.4137 C.ar      1 RES1    0.0000
     32 H10        3.4256   -0.1921    8.8702 H         1 RES1    0.0000
     33 C17        2.7791    4.7285   12.1738 C.3       1 RES1    0.0000
     34 H11        2.3116    5.3720   12.7470 H         1 RES1    0.0000
     35 H12        3.0961    5.1813   11.3643 H         1 RES1    0.0000
     36 H13        3.5432    4.3543   12.6595 H         1 RES1    0.0000
     37 C18       -0.0500    0.9756   12.4854 C.3       1 RES1    0.0000
     38 H14       -1.0119    0.9691   12.6700 H         1 RES1    0.0000
     39 H15        0.4216    1.4105   13.2266 H         1 RES1    0.0000
     40 H16        0.2699    0.0543   12.3900 H         1 RES1    0.0000
     41 C19        1.3070   -1.4855    8.8900 C.3       1 RES1    0.0000
     42 H17        0.5568   -2.1104    8.8090 H         1 RES1    0.0000
     43 H18        2.1077   -1.9711    9.1800 H         1 RES1    0.0000
     44 H19        1.4766   -1.0648    8.0214 H         1 RES1    0.0000
@<TRIPOS>BOND
     1    1    6 1
     2    2   16 1
     3    3   28 1
     4    4   29 1
     5    5   30 1
     6    6    7 2
     7    7    8 1
     8    8    9 2
     9    9    1 1
    10   10    9 1
    11   11    7 1
    12   12   11 ar
    13   13   12 1
    14   14   12 ar
    15   15   14 1
    16   16   14 ar
    17   17   16 ar
    18   18   17 1
    19   19   11 ar
    20   20   19 1
    21   21    2 1
    22   22   21 1
    23   23   21 1
    24   24   21 1
    25   25    8 1
    26   26   25 ar
    27   27   26 1
    28   28   26 ar
    29   29   28 ar
    30   30   29 ar
    31   31   25 ar
    32   32   31 1
    33   33    3 1
    34   34   33 1
    35   35   33 1
    36   36   33 1
    37   37    4 1
    38   38   37 1
    39   39   37 1
    40   40   37 1
    41   41    5 1
    42   42   41 1
    43   43   41 1
    44   44   41 1
    45   17   19 ar
    46   30   31 ar
@<TRIPOS>SUBSTRUCTURE
     1 RES1 1

@<TRIPOS>CRYSIN
  13.1877    7.1417   17.5042  90.0000  90.8130  90.0000 231 1

