# MOL2 file generated by ConQuest
# Please check atom types

@<TRIPOS>MOLECULE
CESCAH
    28    30     1
SMALL
NO_CHARGES
****
Generated from CSD

@<TRIPOS>ATOM
      1 O1         0.7378    5.1752    6.5958 O.3       1 RES1    0.0000
      2 N1         1.1361    4.1239    7.4392 N.2       1 RES1    0.0000
      3 C1         0.1369    3.6122    8.0295 C.2       1 RES1    0.0000
      4 H1        -0.7186    3.9068    7.8161 H         1 RES1    0.0000
      5 C2         0.3070    2.5645    9.0401 C.ar      1 RES1    0.0000
      6 C3         1.4528    2.4998    9.7646 C.ar      1 RES1    0.0000
      7 H2         2.1384    3.0956    9.5661 H         1 RES1    0.0000
      8 C4         1.6500    1.5615   10.8141 C.ar      1 RES1    0.0000
      9 C5         2.8478    1.5396   11.5464 C.ar      1 RES1    0.0000
     10 H3         3.5344    2.1268   11.3259 H         1 RES1    0.0000
     11 C6         3.0133    0.6639   12.5808 C.ar      1 RES1    0.0000
     12 H4         3.8097    0.6550   13.0616 H         1 RES1    0.0000
     13 C7         1.9938   -0.2103   12.9145 C.ar      1 RES1    0.0000
     14 H5         2.1125   -0.8067   13.6178 H         1 RES1    0.0000
     15 C8         0.8179   -0.2108   12.2245 C.ar      1 RES1    0.0000
     16 H6         0.1456   -0.8067   12.4645 H         1 RES1    0.0000
     17 C9         0.6067    0.6793   11.1528 C.ar      1 RES1    0.0000
     18 C10       -0.6305    0.7171   10.3898 C.ar      1 RES1    0.0000
     19 C11       -1.6971   -0.1651   10.6442 C.ar      1 RES1    0.0000
     20 H7        -1.6196   -0.7778   11.3399 H         1 RES1    0.0000
     21 C12       -2.8409   -0.1492    9.9021 C.ar      1 RES1    0.0000
     22 H8        -3.5285   -0.7454   10.0919 H         1 RES1    0.0000
     23 C13       -2.9764    0.7579    8.8637 C.ar      1 RES1    0.0000
     24 H9        -3.7554    0.7672    8.3559 H         1 RES1    0.0000
     25 C14       -1.9712    1.6370    8.5807 C.ar      1 RES1    0.0000
     26 H10       -2.0778    2.2430    7.8836 H         1 RES1    0.0000
     27 C15       -0.7740    1.6440    9.3286 C.ar      1 RES1    0.0000
     28 H11        1.5034    5.5148    6.3398 H         1 RES1    0.0000
@<TRIPOS>BOND
     1    1    2 1
     2    2    3 2
     3    3    4 1
     4    5    3 1
     5    6    5 ar
     6    7    6 1
     7    8    6 ar
     8    9    8 ar
     9   10    9 1
    10   11    9 ar
    11   12   11 1
    12   13   11 ar
    13   14   13 1
    14   15   13 ar
    15   16   15 1
    16   17    8 ar
    17   18   17 ar
    18   19   18 ar
    19   20   19 1
    20   21   19 ar
    21   22   21 1
    22   23   21 ar
    23   24   23 1
    24   25   23 ar
    25   26   25 1
    26   27    5 ar
    27   28    1 1
    28   15   17 ar
    29   18   27 ar
    30   25   27 ar
@<TRIPOS>SUBSTRUCTURE
     1 RES1 1

@<TRIPOS>CRYSIN
   8.2397    4.9728   13.9332  90.0000 106.6800  90.0000   4 1

