# MOL2 file generated by ConQuest
# Please check atom types

@<TRIPOS>MOLECULE
CESVOL
    41    44     1
SMALL
NO_CHARGES
****
Generated from CSD

@<TRIPOS>ATOM
      1 C1         6.4116    7.9457    3.9508 C.2       1 RES1    0.0000
      2 C2         6.8062    7.9011    2.5078 C.3       1 RES1    0.0000
      3 C3         5.7240    7.2676    1.6488 C.3       1 RES1    0.0000
      4 C4         5.2074    5.9664    2.1956 C.2       1 RES1    0.0000
      5 C5         5.7982    5.4986    3.5104 C.3       1 RES1    0.0000
      6 C6         5.0585    4.3070    4.0845 C.3       1 RES1    0.0000
      7 C7         5.6920    3.7657    5.3405 C.3       1 RES1    0.0000
      8 C8         6.4691    4.7362    6.2387 C.3       1 RES1    0.0000
      9 C9         6.8114    6.1854    5.7396 C.3       1 RES1    0.0000
     10 C10        5.8922    6.6239    4.5697 C.3       1 RES1    0.0000
     11 C11        8.3106    6.3007    5.4273 C.3       1 RES1    0.0000
     12 C12        9.1538    5.9415    6.6525 C.3       1 RES1    0.0000
     13 C13        8.8707    4.5387    7.1839 C.3       1 RES1    0.0000
     14 C14        7.7413    3.9741    6.4208 C.2       1 RES1    0.0000
     15 N1         7.8602    2.9320    5.7052 N.2       1 RES1    0.0000
     16 O1         6.6834    2.7644    4.9400 O.3       1 RES1    0.0000
     17 O2         6.4648    8.9463    4.6327 O.2       1 RES1    0.0000
     18 O3         4.3715    5.3122    1.6138 O.2       1 RES1    0.0000
     19 C15        4.4937    6.9126    5.0940 C.2       1 RES1    0.0000
     20 O4         4.0796    6.6845    6.1897 O.2       1 RES1    0.0000
     21 O5         3.7539    7.4672    4.1279 O.3       1 RES1    0.0000
     22 C16        2.3639    7.7617    4.4184 C.3       1 RES1    0.0000
     23 H1         7.0202    8.8147    2.2124 H         1 RES1    0.0000
     24 H2         7.6495    7.3721    2.5274 H         1 RES1    0.0000
     25 H3         4.9316    7.8696    1.5543 H         1 RES1    0.0000
     26 H4         6.0072    7.1345    0.8121 H         1 RES1    0.0000
     27 H5         6.7411    5.2625    3.3115 H         1 RES1    0.0000
     28 H6         4.1384    4.5754    4.2427 H         1 RES1    0.0000
     29 H7         5.0566    3.6020    3.4446 H         1 RES1    0.0000
     30 H8         5.0275    3.2935    5.8600 H         1 RES1    0.0000
     31 H9         6.0151    4.8103    7.0782 H         1 RES1    0.0000
     32 H10        6.6321    6.7479    6.4691 H         1 RES1    0.0000
     33 H11        8.5234    7.1687    5.1599 H         1 RES1    0.0000
     34 H12        8.5892    5.7221    4.6558 H         1 RES1    0.0000
     35 H13        8.9133    6.6024    7.3582 H         1 RES1    0.0000
     36 H14       10.1170    6.0464    6.4761 H         1 RES1    0.0000
     37 H15        8.6531    4.6126    8.0653 H         1 RES1    0.0000
     38 H16        9.6951    3.9212    7.0642 H         1 RES1    0.0000
     39 H17        2.2815    8.1130    5.3279 H         1 RES1    0.0000
     40 H18        1.8750    6.9387    4.4107 H         1 RES1    0.0000
     41 H19        2.1502    8.3677    3.6616 H         1 RES1    0.0000
@<TRIPOS>BOND
     1    1    2 1
     2    2    3 1
     3    3    4 1
     4    4    5 1
     5    5    6 1
     6    6    7 1
     7    7    8 1
     8    8    9 1
     9    9   10 1
    10   10    1 1
    11   11    9 1
    12   12   11 1
    13   13   12 1
    14   14    8 1
    15   15   14 2
    16   16    7 1
    17   17    1 2
    18   18    4 2
    19   19   10 1
    20   20   19 2
    21   21   19 1
    22   22   21 1
    23   23    2 1
    24   24    2 1
    25   25    3 1
    26   26    3 1
    27   27    5 1
    28   28    6 1
    29   29    6 1
    30   30    7 1
    31   31    8 1
    32   32    9 1
    33   33   11 1
    34   34   11 1
    35   35   12 1
    36   36   12 1
    37   37   13 1
    38   38   13 1
    39   39   22 1
    40   40   22 1
    41   41   22 1
    42    5   10 1
    43   13   14 1
    44   15   16 1
@<TRIPOS>SUBSTRUCTURE
     1 RES1 1

@<TRIPOS>CRYSIN
   9.3780   10.9150    8.0440 111.5500 109.1800  89.9100   2 1

