# MOL2 file generated by ConQuest
# Please check atom types

@<TRIPOS>MOLECULE
CESYAD
    43    45     1
SMALL
NO_CHARGES
****
Generated from CSD

@<TRIPOS>ATOM
      1 O1        -6.7362   -3.5475   -7.8300 O.3       1 RES1    0.0000
      2 O2        -6.6841   -2.4803   -5.7428 O.3       1 RES1    0.0000
      3 O3        -6.1790   -0.8041   -8.8349 O.3       1 RES1    0.0000
      4 H1        -5.9990    0.0153   -8.7924 H         1 RES1    0.0000
      5 O4        -3.6368   -4.9764   -8.5073 O.3       1 RES1    0.0000
      6 O5        -5.6802   -5.9470   -8.2546 O.2       1 RES1    0.0000
      7 N1        -5.3265   -3.7493   -7.8313 N.am      1 RES1    0.0000
      8 C1        -4.6171   -2.4697   -7.9777 C.3       1 RES1    0.0000
      9 H2        -4.3299   -2.3570   -8.9289 H         1 RES1    0.0000
     10 C2        -5.7430   -1.4434   -7.6540 C.3       1 RES1    0.0000
     11 H3        -5.4427   -0.7786   -6.9703 H         1 RES1    0.0000
     12 C3        -6.8673   -2.3230   -7.1155 C.3       1 RES1    0.0000
     13 H4        -7.7560   -1.9041   -7.3023 H         1 RES1    0.0000
     14 C4        -7.5709   -3.4350   -5.1586 C.3       1 RES1    0.0000
     15 H5        -7.4111   -4.3158   -5.5567 H         1 RES1    0.0000
     16 H6        -8.4981   -3.1642   -5.3256 H         1 RES1    0.0000
     17 H7        -7.4128   -3.4792   -4.1925 H         1 RES1    0.0000
     18 C5        -3.4021   -2.3878   -7.0729 C.ar      1 RES1    0.0000
     19 C6        -3.4295   -2.8674   -5.7657 C.ar      1 RES1    0.0000
     20 H8        -4.2229   -3.2593   -5.4206 H         1 RES1    0.0000
     21 C7        -2.2982   -2.7732   -4.9662 C.ar      1 RES1    0.0000
     22 H9        -2.3153   -3.1225   -4.0829 H         1 RES1    0.0000
     23 C8        -1.1472   -2.1755   -5.4452 C.ar      1 RES1    0.0000
     24 H10       -0.3793   -2.1042   -4.8908 H         1 RES1    0.0000
     25 C9        -1.1202   -1.6804   -6.7371 C.ar      1 RES1    0.0000
     26 H11       -0.3341   -1.2597   -7.0671 H         1 RES1    0.0000
     27 C10       -2.2416   -1.7978   -7.5567 C.ar      1 RES1    0.0000
     28 H12       -2.2124   -1.4730   -8.4490 H         1 RES1    0.0000
     29 C11       -4.9447   -4.9772   -8.2282 C.2       1 RES1    0.0000
     30 C12       -3.0719   -6.2391   -8.9146 C.3       1 RES1    0.0000
     31 H13       -3.2797   -6.4130   -9.8668 H         1 RES1    0.0000
     32 H14       -3.4544   -6.9734   -8.3718 H         1 RES1    0.0000
     33 C13       -1.5835   -6.1711   -8.7152 C.ar      1 RES1    0.0000
     34 C14       -1.0282   -5.4166   -7.6853 C.ar      1 RES1    0.0000
     35 H15       -1.5919   -4.9111   -7.1118 H         1 RES1    0.0000
     36 C15        0.3411   -5.4020   -7.4947 C.ar      1 RES1    0.0000
     37 H16        0.7146   -4.8746   -6.7983 H         1 RES1    0.0000
     38 C16        1.1753   -6.1526   -8.3153 C.ar      1 RES1    0.0000
     39 H17        2.1152   -6.1408   -8.1802 H         1 RES1    0.0000
     40 C17        0.6278   -6.9171   -9.3295 C.ar      1 RES1    0.0000
     41 H18        1.1917   -7.4438   -9.8835 H         1 RES1    0.0000
     42 C18       -0.7471   -6.9156   -9.5397 C.ar      1 RES1    0.0000
     43 H19       -1.1174   -7.4264  -10.2504 H         1 RES1    0.0000
@<TRIPOS>BOND
     1    1    7 1
     2    2   12 1
     3    3    4 1
     4    5   29 1
     5    6   29 2
     6    7    8 1
     7    8    9 1
     8   10    3 1
     9   11   10 1
    10   12    1 1
    11   13   12 1
    12   14    2 1
    13   15   14 1
    14   16   14 1
    15   17   14 1
    16   18    8 1
    17   19   18 ar
    18   20   19 1
    19   21   19 ar
    20   22   21 1
    21   23   21 ar
    22   24   23 1
    23   25   23 ar
    24   26   25 1
    25   27   18 ar
    26   28   27 1
    27   29    7 1
    28   30    5 1
    29   31   30 1
    30   32   30 1
    31   33   30 1
    32   34   33 ar
    33   35   34 1
    34   36   34 ar
    35   37   36 1
    36   38   36 ar
    37   39   38 1
    38   40   38 ar
    39   41   40 1
    40   42   33 ar
    41   43   42 1
    42    8   10 1
    43   10   12 1
    44   25   27 ar
    45   40   42 ar
@<TRIPOS>SUBSTRUCTURE
     1 RES1 1

@<TRIPOS>CRYSIN
  10.2976    7.7226   11.0934  90.0000 115.3830  90.0000   4 1

