# MOL2 file generated by ConQuest
# Please check atom types

@<TRIPOS>MOLECULE
CESYIL
    46    37     2
SMALL
NO_CHARGES
****
Generated from CSD

@<TRIPOS>ATOM
      1 O1         4.2541    3.3846   11.8008 O.3       1 RES1    0.0000
      2 O2         4.5500    1.3866   10.5633 O.3       1 RES1    0.0000
      3 O3         1.0903    1.8745   11.7125 O.2       1 RES1    0.0000
      4 O4         2.0616    3.5965   10.5813 O.3       1 RES1    0.0000
      5 N1         3.1337    2.6464   12.3316 N.am      1 RES1    0.0000
      6 C1         3.6173    1.3341   12.8320 C.3       1 RES1    0.0000
      7 H1         2.8567    0.8570   12.7422 H         1 RES1    0.0000
      8 C2         4.8413    1.1215   11.9767 C.3       1 RES1    0.0000
      9 H2         5.5597    0.4811   12.2479 H         1 RES1    0.0000
     10 C3         5.1582    2.3899   11.3722 C.3       1 RES1    0.0000
     11 H3         6.1154    2.6327   11.2152 H         1 RES1    0.0000
     12 C4         2.0280    2.6293   11.5062 C.2       1 RES1    0.0000
     13 C5         0.9104    3.7136    9.7854 C.ar      1 RES1    0.0000
     14 C6         0.1646    4.8649    9.9342 C.ar      1 RES1    0.0000
     15 H4         0.3965    5.5193   10.5827 H         1 RES1    0.0000
     16 C7        -0.9524    5.0386    9.0929 C.ar      1 RES1    0.0000
     17 H5        -1.4906    5.8171    9.1738 H         1 RES1    0.0000
     18 C8        -1.2664    4.0793    8.1525 C.ar      1 RES1    0.0000
     19 H6        -2.0221    4.2013    7.5899 H         1 RES1    0.0000
     20 C9        -0.4874    2.9366    8.0201 C.ar      1 RES1    0.0000
     21 H7        -0.7060    2.2890    7.3606 H         1 RES1    0.0000
     22 C10        0.5990    2.7395    8.8409 C.ar      1 RES1    0.0000
     23 H8         1.1271    1.9531    8.7647 H         1 RES1    0.0000
     24 C11        3.8720    1.4289   14.3517 C.ar      1 RES1    0.0000
     25 C12        4.5357    2.5316   14.8770 C.ar      1 RES1    0.0000
     26 H9         4.7600    3.2630   14.3142 H         1 RES1    0.0000
     27 C13        4.8705    2.5636   16.2261 C.ar      1 RES1    0.0000
     28 H10        5.3243    3.3169   16.5845 H         1 RES1    0.0000
     29 C14        4.5423    1.4929   17.0490 C.ar      1 RES1    0.0000
     30 H11        4.7710    1.5147   17.9707 H         1 RES1    0.0000
     31 C15        3.8778    0.3902   16.5238 C.ar      1 RES1    0.0000
     32 H12        3.6536   -0.3414   17.0866 H         1 RES1    0.0000
     33 C16        3.5430    0.3582   15.1756 C.ar      1 RES1    0.0000
     34 H13        3.0893   -0.3953   14.8163 H         1 RES1    0.0000
     35 H14        2.9384    0.6206   12.6570 Du        2 SUP2    0.0000
     36 C17        4.0555    1.2998   14.2541 Du        2 SUP2    0.0000
     37 C18        3.7485    2.3693   15.0855 Du        2 SUP2    0.0000
     38 H15        3.3178    3.1385   14.7325 Du        2 SUP2    0.0000
     39 C19        4.0701    2.3133   16.4377 Du        2 SUP2    0.0000
     40 H16        3.8601    3.0442   17.0069 Du        2 SUP2    0.0000
     41 C20        4.6998    1.1878   16.9561 Du        2 SUP2    0.0000
     42 H17        4.9201    1.1493   17.8794 Du        2 SUP2    0.0000
     43 C21        5.0077    0.1177   16.1235 Du        2 SUP2    0.0000
     44 H18        5.4379   -0.6513   16.4776 Du        2 SUP2    0.0000
     45 C22        4.6852    0.1737   14.7722 Du        2 SUP2    0.0000
     46 H19        4.8957   -0.5571   14.2032 Du        2 SUP2    0.0000
@<TRIPOS>BOND
     1    1    5 1
     2    2    8 1
     3    3   12 2
     4    4   12 1
     5    5    6 1
     6    6    7 1
     7    8    6 1
     8    9    8 1
     9   10    1 1
    10   11   10 1
    11   12    5 1
    12   13    4 1
    13   14   13 ar
    14   15   14 1
    15   16   14 ar
    16   17   16 1
    17   18   16 ar
    18   19   18 1
    19   20   18 ar
    20   21   20 1
    21   22   13 ar
    22   23   22 1
    23   24    6 1
    24   25   24 ar
    25   26   25 1
    26   27   25 ar
    27   28   27 1
    28   29   27 ar
    29   30   29 1
    30   31   29 ar
    31   32   31 1
    32   33   24 ar
    33   34   33 1
    34    2   10 1
    35    8   10 1
    36   20   22 ar
    37   31   33 ar
@<TRIPOS>SUBSTRUCTURE
     1 RES1 1
     2 SUP2 35

@<TRIPOS>CRYSIN
   7.5356    5.7133   31.2020  90.0000  95.1000  90.0000 231 1

