# MOL2 file generated by ConQuest
# Please check atom types

@<TRIPOS>MOLECULE
CETHEP
    55    56     1
SMALL
NO_CHARGES
****
Generated from CSD

@<TRIPOS>ATOM
      1 C1         1.8645    5.4141    4.1928 C.3       1 RES1    0.0000
      2 H1         2.7233    5.3115    3.6914 H         1 RES1    0.0000
      3 C2         1.8922    4.4406    5.3883 C.3       1 RES1    0.0000
      4 H2         0.9810    4.4478    5.8005 H         1 RES1    0.0000
      5 C3         2.8760    4.8951    6.4536 C.2       1 RES1    0.0000
      6 C4         3.2850    6.1645    6.5079 C.2       1 RES1    0.0000
      7 C5         2.9587    7.2212    5.5084 C.3       1 RES1    0.0000
      8 H3         3.7433    7.3600    4.9207 H         1 RES1    0.0000
      9 H4         2.7865    8.0705    5.9859 H         1 RES1    0.0000
     10 C6         1.7471    6.8868    4.6445 C.3       1 RES1    0.0000
     11 C7         0.7260    5.0536    3.2532 C.2       1 RES1    0.0000
     12 O1        -0.3441    4.6159    3.5999 O.2       1 RES1    0.0000
     13 O2         1.0533    5.3098    1.9815 O.3       1 RES1    0.0000
     14 C8        -0.0185    5.1836    1.0099 C.3       1 RES1    0.0000
     15 H5        -0.5132    4.3536    1.1757 H         1 RES1    0.0000
     16 H6         0.3606    5.1638    0.1061 H         1 RES1    0.0000
     17 H7        -0.6255    5.9482    1.0920 H         1 RES1    0.0000
     18 C9         3.1711    3.9113    7.5365 C.2       1 RES1    0.0000
     19 O3         2.3655    3.0933    7.9173 O.2       1 RES1    0.0000
     20 O4         4.4045    4.0264    8.0271 O.3       1 RES1    0.0000
     21 C10        4.6982    3.2063    9.1874 C.3       1 RES1    0.0000
     22 H8         4.1555    3.5065    9.9452 H         1 RES1    0.0000
     23 H9         5.6482    3.2888    9.4137 H         1 RES1    0.0000
     24 H10        4.4892    2.2700    8.9872 H         1 RES1    0.0000
     25 O5         3.9700    6.6463    7.6349 O.3       1 RES1    0.0000
     26 C11        5.3265    6.7796    7.5271 C.2       1 RES1    0.0000
     27 O6         5.9154    6.5018    6.5299 O.2       1 RES1    0.0000
     28 C12        5.9155    7.3010    8.7963 C.3       1 RES1    0.0000
     29 H11        6.6598    6.7251    9.0710 H         1 RES1    0.0000
     30 H12        5.2306    7.3065    9.4964 H         1 RES1    0.0000
     31 H13        6.2434    8.2127    8.6534 H         1 RES1    0.0000
     32 O7         0.5170    6.8918    5.4465 O.3       1 RES1    0.0000
     33 C13        0.0478    8.0290    6.0074 C.2       1 RES1    0.0000
     34 O8         0.6095    9.0917    5.9701 O.2       1 RES1    0.0000
     35 C14       -1.2614    7.7725    6.6811 C.3       1 RES1    0.0000
     36 H14       -1.5785    8.5984    7.1036 H         1 RES1    0.0000
     37 H15       -1.1470    7.0795    7.3637 H         1 RES1    0.0000
     38 H16       -1.9167    7.4726    6.0172 H         1 RES1    0.0000
     39 C15        1.6416    7.8520    3.4678 C.3       1 RES1    0.0000
     40 H17        0.7699    7.7439    3.0337 H         1 RES1    0.0000
     41 H18        2.3542    7.6590    2.8227 H         1 RES1    0.0000
     42 H19        1.7339    8.7719    3.7907 H         1 RES1    0.0000
     43 C16        2.1642    3.0215    4.9049 C.ar      1 RES1    0.0000
     44 C17        1.2034    2.0382    5.1217 C.ar      1 RES1    0.0000
     45 H20        0.3981    2.2423    5.5828 H         1 RES1    0.0000
     46 C18        1.4401    0.7550    4.6537 C.ar      1 RES1    0.0000
     47 C19        2.5924    0.3959    3.9808 C.ar      1 RES1    0.0000
     48 H21        2.7218   -0.4909    3.6657 H         1 RES1    0.0000
     49 C20        3.5515    1.3746    3.7825 C.ar      1 RES1    0.0000
     50 H22        4.3588    1.1590    3.3307 H         1 RES1    0.0000
     51 C21        3.3392    2.6753    4.2419 C.ar      1 RES1    0.0000
     52 H23        4.0078    3.3349    4.1000 H         1 RES1    0.0000
     53 N1         0.4074   -0.2667    4.9095 N.pl3     1 RES1    0.0000
     54 O9        -0.5164    0.0137    5.6383 O.2       1 RES1    0.0000
     55 O10        0.5416   -1.3555    4.3917 O.2       1 RES1    0.0000
@<TRIPOS>BOND
     1    1    2 1
     2    3    1 1
     3    4    3 1
     4    5    3 1
     5    6    5 2
     6    7    6 1
     7    8    7 1
     8    9    7 1
     9   10    1 1
    10   11    1 1
    11   12   11 2
    12   13   11 1
    13   14   13 1
    14   15   14 1
    15   16   14 1
    16   17   14 1
    17   18    5 1
    18   19   18 2
    19   20   18 1
    20   21   20 1
    21   22   21 1
    22   23   21 1
    23   24   21 1
    24   25    6 1
    25   26   25 1
    26   27   26 2
    27   28   26 1
    28   29   28 1
    29   30   28 1
    30   31   28 1
    31   32   10 1
    32   33   32 1
    33   34   33 2
    34   35   33 1
    35   36   35 1
    36   37   35 1
    37   38   35 1
    38   39   10 1
    39   40   39 1
    40   41   39 1
    41   42   39 1
    42   43    3 1
    43   44   43 ar
    44   45   44 1
    45   46   44 ar
    46   47   46 ar
    47   48   47 1
    48   49   47 ar
    49   50   49 1
    50   51   43 ar
    51   52   51 1
    52   53   46 1
    53   54   53 2
    54   55   53 2
    55    7   10 1
    56   49   51 ar
@<TRIPOS>SUBSTRUCTURE
     1 RES1 1

@<TRIPOS>CRYSIN
  10.3172   18.4554   11.9600  90.0000 111.0000  90.0000  14 1

