# MOL2 file generated by ConQuest
# Please check atom types

@<TRIPOS>MOLECULE
CETRUQ
    46    49     1
SMALL
USER_CHARGES
****
Generated from CSD

@<TRIPOS>ATOM
      1 C1        -2.7195   10.2122   14.6065 C.ar      1 RES1    0.0000
      2 O1        -1.8395   13.0564   14.4556 O.2       1 RES1   -1.0000
      3 N1        -2.1530   12.4682   15.5470 N.pl3     1 RES1    1.0000
      4 O2        -3.1780    9.8585   17.5152 O.2       1 RES1    0.0000
      5 N2        -2.8405   10.9708   16.9846 N.3       1 RES1    0.0000
      6 C2        -1.9867   10.3401   13.4213 C.ar      1 RES1    0.0000
      7 H1        -1.4498   11.0876   13.2839 H         1 RES1    0.0000
      8 C3        -2.0637    9.3455   12.4455 C.ar      1 RES1    0.0000
      9 O3        -0.6482   10.5179   10.9617 O.2       1 RES1    0.0000
     10 C4        -1.2806    9.5059   11.1830 C.2       1 RES1    0.0000
     11 C5        -1.3286    8.3890   10.1988 C.ar      1 RES1    0.0000
     12 C6        -0.6108    8.5007    9.0089 C.ar      1 RES1    0.0000
     13 H2        -0.1047    9.2623    8.8405 H         1 RES1    0.0000
     14 C7        -0.6528    7.4771    8.0788 C.ar      1 RES1    0.0000
     15 H3        -0.1763    7.5580    7.2839 H         1 RES1    0.0000
     16 C8        -1.3926    6.3400    8.3173 C.ar      1 RES1    0.0000
     17 H4        -1.4014    5.6515    7.6908 H         1 RES1    0.0000
     18 C9        -2.1190    6.2195    9.4824 C.ar      1 RES1    0.0000
     19 H5        -2.6328    5.4588    9.6307 H         1 RES1    0.0000
     20 C10       -2.0859    7.2374   10.4431 C.ar      1 RES1    0.0000
     21 O4        -3.3998    6.0243   11.9821 O.2       1 RES1    0.0000
     22 C11       -2.8464    7.0756   11.6992 C.2       1 RES1    0.0000
     23 C12       -2.8610    8.2195   12.6564 C.ar      1 RES1    0.0000
     24 C13       -3.6426    8.1335   13.8047 C.ar      1 RES1    0.0000
     25 H6        -4.2114    7.4068   13.9230 H         1 RES1    0.0000
     26 C14       -3.5792    9.1172   14.7665 C.ar      1 RES1    0.0000
     27 H7        -4.1102    9.0545   15.5270 H         1 RES1    0.0000
     28 C15       -2.5827   11.1985   15.6783 C.2       1 RES1    0.0000
     29 C16       -1.9084   13.1107   16.8884 C.3       1 RES1    0.0000
     30 C17       -2.8185   12.2447   17.7828 C.3       1 RES1    0.0000
     31 C18       -2.2485   14.5866   16.8482 C.3       1 RES1    0.0000
     32 H8        -3.1852   14.6946   16.6655 H         1 RES1    0.0000
     33 H9        -1.7367   15.0140   16.1583 H         1 RES1    0.0000
     34 H10       -2.0401   14.9856   17.6957 H         1 RES1    0.0000
     35 C19       -0.4158   12.9051   17.1727 C.3       1 RES1    0.0000
     36 H11       -0.2206   11.9662   17.1919 H         1 RES1    0.0000
     37 H12       -0.1966   13.2945   18.0226 H         1 RES1    0.0000
     38 H13        0.1022   13.3266   16.4840 H         1 RES1    0.0000
     39 C20       -4.2623   12.7237   17.8648 C.3       1 RES1    0.0000
     40 H14       -4.5946   12.8902   16.9800 H         1 RES1    0.0000
     41 H15       -4.3016   13.5326   18.3799 H         1 RES1    0.0000
     42 H16       -4.7995   12.0493   18.2864 H         1 RES1    0.0000
     43 C21       -2.2902   11.9819   19.1828 C.3       1 RES1    0.0000
     44 H17       -1.3808   11.6790   19.1295 H         1 RES1    0.0000
     45 H18       -2.8280   11.3087   19.6063 H         1 RES1    0.0000
     46 H19       -2.3282   12.7919   19.6965 H         1 RES1    0.0000
@<TRIPOS>BOND
     1    1    6 ar
     2    2    3 1
     3    3   28 2
     4    4    5 1
     5    5   28 1
     6    6    7 1
     7    8    6 ar
     8    9   10 2
     9   10    8 1
    10   11   10 1
    11   12   11 ar
    12   13   12 1
    13   14   12 ar
    14   15   14 1
    15   16   14 ar
    16   17   16 1
    17   18   16 ar
    18   19   18 1
    19   20   11 ar
    20   21   22 2
    21   22   20 1
    22   23    8 ar
    23   24   23 ar
    24   25   24 1
    25   26    1 ar
    26   27   26 1
    27   28    1 1
    28   29    3 1
    29   30    5 1
    30   31   29 1
    31   32   31 1
    32   33   31 1
    33   34   31 1
    34   35   29 1
    35   36   35 1
    36   37   35 1
    37   38   35 1
    38   39   30 1
    39   40   39 1
    40   41   39 1
    41   42   39 1
    42   43   30 1
    43   44   43 1
    44   45   43 1
    45   46   43 1
    46   18   20 ar
    47   22   23 1
    48   24   26 ar
    49   29   30 1
@<TRIPOS>SUBSTRUCTURE
     1 RES1 1

@<TRIPOS>CRYSIN
   8.2851   18.8950   11.8320  90.0000 107.7000  90.0000  14 1

