# MOL2 file generated by ConQuest
# Please check atom types

@<TRIPOS>MOLECULE
CETRUQ01
    46    49     1
SMALL
USER_CHARGES
****
Generated from CSD

@<TRIPOS>ATOM
      1 C1         2.5503    2.8901    5.1283 C.ar      1 RES1    0.0000
      2 O1         1.6752    5.6506    5.6231 O.2       1 RES1   -1.0000
      3 N1         2.2323    5.2888    4.5300 N.pl3     1 RES1    1.0000
      4 O2         3.6271    2.9938    2.3772 O.2       1 RES1    0.0000
      5 N2         3.1403    4.0181    2.9794 N.3       1 RES1    0.0000
      6 C2         2.7111    3.0570    6.5085 C.ar      1 RES1    0.0000
      7 H1         2.9774    3.8978    6.8599 H         1 RES1    0.0000
      8 C3         2.4785    1.9807    7.3629 C.ar      1 RES1    0.0000
      9 O3         3.2732    3.1567    9.2685 O.2       1 RES1    0.0000
     10 C4         2.6924    2.1714    8.8347 C.2       1 RES1    0.0000
     11 C5         2.2287    1.0773    9.7359 C.ar      1 RES1    0.0000
     12 C6         2.2983    1.2616   11.1226 C.ar      1 RES1    0.0000
     13 H2         2.6228    2.0825   11.4769 H         1 RES1    0.0000
     14 C7         1.8942    0.2502   11.9812 C.ar      1 RES1    0.0000
     15 H3         1.9308    0.3860   12.9212 H         1 RES1    0.0000
     16 C8         1.4348   -0.9647   11.4738 C.ar      1 RES1    0.0000
     17 H4         1.1714   -1.6605   12.0648 H         1 RES1    0.0000
     18 C9         1.3638   -1.1524   10.0982 C.ar      1 RES1    0.0000
     19 H5         1.0480   -1.9786    9.7508 H         1 RES1    0.0000
     20 C10        1.7521   -0.1345    9.2236 C.ar      1 RES1    0.0000
     21 O4         1.2233   -1.4183    7.3012 O.2       1 RES1    0.0000
     22 C11        1.6487   -0.3641    7.7540 C.2       1 RES1    0.0000
     23 C12        2.0521    0.7492    6.8524 C.ar      1 RES1    0.0000
     24 C13        1.9495    0.5779    5.4675 C.ar      1 RES1    0.0000
     25 H6         1.6975   -0.2672    5.1139 H         1 RES1    0.0000
     26 C14        2.2144    1.6310    4.6112 C.ar      1 RES1    0.0000
     27 H7         2.1677    1.5015    3.6718 H         1 RES1    0.0000
     28 C15        2.6687    4.0444    4.2413 C.2       1 RES1    0.0000
     29 C16        2.2912    6.2151    3.3428 C.3       1 RES1    0.0000
     30 C17        3.1561    5.3770    2.3366 C.3       1 RES1    0.0000
     31 C18        2.9020    7.5389    3.7998 C.3       1 RES1    0.0000
     32 H8         2.2919    7.9802    4.4261 H         1 RES1    0.0000
     33 H9         3.0470    8.1180    3.0217 H         1 RES1    0.0000
     34 H10        3.7583    7.3673    4.2442 H         1 RES1    0.0000
     35 C19        0.8405    6.4293    2.8964 C.3       1 RES1    0.0000
     36 H11        0.3639    6.9495    3.5764 H         1 RES1    0.0000
     37 H12        0.4020    5.5605    2.7844 H         1 RES1    0.0000
     38 H13        0.8290    6.9135    2.0456 H         1 RES1    0.0000
     39 C20        4.6182    5.8065    2.2588 C.3       1 RES1    0.0000
     40 H14        5.0898    5.2466    1.6085 H         1 RES1    0.0000
     41 H15        5.0359    5.7047    3.1393 H         1 RES1    0.0000
     42 H16        4.6692    6.7438    1.9790 H         1 RES1    0.0000
     43 C21        2.5732    5.2294    0.9343 C.3       1 RES1    0.0000
     44 H17        3.1841    4.6995    0.3794 H         1 RES1    0.0000
     45 H18        2.4555    6.1161    0.5347 H         1 RES1    0.0000
     46 H19        1.7054    4.7779    0.9873 H         1 RES1    0.0000
@<TRIPOS>BOND
     1    1    6 ar
     2    2    3 1
     3    3   28 2
     4    4    5 1
     5    5   28 1
     6    6    7 1
     7    8    6 ar
     8    9   10 2
     9   10    8 1
    10   11   10 1
    11   12   11 ar
    12   13   12 1
    13   14   12 ar
    14   15   14 1
    15   16   14 ar
    16   17   16 1
    17   18   16 ar
    18   19   18 1
    19   20   11 ar
    20   21   22 2
    21   22   20 1
    22   23    8 ar
    23   24   23 ar
    24   25   24 1
    25   26    1 ar
    26   27   26 1
    27   28    1 1
    28   29    3 1
    29   30    5 1
    30   31   29 1
    31   32   31 1
    32   33   31 1
    33   34   31 1
    34   35   29 1
    35   36   35 1
    36   37   35 1
    37   38   35 1
    38   39   30 1
    39   40   39 1
    40   41   39 1
    41   42   39 1
    42   43   30 1
    43   44   43 1
    44   45   43 1
    45   46   43 1
    46   18   20 ar
    47   22   23 1
    48   24   26 ar
    49   29   30 1
@<TRIPOS>SUBSTRUCTURE
     1 RES1 1

@<TRIPOS>CRYSIN
   7.1778   21.2070   22.1861  90.0000  90.0000  90.0000  61 1

