# MOL2 file generated by ConQuest
# Please check atom types

@<TRIPOS>MOLECULE
CETTIG
    44    45     1
SMALL
NO_CHARGES
****
Generated from CSD

@<TRIPOS>ATOM
      1 O1         5.1409    0.3317    9.6117 O.3       1 RES1    0.0000
      2 O2         7.4248    0.1705    9.5992 O.2       1 RES1    0.0000
      3 O3         6.2401    1.3269   11.1393 O.3       1 RES1    0.0000
      4 N1         5.1564   -0.5212    8.4503 N.2       1 RES1    0.0000
      5 C1         6.4037    0.5612   10.0590 C.2       1 RES1    0.0000
      6 C2         7.4878    1.8746   11.6896 C.3       1 RES1    0.0000
      7 C3         7.8756    3.1199   10.9599 C.ar      1 RES1    0.0000
      8 C4         9.1360    3.2957   10.4274 C.ar      1 RES1    0.0000
      9 C5         9.4836    4.4803    9.7857 C.ar      1 RES1    0.0000
     10 C6         8.5795    5.5239    9.6309 C.ar      1 RES1    0.0000
     11 C7         7.3096    5.3259   10.1763 C.ar      1 RES1    0.0000
     12 C8         6.9699    4.1612   10.8356 C.ar      1 RES1    0.0000
     13 C9         8.9023    6.7972    8.8461 C.3       1 RES1    0.0000
     14 C10        8.3734    6.6049    7.4255 C.3       1 RES1    0.0000
     15 C11       10.4058    7.0823    8.8261 C.3       1 RES1    0.0000
     16 C12        8.2172    8.0311    9.4490 C.3       1 RES1    0.0000
     17 C13        3.9586   -0.5739    8.0015 C.2       1 RES1    0.0000
     18 C14        3.6621   -1.3725    6.8132 C.ar      1 RES1    0.0000
     19 C15        4.6415   -2.1307    6.1691 C.ar      1 RES1    0.0000
     20 C16        4.3347   -2.8486    5.0418 C.ar      1 RES1    0.0000
     21 C17        3.0431   -2.8235    4.5245 C.ar      1 RES1    0.0000
     22 C18        2.0681   -2.0735    5.1556 C.ar      1 RES1    0.0000
     23 C19        2.3749   -1.3591    6.3017 C.ar      1 RES1    0.0000
     24 H1         8.2100    1.2024   11.6063 H         1 RES1    0.0000
     25 H2         7.3651    2.0768   12.6503 H         1 RES1    0.0000
     26 H3         9.7760    2.5980   10.4989 H         1 RES1    0.0000
     27 H4        10.3652    4.5792    9.4443 H         1 RES1    0.0000
     28 H5         6.6598    6.0143   10.0907 H         1 RES1    0.0000
     29 H6         6.1009    4.0717   11.2098 H         1 RES1    0.0000
     30 H7         7.4062    6.4519    7.4537 H         1 RES1    0.0000
     31 H8         8.8148    5.8330    7.0138 H         1 RES1    0.0000
     32 H9         8.5607    7.4085    6.8953 H         1 RES1    0.0000
     33 H10       10.8753    6.3314    8.4074 H         1 RES1    0.0000
     34 H11       10.7284    7.1968    9.7446 H         1 RES1    0.0000
     35 H12       10.5761    7.9012    8.3159 H         1 RES1    0.0000
     36 H13        8.5238    8.1572   10.3711 H         1 RES1    0.0000
     37 H14        7.2464    7.9025    9.4432 H         1 RES1    0.0000
     38 H15        8.4450    8.8230    8.9188 H         1 RES1    0.0000
     39 H16        3.2643   -0.0953    8.4390 H         1 RES1    0.0000
     40 H17        5.5259   -2.1502    6.5140 H         1 RES1    0.0000
     41 H18        5.0066   -3.3646    4.6113 H         1 RES1    0.0000
     42 H19        2.8322   -3.3212    3.7432 H         1 RES1    0.0000
     43 H20        1.1867   -2.0470    4.8014 H         1 RES1    0.0000
     44 H21        1.6975   -0.8559    6.7393 H         1 RES1    0.0000
@<TRIPOS>BOND
     1    1    4 1
     2    2    5 2
     3    3    5 1
     4    4   17 2
     5    5    1 1
     6    6    3 1
     7    7    6 1
     8    8    7 ar
     9    9    8 ar
    10   10    9 ar
    11   11   10 ar
    12   12    7 ar
    13   13   10 1
    14   14   13 1
    15   15   13 1
    16   16   13 1
    17   17   18 1
    18   18   19 ar
    19   19   20 ar
    20   20   21 ar
    21   21   22 ar
    22   22   23 ar
    23   23   18 ar
    24   24    6 1
    25   25    6 1
    26   26    8 1
    27   27    9 1
    28   28   11 1
    29   29   12 1
    30   30   14 1
    31   31   14 1
    32   32   14 1
    33   33   15 1
    34   34   15 1
    35   35   15 1
    36   36   16 1
    37   37   16 1
    38   38   16 1
    39   39   17 1
    40   40   19 1
    41   41   20 1
    42   42   21 1
    43   43   22 1
    44   44   23 1
    45   11   12 ar
@<TRIPOS>SUBSTRUCTURE
     1 RES1 1

@<TRIPOS>CRYSIN
   6.2290   11.7580   12.0090  88.6100  77.6400  83.8000   2 1

