# MOL2 file generated by ConQuest
# Please check atom types

@<TRIPOS>MOLECULE
CEVBIP
    34    35     1
SMALL
NO_CHARGES
****
Generated from CSD

@<TRIPOS>ATOM
      1 O1         8.4371    0.3123    0.9361 O.2       1 RES1    0.0000
      2 N1         8.9926    0.0650    2.0544 N.pl3     1 RES1    0.0000
      3 N2        14.3936    1.6836    2.3453 N.pl3     1 RES1    0.0000
      4 C1         8.1560   -0.5695    3.1239 C.3       1 RES1    0.0000
      5 C2         6.7144   -0.1620    2.8713 C.3       1 RES1    0.0000
      6 C3         8.2948   -2.0760    3.0336 C.3       1 RES1    0.0000
      7 C4         8.5672   -0.0441    4.4868 C.3       1 RES1    0.0000
      8 C5        10.3694    0.4360    2.1727 C.ar      1 RES1    0.0000
      9 C6        11.2905   -0.2485    2.9600 C.ar      1 RES1    0.0000
     10 C7        10.8148    1.5152    1.4293 C.ar      1 RES1    0.0000
     11 C8        12.6039    0.1655    3.0104 C.ar      1 RES1    0.0000
     12 C9        12.1192    1.9187    1.4844 C.ar      1 RES1    0.0000
     13 C10       13.0444    1.2563    2.2846 C.ar      1 RES1    0.0000
     14 C11       15.4283    1.0397    2.9880 C.2       1 RES1    0.0000
     15 C12       14.9190    2.8237    1.7866 C.2       1 RES1    0.0000
     16 C13       16.5543    1.7619    2.8369 C.2       1 RES1    0.0000
     17 C14       16.2390    2.8667    2.0767 C.2       1 RES1    0.0000
     18 H1         6.4373   -0.4836    2.0104 H         1 RES1    0.0000
     19 H2         6.6450    0.7953    2.8937 H         1 RES1    0.0000
     20 H3         6.1505   -0.5393    3.5516 H         1 RES1    0.0000
     21 H4         8.0303   -2.3703    2.1591 H         1 RES1    0.0000
     22 H5         7.7352   -2.4888    3.6946 H         1 RES1    0.0000
     23 H6         9.2079   -2.3233    3.1902 H         1 RES1    0.0000
     24 H7         8.4893    0.9132    4.4972 H         1 RES1    0.0000
     25 H8         9.4757   -0.2938    4.6651 H         1 RES1    0.0000
     26 H9         7.9948   -0.4186    5.1599 H         1 RES1    0.0000
     27 H10       11.0194   -0.9881    3.4540 H         1 RES1    0.0000
     28 H11       10.2161    1.9727    0.8841 H         1 RES1    0.0000
     29 H12       13.2080   -0.2996    3.5436 H         1 RES1    0.0000
     30 H13       12.3938    2.6490    0.9784 H         1 RES1    0.0000
     31 H14       15.3611    0.2363    3.4516 H         1 RES1    0.0000
     32 H15       14.4485    3.4571    1.2942 H         1 RES1    0.0000
     33 H16       17.3912    1.5535    3.1823 H         1 RES1    0.0000
     34 H17       16.8338    3.5297    1.8090 H         1 RES1    0.0000
@<TRIPOS>BOND
     1    1    2 1
     2    2    4 1
     3    3   13 1
     4    4    5 1
     5    5   18 1
     6    6    4 1
     7    7    4 1
     8    8    2 1
     9    9    8 ar
    10   10    8 ar
    11   11    9 ar
    12   12   10 ar
    13   13   11 ar
    14   14    3 1
    15   15    3 1
    16   16   14 2
    17   17   15 2
    18   19    5 1
    19   20    5 1
    20   21    6 1
    21   22    6 1
    22   23    6 1
    23   24    7 1
    24   25    7 1
    25   26    7 1
    26   27    9 1
    27   28   10 1
    28   29   11 1
    29   30   12 1
    30   31   14 1
    31   32   15 1
    32   33   16 1
    33   34   17 1
    34   12   13 ar
    35   16   17 1
@<TRIPOS>SUBSTRUCTURE
     1 RES1 1

@<TRIPOS>CRYSIN
  27.3232    5.8054    7.9936  90.0000  90.0000  90.0000  33 1

