# MOL2 file generated by ConQuest
# Please check atom types

@<TRIPOS>MOLECULE
CEWFUF
    40    43     1
SMALL
NO_CHARGES
****
Generated from CSD

@<TRIPOS>ATOM
      1 C1         0.7661    6.1558    1.4864 C.ar      1 RES1    0.0000
      2 C2         1.7410    5.1839    1.5935 C.ar      1 RES1    0.0000
      3 C3         2.2816    4.8520    2.8299 C.ar      1 RES1    0.0000
      4 C4         1.8395    5.4898    3.9518 C.ar      1 RES1    0.0000
      5 C5         0.8640    6.4722    3.8788 C.ar      1 RES1    0.0000
      6 C6         0.3243    6.8150    2.6381 C.ar      1 RES1    0.0000
      7 C7        -0.6695    7.8808    2.5403 C.2       1 RES1    0.0000
      8 N1        -1.1911    8.2246    1.3862 N.2       1 RES1    0.0000
      9 O1        -2.0820    9.2946    1.7414 O.3       1 RES1    0.0000
     10 C8        -1.9573    9.4255    3.0793 C.2       1 RES1    0.0000
     11 N2        -1.1073    8.6036    3.6344 N.2       1 RES1    0.0000
     12 N3        -2.7221   10.3517    3.6666 N.3       1 RES1    0.0000
     13 C9        -3.5712   11.2502    2.9023 C.3       1 RES1    0.0000
     14 C10       -2.6903   10.4825    5.1128 C.3       1 RES1    0.0000
     15 C11       -1.9695   11.7193    5.5280 C.2       1 RES1    0.0000
     16 N4        -1.0525   12.3952    4.9265 N.2       1 RES1    0.0000
     17 C12       -0.7673   13.3927    5.8399 C.2       1 RES1    0.0000
     18 N5        -1.4770   13.3363    6.9340 N.2       1 RES1    0.0000
     19 O2        -2.2984   12.2060    6.7328 O.3       1 RES1    0.0000
     20 C13        0.2479   14.4186    5.6239 C.ar      1 RES1    0.0000
     21 C14        0.4754   15.3853    6.6109 C.ar      1 RES1    0.0000
     22 C15        1.4570   16.3288    6.4259 C.ar      1 RES1    0.0000
     23 C16        2.2266   16.3277    5.2693 C.ar      1 RES1    0.0000
     24 C17        2.0055   15.3745    4.3077 C.ar      1 RES1    0.0000
     25 C18        1.0296   14.4175    4.4655 C.ar      1 RES1    0.0000
     26 H1         0.2515    6.3600    0.5879 H         1 RES1    0.0000
     27 H2         2.1182    4.7371    0.6931 H         1 RES1    0.0000
     28 H3         3.1306    4.1974    2.8466 H         1 RES1    0.0000
     29 H4         2.1860    5.3646    4.8330 H         1 RES1    0.0000
     30 H5         0.5675    6.9465    4.7402 H         1 RES1    0.0000
     31 H6        -4.1212   10.7652    2.2525 H         1 RES1    0.0000
     32 H7        -4.4572   11.6428    3.5644 H         1 RES1    0.0000
     33 H8        -3.0459   11.9647    2.5248 H         1 RES1    0.0000
     34 H9        -3.6803   10.4563    5.4457 H         1 RES1    0.0000
     35 H10       -2.3065    9.6440    5.5138 H         1 RES1    0.0000
     36 H11       -0.1494   15.4215    7.5002 H         1 RES1    0.0000
     37 H12        1.7067   16.9594    7.2093 H         1 RES1    0.0000
     38 H13        2.8764   17.0581    5.2477 H         1 RES1    0.0000
     39 H14        2.5485   15.2047    3.5026 H         1 RES1    0.0000
     40 H15        0.8470   13.7176    3.8553 H         1 RES1    0.0000
@<TRIPOS>BOND
     1    1    2 ar
     2    2    3 ar
     3    3    4 ar
     4    4    5 ar
     5    5    6 ar
     6    6    1 ar
     7    7    6 1
     8    8    7 2
     9    9    8 1
    10   10    9 1
    11   11    7 1
    12   12   10 1
    13   13   12 1
    14   14   12 1
    15   15   14 1
    16   16   15 2
    17   17   16 1
    18   18   17 2
    19   19   15 1
    20   20   17 1
    21   21   20 ar
    22   22   21 ar
    23   23   22 ar
    24   24   23 ar
    25   25   20 ar
    26   26    1 1
    27   27    2 1
    28   28    3 1
    29   29    4 1
    30   30    5 1
    31   31   13 1
    32   32   13 1
    33   33   13 1
    34   34   14 1
    35   35   14 1
    36   36   21 1
    37   37   22 1
    38   38   23 1
    39   39   24 1
    40   40   25 1
    41   10   11 2
    42   18   19 1
    43   24   25 ar
@<TRIPOS>SUBSTRUCTURE
     1 RES1 1

@<TRIPOS>CRYSIN
   9.7410   13.6790    6.3000  91.0300 100.4200  99.7800   2 1

